MODEL 1
REMARK VINA RESULT:      -8.5      0.000      0.000
REMARK  4 active torsions:
REMARK  status: ('A' for Active; 'I' for Inactive)
REMARK    1  A    between atoms: N_6  and  S_1 
REMARK    2  A    between atoms: C_7  and  S_1 
REMARK    3  A    between atoms: C_13  and  N_6 
REMARK    4  A    between atoms: O_18  and  C_15 
ROOT
ATOM      1  S   UNL d   1      53.946  31.468  53.516  0.00  0.00     0.285 S 
ATOM      2  O   UNL d   1      54.466  31.164  52.964  0.00  0.00    -0.198 OA
ATOM      3  O   UNL d   1      54.378  32.170  53.536  0.00  0.00    -0.198 OA
ENDROOT
BRANCH   1   4
ATOM      4  N   UNL d   1      53.424  31.778  54.074  0.00  0.00    -0.158 NA
BRANCH   4   5
ATOM      5  C   UNL d   1      53.515  32.560  54.339  0.00  0.00     0.095 A 
ATOM      6  C   UNL d   1      53.036  33.156  54.028  0.00  0.00     0.040 A 
ATOM      7  C   UNL d   1      53.132  33.926  54.296  0.00  0.00     0.089 A 
ATOM      8  N   UNL d   1      52.739  34.628  54.089  0.00  0.00    -0.238 NA
ATOM      9  C   UNL d   1      53.693  34.112  54.862  0.00  0.00     0.049 A 
ATOM     10  C   UNL d   1      53.062  35.239  54.532  0.00  0.00     0.111 A 
ATOM     11  C   UNL d   1      52.837  36.042  54.505  0.00  0.00     0.028 C 
ATOM     12  S   UNL d   1      53.654  34.921  55.013  0.00  0.00    -0.066 SA
ATOM     13  C   UNL d   1      54.174  33.508  55.174  0.00  0.00     0.010 A 
ATOM     14  C   UNL d   1      54.079  32.731  54.906  0.00  0.00     0.021 A 
ENDBRANCH   4   5
ENDBRANCH   1   4
BRANCH   1  15
ATOM     15  C   UNL d   1      53.509  30.768  53.502  0.00  0.00     0.107 A 
ATOM     16  C   UNL d   1      53.729  30.127  53.977  0.00  0.00     0.037 A 
ATOM     17  C   UNL d   1      53.287  29.431  53.957  0.00  0.00     0.095 A 
ATOM     18  C   UNL d   1      52.626  29.375  53.463  0.00  0.00     0.024 A 
ATOM     19  C   UNL d   1      52.409  30.015  52.991  0.00  0.00     0.003 A 
ATOM     20  C   UNL d   1      52.851  30.711  53.011  0.00  0.00     0.013 A 
BRANCH  17  21
ATOM     21  O   UNL d   1      53.503  28.792  54.429  0.00  0.00    -0.328 OA
ATOM     22  C   UNL d   1      53.188  28.712  55.187  0.00  0.00     0.181 C 
ENDBRANCH  17  21
ENDBRANCH   1  15
TORSDOF 4
ENDMDL
MODEL 2
REMARK VINA RESULT:      -8.0      1.349      4.432
REMARK  4 active torsions:
REMARK  status: ('A' for Active; 'I' for Inactive)
REMARK    1  A    between atoms: N_6  and  S_1 
REMARK    2  A    between atoms: C_7  and  S_1 
REMARK    3  A    between atoms: C_13  and  N_6 
REMARK    4  A    between atoms: O_18  and  C_15 
ROOT
ATOM      1  S   UNL d   1      53.818  32.884  53.372  0.00  0.00     0.285 S 
ATOM      2  O   UNL d   1      54.519  33.281  53.237  0.00  0.00    -0.198 OA
ATOM      3  O   UNL d   1      54.204  32.164  53.261  0.00  0.00    -0.198 OA
ENDROOT
BRANCH   1   4
ATOM      4  N   UNL d   1      53.112  32.480  53.508  0.00  0.00    -0.158 NA
BRANCH   4   5
ATOM      5  C   UNL d   1      53.102  31.650  53.511  0.00  0.00     0.095 A 
ATOM      6  C   UNL d   1      53.279  31.241  54.205  0.00  0.00     0.040 A 
ATOM      7  C   UNL d   1      53.267  30.420  54.200  0.00  0.00     0.089 A 
ATOM      8  N   UNL d   1      53.418  29.869  54.803  0.00  0.00    -0.238 NA
ATOM      9  C   UNL d   1      53.084  30.002  53.521  0.00  0.00     0.049 A 
ATOM     10  C   UNL d   1      53.326  29.117  54.487  0.00  0.00     0.111 A 
ATOM     11  C   UNL d   1      53.424  28.394  54.893  0.00  0.00     0.028 C 
ATOM     12  S   UNL d   1      53.119  29.197  53.691  0.00  0.00    -0.066 SA
ATOM     13  C   UNL d   1      52.906  30.418  52.821  0.00  0.00     0.010 A 
ATOM     14  C   UNL d   1      52.917  31.245  52.824  0.00  0.00     0.021 A 
ENDBRANCH   4   5
ENDBRANCH   1   4
BRANCH   1  15
ATOM     15  C   UNL d   1      53.425  33.601  53.485  0.00  0.00     0.107 A 
ATOM     16  C   UNL d   1      53.524  34.028  54.186  0.00  0.00     0.037 A 
ATOM     17  C   UNL d   1      53.128  34.744  54.291  0.00  0.00     0.095 A 
ATOM     18  C   UNL d   1      52.632  35.032  53.695  0.00  0.00     0.024 A 
ATOM     19  C   UNL d   1      52.534  34.605  52.998  0.00  0.00     0.003 A 
ATOM     20  C   UNL d   1      52.931  33.889  52.892  0.00  0.00     0.013 A 
BRANCH  17  21
ATOM     21  O   UNL d   1      53.225  35.171  54.988  0.00  0.00    -0.328 OA
ATOM     22  C   UNL d   1      52.902  35.927  55.059  0.00  0.00     0.181 C 
ENDBRANCH  17  21
ENDBRANCH   1  15
TORSDOF 4
ENDMDL
MODEL 3
REMARK VINA RESULT:      -7.8      2.526      3.525
REMARK  4 active torsions:
REMARK  status: ('A' for Active; 'I' for Inactive)
REMARK    1  A    between atoms: N_6  and  S_1 
REMARK    2  A    between atoms: C_7  and  S_1 
REMARK    3  A    between atoms: C_13  and  N_6 
REMARK    4  A    between atoms: O_18  and  C_15 
ROOT
ATOM      1  S   UNL d   1      52.585  32.627  53.271  0.00  0.00     0.285 S 
ATOM      2  O   UNL d   1      52.676  31.817  53.317  0.00  0.00    -0.198 OA
ATOM      3  O   UNL d   1      51.824  32.525  52.970  0.00  0.00    -0.198 OA
ENDROOT
BRANCH   1   4
ATOM      4  N   UNL d   1      52.491  33.445  53.222  0.00  0.00    -0.158 NA
BRANCH   4   5
ATOM      5  C   UNL d   1      51.794  33.765  52.902  0.00  0.00     0.095 A 
ATOM      6  C   UNL d   1      51.232  34.103  53.401  0.00  0.00     0.040 A 
ATOM      7  C   UNL d   1      50.546  34.416  53.077  0.00  0.00     0.089 A 
ATOM      8  N   UNL d   1      49.893  34.785  53.435  0.00  0.00    -0.238 NA
ATOM      9  C   UNL d   1      50.410  34.399  52.270  0.00  0.00     0.049 A 
ATOM     10  C   UNL d   1      49.363  34.991  52.843  0.00  0.00     0.111 A 
ATOM     11  C   UNL d   1      48.629  35.375  52.947  0.00  0.00     0.028 C 
ATOM     12  S   UNL d   1      49.682  34.752  52.119  0.00  0.00    -0.066 SA
ATOM     13  C   UNL d   1      50.981  34.057  51.769  0.00  0.00     0.010 A 
ATOM     14  C   UNL d   1      51.672  33.740  52.093  0.00  0.00     0.021 A 
ENDBRANCH   4   5
ENDBRANCH   1   4
BRANCH   1  15
ATOM     15  C   UNL d   1      53.346  32.737  53.571  0.00  0.00     0.107 A 
ATOM     16  C   UNL d   1      53.462  32.873  54.378  0.00  0.00     0.037 A 
ATOM     17  C   UNL d   1      54.225  32.982  54.671  0.00  0.00     0.095 A 
ATOM     18  C   UNL d   1      54.873  32.956  54.157  0.00  0.00     0.024 A 
ATOM     19  C   UNL d   1      54.755  32.820  53.353  0.00  0.00     0.003 A 
ATOM     20  C   UNL d   1      53.991  32.711  53.060  0.00  0.00     0.013 A 
BRANCH  17  21
ATOM     21  O   UNL d   1      54.344  33.118  55.475  0.00  0.00    -0.328 OA
ATOM     22  C   UNL d   1      54.892  33.682  55.723  0.00  0.00     0.181 C 
ENDBRANCH  17  21
ENDBRANCH   1  15
TORSDOF 4
ENDMDL
MODEL 4
REMARK VINA RESULT:      -7.6      2.405      4.519
REMARK  4 active torsions:
REMARK  status: ('A' for Active; 'I' for Inactive)
REMARK    1  A    between atoms: N_6  and  S_1 
REMARK    2  A    between atoms: C_7  and  S_1 
REMARK    3  A    between atoms: C_13  and  N_6 
REMARK    4  A    between atoms: O_18  and  C_15 
ROOT
ATOM      1  S   UNL d   1      52.308  33.519  53.372  0.00  0.00     0.285 S 
ATOM      2  O   UNL d   1      52.282  34.165  53.872  0.00  0.00    -0.198 OA
ATOM      3  O   UNL d   1      52.900  33.183  53.838  0.00  0.00    -0.198 OA
ENDROOT
BRANCH   1   4
ATOM      4  N   UNL d   1      52.338  32.866  52.869  0.00  0.00    -0.158 NA
BRANCH   4   5
ATOM      5  C   UNL d   1      52.755  32.185  53.097  0.00  0.00     0.095 A 
ATOM      6  C   UNL d   1      52.348  31.477  53.217  0.00  0.00     0.040 A 
ATOM      7  C   UNL d   1      52.767  30.808  53.442  0.00  0.00     0.089 A 
ATOM      8  N   UNL d   1      52.513  30.033  53.600  0.00  0.00    -0.238 NA
ATOM      9  C   UNL d   1      53.578  30.831  53.551  0.00  0.00     0.049 A 
ATOM     10  C   UNL d   1      53.171  29.587  53.803  0.00  0.00     0.111 A 
ATOM     11  C   UNL d   1      53.177  28.777  54.006  0.00  0.00     0.028 C 
ATOM     12  S   UNL d   1      53.833  30.080  53.774  0.00  0.00    -0.066 SA
ATOM     13  C   UNL d   1      53.985  31.547  53.429  0.00  0.00     0.010 A 
ATOM     14  C   UNL d   1      53.565  32.222  53.202  0.00  0.00     0.021 A 
ENDBRANCH   4   5
ENDBRANCH   1   4
BRANCH   1  15
ATOM     15  C   UNL d   1      51.717  33.849  52.901  0.00  0.00     0.107 A 
ATOM     16  C   UNL d   1      50.957  33.969  53.205  0.00  0.00     0.037 A 
ATOM     17  C   UNL d   1      50.371  34.300  52.729  0.00  0.00     0.095 A 
ATOM     18  C   UNL d   1      50.544  34.511  51.948  0.00  0.00     0.024 A 
ATOM     19  C   UNL d   1      51.301  34.390  51.647  0.00  0.00     0.003 A 
ATOM     20  C   UNL d   1      51.888  34.060  52.124  0.00  0.00     0.013 A 
BRANCH  17  21
ATOM     21  O   UNL d   1      49.614  34.420  53.029  0.00  0.00    -0.328 OA
ATOM     22  C   UNL d   1      49.145  35.033  52.737  0.00  0.00     0.181 C 
ENDBRANCH  17  21
ENDBRANCH   1  15
TORSDOF 4
ENDMDL
MODEL 5
REMARK VINA RESULT:      -7.5      2.893      4.274
REMARK  4 active torsions:
REMARK  status: ('A' for Active; 'I' for Inactive)
REMARK    1  A    between atoms: N_6  and  S_1 
REMARK    2  A    between atoms: C_7  and  S_1 
REMARK    3  A    between atoms: C_13  and  N_6 
REMARK    4  A    between atoms: O_18  and  C_15 
ROOT
ATOM      1  S   UNL d   1      51.105  33.294  53.224  0.00  0.00     0.285 S 
ATOM      2  O   UNL d   1      50.479  32.786  53.353  0.00  0.00    -0.198 OA
ATOM      3  O   UNL d   1      51.615  32.758  53.587  0.00  0.00    -0.198 OA
ENDROOT
BRANCH   1   4
ATOM      4  N   UNL d   1      51.740  33.805  53.096  0.00  0.00    -0.158 NA
BRANCH   4   5
ATOM      5  C   UNL d   1      52.493  33.613  53.388  0.00  0.00     0.095 A 
ATOM      6  C   UNL d   1      52.800  34.026  54.033  0.00  0.00     0.040 A 
ATOM      7  C   UNL d   1      53.545  33.830  54.316  0.00  0.00     0.089 A 
ATOM      8  N   UNL d   1      53.989  34.143  54.945  0.00  0.00    -0.238 NA
ATOM      9  C   UNL d   1      53.988  33.235  53.970  0.00  0.00     0.049 A 
ATOM     10  C   UNL d   1      54.701  33.736  54.979  0.00  0.00     0.111 A 
ATOM     11  C   UNL d   1      55.319  33.864  55.525  0.00  0.00     0.028 C 
ATOM     12  S   UNL d   1      54.702  33.172  54.375  0.00  0.00    -0.066 SA
ATOM     13  C   UNL d   1      53.675  32.820  53.319  0.00  0.00     0.010 A 
ATOM     14  C   UNL d   1      52.925  33.016  53.032  0.00  0.00     0.021 A 
ENDBRANCH   4   5
ENDBRANCH   1   4
BRANCH   1  15
ATOM     15  C   UNL d   1      50.601  33.836  52.859  0.00  0.00     0.107 A 
ATOM     16  C   UNL d   1      50.179  34.385  53.311  0.00  0.00     0.037 A 
ATOM     17  C   UNL d   1      49.676  34.924  52.939  0.00  0.00     0.095 A 
ATOM     18  C   UNL d   1      49.596  34.913  52.116  0.00  0.00     0.024 A 
ATOM     19  C   UNL d   1      50.018  34.365  51.668  0.00  0.00     0.003 A 
ATOM     20  C   UNL d   1      50.520  33.827  52.040  0.00  0.00     0.013 A 
BRANCH  17  21
ATOM     21  O   UNL d   1      49.255  35.471  53.386  0.00  0.00    -0.328 OA
ATOM     22  C   UNL d   1      48.512  35.728  53.134  0.00  0.00     0.181 C 
ENDBRANCH  17  21
ENDBRANCH   1  15
TORSDOF 4
ENDMDL
MODEL 6
REMARK VINA RESULT:      -7.4      1.780      2.060
REMARK  4 active torsions:
REMARK  status: ('A' for Active; 'I' for Inactive)
REMARK    1  A    between atoms: N_6  and  S_1 
REMARK    2  A    between atoms: C_7  and  S_1 
REMARK    3  A    between atoms: C_13  and  N_6 
REMARK    4  A    between atoms: O_18  and  C_15 
ROOT
ATOM      1  S   UNL d   1      53.425  32.076  53.939  0.00  0.00     0.285 S 
ATOM      2  O   UNL d   1      53.864  31.994  54.624  0.00  0.00    -0.198 OA
ATOM      3  O   UNL d   1      53.336  32.882  54.093  0.00  0.00    -0.198 OA
ENDROOT
BRANCH   1   4
ATOM      4  N   UNL d   1      52.982  32.163  53.249  0.00  0.00    -0.158 NA
BRANCH   4   5
ATOM      5  C   UNL d   1      52.527  32.847  53.131  0.00  0.00     0.095 A 
ATOM      6  C   UNL d   1      51.704  32.803  53.169  0.00  0.00     0.040 A 
ATOM      7  C   UNL d   1      51.261  33.484  53.051  0.00  0.00     0.089 A 
ATOM      8  N   UNL d   1      50.439  33.608  53.057  0.00  0.00    -0.238 NA
ATOM      9  C   UNL d   1      51.620  34.203  52.897  0.00  0.00     0.049 A 
ATOM     10  C   UNL d   1      50.303  34.403  52.905  0.00  0.00     0.111 A 
ATOM     11  C   UNL d   1      49.557  34.777  52.859  0.00  0.00     0.028 C 
ATOM     12  S   UNL d   1      51.034  34.775  52.806  0.00  0.00    -0.066 SA
ATOM     13  C   UNL d   1      52.451  34.244  52.859  0.00  0.00     0.010 A 
ATOM     14  C   UNL d   1      52.900  33.559  52.978  0.00  0.00     0.021 A 
ENDBRANCH   4   5
ENDBRANCH   1   4
BRANCH   1  15
ATOM     15  C   UNL d   1      53.510  31.271  53.779  0.00  0.00     0.107 A 
ATOM     16  C   UNL d   1      53.162  30.707  54.272  0.00  0.00     0.037 A 
ATOM     17  C   UNL d   1      53.251  29.904  54.105  0.00  0.00     0.095 A 
ATOM     18  C   UNL d   1      53.689  29.665  53.445  0.00  0.00     0.024 A 
ATOM     19  C   UNL d   1      54.035  30.230  52.955  0.00  0.00     0.003 A 
ATOM     20  C   UNL d   1      53.946  31.033  53.122  0.00  0.00     0.013 A 
BRANCH  17  21
ATOM     21  O   UNL d   1      52.905  29.339  54.594  0.00  0.00    -0.328 OA
ATOM     22  C   UNL d   1      53.344  28.690  54.852  0.00  0.00     0.181 C 
ENDBRANCH  17  21
ENDBRANCH   1  15
TORSDOF 4
ENDMDL
