MODEL 1
REMARK VINA RESULT:      65.4      0.000      0.000
REMARK  4 active torsions:
REMARK  status: ('A' for Active; 'I' for Inactive)
REMARK       I    between atoms: C_2  and  N_1 
REMARK    1  A    between atoms: C_6  and  C_2 
REMARK       I    between atoms: C_4  and  N_7 
REMARK    2  A    between atoms: C_5  and  C_4 
REMARK       I    between atoms: N_10  and  C_5 
REMARK    3  A    between atoms: N_7  and  C_13 
REMARK    4  A    between atoms: C_19  and  N_10 
ROOT
ATOM      1  N   UNL d   1      13.641  12.971  -3.149  0.00  0.00    -0.273 N 
ATOM      2  C   UNL d   1      14.043  13.355  -2.526  0.00  0.00     0.265 C 
ATOM      3  C   UNL d   1      13.403  13.390  -3.813  0.00  0.00     0.068 A 
ATOM      4  C   UNL d   1      13.561  14.198  -3.870  0.00  0.00     0.037 A 
ATOM      5  C   UNL d   1      13.008  13.006  -4.424  0.00  0.00     0.016 A 
ATOM      6  C   UNL d   1      13.322  14.619  -4.538  0.00  0.00     0.086 A 
ATOM      7  O   UNL d   1      14.200  14.160  -2.583  0.00  0.00    -0.267 OA
ATOM      8  C   UNL d   1      12.769  13.427  -5.092  0.00  0.00     0.003 A 
ATOM      9  C   UNL d   1      13.485  12.166  -3.091  0.00  0.00     0.083 A 
ATOM     10  C   UNL d   1      12.925  14.232  -5.149  0.00  0.00     0.019 A 
ATOM     11  C   UNL d   1      13.088  11.779  -3.703  0.00  0.00     0.019 A 
ATOM     12  C   UNL d   1      12.850  12.197  -4.367  0.00  0.00     0.003 A 
ENDROOT
BRANCH   6  13
ATOM     13  N   UNL d   1      13.481  15.431  -4.593  0.00  0.00    -0.204 NA
ATOM     14  C   UNL d   1      13.960  15.714  -5.202  0.00  0.00     0.337 C 
ATOM     15  O   UNL d   1      14.280  15.191  -5.754  0.00  0.00    -0.260 OA
BRANCH  14  16
ATOM     16  C   UNL d   1      14.121  16.519  -5.260  0.00  0.00     0.337 C 
ATOM     17  N   UNL d   1      13.749  16.975  -5.837  0.00  0.00    -0.204 NA
ATOM     18  O   UNL d   1      14.657  16.869  -4.739  0.00  0.00    -0.260 OA
BRANCH  17  19
ATOM     19  C   UNL d   1      13.912  17.782  -5.893  0.00  0.00     0.085 A 
ATOM     20  C   UNL d   1      13.419  18.267  -6.330  0.00  0.00     0.019 A 
ATOM     21  C   UNL d   1      13.580  19.082  -6.389  0.00  0.00     0.002 A 
ATOM     22  C   UNL d   1      14.239  19.396  -6.005  0.00  0.00     0.000 A 
ATOM     23  C   UNL d   1      14.737  18.896  -5.562  0.00  0.00     0.002 A 
ATOM     24  C   UNL d   1      14.571  18.097  -5.510  0.00  0.00     0.019 A 
ENDBRANCH  17  19
ENDBRANCH  14  16
ENDBRANCH   6  13
BRANCH   2  25
ATOM     25  C   UNL d   1      14.281  12.931  -1.859  0.00  0.00     0.057 A 
ATOM     26  C   UNL d   1      14.521  12.509  -1.192  0.00  0.00     0.005 A 
ATOM     27  C   UNL d   1      14.894  13.219  -1.387  0.00  0.00     0.005 A 
ENDBRANCH   2  25
TORSDOF 4
ENDMDL
MODEL 2
REMARK VINA RESULT:      65.7      1.699      2.765
REMARK  4 active torsions:
REMARK  status: ('A' for Active; 'I' for Inactive)
REMARK       I    between atoms: C_2  and  N_1 
REMARK    1  A    between atoms: C_6  and  C_2 
REMARK       I    between atoms: C_4  and  N_7 
REMARK    2  A    between atoms: C_5  and  C_4 
REMARK       I    between atoms: N_10  and  C_5 
REMARK    3  A    between atoms: N_7  and  C_13 
REMARK    4  A    between atoms: C_19  and  N_10 
ROOT
ATOM      1  N   UNL d   1      14.774  13.886  -1.317  0.00  0.00    -0.273 N 
ATOM      2  C   UNL d   1      14.446  13.405  -1.917  0.00  0.00     0.265 C 
ATOM      3  C   UNL d   1      14.856  14.694  -1.427  0.00  0.00     0.068 A 
ATOM      4  C   UNL d   1      14.613  15.041  -2.136  0.00  0.00     0.037 A 
ATOM      5  C   UNL d   1      15.181  15.161  -0.833  0.00  0.00     0.016 A 
ATOM      6  C   UNL d   1      14.696  15.855  -2.246  0.00  0.00     0.086 A 
ATOM      7  O   UNL d   1      14.204  13.752  -2.622  0.00  0.00    -0.267 OA
ATOM      8  C   UNL d   1      15.263  15.974  -0.943  0.00  0.00     0.003 A 
ATOM      9  C   UNL d   1      15.016  13.538  -0.612  0.00  0.00     0.083 A 
ATOM     10  C   UNL d   1      15.021  16.321  -1.648  0.00  0.00     0.019 A 
ATOM     11  C   UNL d   1      15.342  14.005  -0.014  0.00  0.00     0.019 A 
ATOM     12  C   UNL d   1      15.424  14.814  -0.124  0.00  0.00     0.003 A 
ENDROOT
BRANCH   6  13
ATOM     13  N   UNL d   1      14.451  16.201  -2.958  0.00  0.00    -0.204 NA
ATOM     14  C   UNL d   1      15.003  16.573  -3.445  0.00  0.00     0.337 C 
ATOM     15  O   UNL d   1      15.798  16.599  -3.222  0.00  0.00    -0.260 OA
BRANCH  14  16
ATOM     16  C   UNL d   1      14.765  16.917  -4.152  0.00  0.00     0.337 C 
ATOM     17  N   UNL d   1      14.804  17.736  -4.248  0.00  0.00    -0.204 NA
ATOM     18  O   UNL d   1      14.486  16.442  -4.767  0.00  0.00    -0.260 OA
BRANCH  17  19
ATOM     19  C   UNL d   1      14.564  18.079  -4.960  0.00  0.00     0.085 A 
ATOM     20  C   UNL d   1      14.573  18.892  -5.041  0.00  0.00     0.019 A 
ATOM     21  C   UNL d   1      14.331  19.243  -5.757  0.00  0.00     0.002 A 
ATOM     22  C   UNL d   1      14.083  18.765  -6.382  0.00  0.00     0.000 A 
ATOM     23  C   UNL d   1      14.077  17.936  -6.291  0.00  0.00     0.002 A 
ATOM     24  C   UNL d   1      14.316  17.601  -5.585  0.00  0.00     0.019 A 
ENDBRANCH  17  19
ENDBRANCH  14  16
ENDBRANCH   6  13
BRANCH   2  25
ATOM     25  C   UNL d   1      14.365  12.592  -1.802  0.00  0.00     0.057 A 
ATOM     26  C   UNL d   1      14.282  11.779  -1.692  0.00  0.00     0.005 A 
ATOM     27  C   UNL d   1      14.019  12.128  -2.392  0.00  0.00     0.005 A 
ENDBRANCH   2  25
TORSDOF 4
ENDMDL
