MODEL 1
REMARK VINA RESULT:      62.0      0.000      0.000
REMARK  5 active torsions:
REMARK  status: ('A' for Active; 'I' for Inactive)
REMARK       I    between atoms: C_5  and  N_1 
REMARK    1  A    between atoms: S_13  and  C_2 
REMARK    2  A    between atoms: S_3  and  C_9 
REMARK    3  A    between atoms: N_7  and  S_3 
REMARK    4  A    between atoms: C_12  and  C_5 
REMARK    5  A    between atoms: C_23  and  S_13 
ROOT
ATOM      1  C   UNL d   1      45.610 -17.852  39.914  0.00  0.00     0.104 A 
ATOM      2  C   UNL d   1      45.885 -18.782  41.249  0.00  0.00     0.057 A 
ATOM      3  C   UNL d   1      46.358 -18.174  40.048  0.00  0.00     0.013 A 
ATOM      4  C   UNL d   1      44.994 -17.997  40.452  0.00  0.00     0.013 A 
ATOM      5  C   UNL d   1      45.130 -18.463  41.122  0.00  0.00     0.005 A 
ATOM      6  C   UNL d   1      46.492 -18.637  40.714  0.00  0.00     0.005 A 
ENDROOT
BRANCH   2   7
ATOM      7  C   UNL d   1      46.017 -19.243  41.912  0.00  0.00     0.266 C 
ATOM      8  N   UNL d   1      46.180 -18.894  42.646  0.00  0.00    -0.253 N 
ATOM      9  C   UNL d   1      46.227 -18.083  42.790  0.00  0.00     0.182 A 
ATOM     10  C   UNL d   1      46.324 -19.294  43.354  0.00  0.00     0.086 A 
ATOM     11  N   UNL d   1      46.400 -17.980  43.593  0.00  0.00    -0.221 NA
ATOM     12  C   UNL d   1      46.460 -18.724  43.940  0.00  0.00     0.100 A 
ATOM     13  C   UNL d   1      46.619 -18.962  44.708  0.00  0.00     0.021 A 
ATOM     14  C   UNL d   1      46.644 -19.762  44.900  0.00  0.00     0.002 A 
ATOM     15  C   UNL d   1      46.508 -20.330  44.311  0.00  0.00     0.002 A 
ATOM     16  C   UNL d   1      46.348 -20.089  43.540  0.00  0.00     0.019 A 
ATOM     17  O   UNL d   1      45.988 -20.068  41.850  0.00  0.00    -0.267 OA
BRANCH   9  18
ATOM     18  S   UNL d   1      46.119 -17.492  42.232  0.00  0.00    -0.049 SA
BRANCH  18  19
ATOM     19  C   UNL d   1      46.031 -16.524  42.501  0.00  0.00     0.038 C 
ATOM     20  C   UNL d   1      45.795 -16.208  43.358  0.00  0.00     0.008 C 
ENDBRANCH  18  19
ENDBRANCH   9  18
ENDBRANCH   2   7
BRANCH   1  21
ATOM     21  S   UNL d   1      45.478 -17.387  39.243  0.00  0.00     0.271 S 
ATOM     22  O   UNL d   1      46.255 -17.522  38.986  0.00  0.00    -0.200 OA
ATOM     23  O   UNL d   1      44.701 -17.245  39.489  0.00  0.00    -0.200 OA
BRANCH  21  24
ATOM     24  N   UNL d   1      45.342 -16.920  38.572  0.00  0.00    -0.229 N 
ATOM     25  C   UNL d   1      45.780 -16.225  38.450  0.00  0.00     0.092 A 
ATOM     26  C   UNL d   1      45.648 -15.765  37.791  0.00  0.00     0.020 A 
ATOM     27  C   UNL d   1      45.080 -15.989  37.245  0.00  0.00     0.003 A 
ATOM     28  C   UNL d   1      44.636 -16.679  37.353  0.00  0.00     0.020 A 
ATOM     29  C   UNL d   1      44.775 -17.141  38.024  0.00  0.00     0.092 A 
ENDBRANCH  21  24
ENDBRANCH   1  21
TORSDOF 5
ENDMDL
