MODEL 1
REMARK VINA RESULT:      -5.7      0.000      0.000
REMARK  6 active torsions:
REMARK  status: ('A' for Active; 'I' for Inactive)
REMARK    1  A    between atoms: C_8  and  C_1 
REMARK    2  A    between atoms: C_2  and  N_3 
REMARK       I    between atoms: N_3  and  C_8 
REMARK    3  A    between atoms: S_4  and  C_14 
REMARK    4  A    between atoms: C_23  and  N_7 
REMARK    5  A    between atoms: C_27  and  C_23 
REMARK    6  A    between atoms: O_26  and  C_27 
ROOT
ATOM      1  C   UNL d   1      44.648  29.267  58.817  0.00  0.00     0.182 A 
ATOM      2  N   UNL d   1      44.523  29.470  58.033  0.00  0.00    -0.283 N 
ATOM      3  S   UNL d   1      44.845  28.468  58.845  0.00  0.00    -0.048 SA
ATOM      4  C   UNL d   1      44.842  28.177  58.071  0.00  0.00     0.049 A 
ATOM      5  C   UNL d   1      44.642  28.799  57.567  0.00  0.00     0.072 A 
ATOM      6  C   UNL d   1      44.948  27.303  56.950  0.00  0.00     0.107 A 
ATOM      7  C   UNL d   1      44.994  27.429  57.762  0.00  0.00     0.021 A 
ATOM      8  C   UNL d   1      44.596  28.673  56.754  0.00  0.00     0.019 A 
ATOM      9  C   UNL d   1      44.748  27.925  56.446  0.00  0.00     0.015 A 
ENDROOT
BRANCH   1  10
ATOM     10  N   UNL d   1      44.584  29.779  59.461  0.00  0.00    -0.183 NA
ATOM     11  C   UNL d   1      44.628  29.478  60.226  0.00  0.00     0.288 C 
ATOM     12  O   UNL d   1      44.734  28.669  60.341  0.00  0.00    -0.265 OA
BRANCH  11  13
ATOM     13  C   UNL d   1      44.565  29.983  60.875  0.00  0.00     0.098 A 
ATOM     14  S   UNL d   1      44.481  30.795  60.843  0.00  0.00    -0.081 SA
ATOM     15  C   UNL d   1      44.439  31.083  61.611  0.00  0.00     0.030 A 
ATOM     16  C   UNL d   1      44.355  31.853  61.909  0.00  0.00     0.006 A 
ATOM     17  C   UNL d   1      44.498  30.447  62.133  0.00  0.00     0.017 A 
ATOM     18  C   UNL d   1      44.328  31.986  62.729  0.00  0.00     0.001 A 
ATOM     19  C   UNL d   1      44.389  31.331  63.246  0.00  0.00     0.000 A 
ATOM     20  C   UNL d   1      44.472  30.578  62.950  0.00  0.00     0.001 A 
ATOM     21  C   UNL d   1      44.577  29.756  61.672  0.00  0.00     0.069 A 
ATOM     22 CL   UNL d   1      44.653  28.992  61.963  0.00  0.00    -0.082 Cl
ENDBRANCH  11  13
ENDBRANCH   1  10
BRANCH   2  23
ATOM     23  C   UNL d   1      44.314  30.218  57.748  0.00  0.00     0.108 C 
BRANCH  23  24
ATOM     24  C   UNL d   1      44.858  30.672  57.330  0.00  0.00     0.135 C 
BRANCH  24  25
ATOM     25  O   UNL d   1      44.732  31.476  57.225  0.00  0.00    -0.325 OA
ATOM     26  C   UNL d   1      44.687  31.801  56.464  0.00  0.00     0.182 C 
ENDBRANCH  24  25
ENDBRANCH  23  24
ENDBRANCH   2  23
BRANCH   6  27
ATOM     27  S   UNL d   1      45.102  26.545  56.634  0.00  0.00     0.302 S 
ATOM     28  O   UNL d   1      44.320  26.301  56.758  0.00  0.00    -0.197 OA
ATOM     29  O   UNL d   1      45.877  26.790  56.513  0.00  0.00    -0.197 OA
ATOM     30  N   UNL d   1      45.281  25.806  56.319  0.00  0.00    -0.043 N 
ENDBRANCH   6  27
TORSDOF 6
ENDMDL
MODEL 2
REMARK VINA RESULT:      -5.6     10.093     11.292
REMARK  6 active torsions:
REMARK  status: ('A' for Active; 'I' for Inactive)
REMARK    1  A    between atoms: C_8  and  C_1 
REMARK    2  A    between atoms: C_2  and  N_3 
REMARK       I    between atoms: N_3  and  C_8 
REMARK    3  A    between atoms: S_4  and  C_14 
REMARK    4  A    between atoms: C_23  and  N_7 
REMARK    5  A    between atoms: C_27  and  C_23 
REMARK    6  A    between atoms: O_26  and  C_27 
ROOT
ATOM      1  C   UNL d   1      52.104  33.510  53.258  0.00  0.00     0.182 A 
ATOM      2  N   UNL d   1      52.505  32.796  53.291  0.00  0.00    -0.283 N 
ATOM      3  S   UNL d   1      52.546  34.069  53.671  0.00  0.00    -0.048 SA
ATOM      4  C   UNL d   1      53.224  33.695  53.961  0.00  0.00     0.049 A 
ATOM      5  C   UNL d   1      53.198  32.905  53.725  0.00  0.00     0.072 A 
ATOM      6  C   UNL d   1      54.466  33.459  54.618  0.00  0.00     0.107 A 
ATOM      7  C   UNL d   1      53.859  33.972  54.407  0.00  0.00     0.021 A 
ATOM      8  C   UNL d   1      53.807  32.391  53.935  0.00  0.00     0.019 A 
ATOM      9  C   UNL d   1      54.441  32.669  54.382  0.00  0.00     0.015 A 
ENDROOT
BRANCH   1  10
ATOM     10  N   UNL d   1      51.385  33.640  52.875  0.00  0.00    -0.183 NA
ATOM     11  C   UNL d   1      51.051  34.392  52.881  0.00  0.00     0.288 C 
ATOM     12  O   UNL d   1      51.437  35.008  53.268  0.00  0.00    -0.265 OA
BRANCH  11  13
ATOM     13  C   UNL d   1      50.332  34.529  52.501  0.00  0.00     0.098 A 
ATOM     14  S   UNL d   1      49.652  34.818  52.851  0.00  0.00    -0.081 SA
ATOM     15  C   UNL d   1      49.066  34.870  52.277  0.00  0.00     0.030 A 
ATOM     16  C   UNL d   1      48.277  35.122  52.316  0.00  0.00     0.006 A 
ATOM     17  C   UNL d   1      49.378  34.612  51.559  0.00  0.00     0.017 A 
ATOM     18  C   UNL d   1      47.800  35.117  51.635  0.00  0.00     0.001 A 
ATOM     19  C   UNL d   1      48.131  34.853  50.913  0.00  0.00     0.000 A 
ATOM     20  C   UNL d   1      48.905  34.606  50.880  0.00  0.00     0.001 A 
ATOM     21  C   UNL d   1      50.173  34.398  51.698  0.00  0.00     0.069 A 
ATOM     22 CL   UNL d   1      50.696  34.109  51.135  0.00  0.00    -0.082 Cl
ENDBRANCH  11  13
ENDBRANCH   1  10
BRANCH   2  23
ATOM     23  C   UNL d   1      52.262  32.083  52.950  0.00  0.00     0.108 C 
BRANCH  23  24
ATOM     24  C   UNL d   1      52.611  31.373  53.176  0.00  0.00     0.135 C 
BRANCH  24  25
ATOM     25  O   UNL d   1      52.261  30.658  52.977  0.00  0.00    -0.325 OA
ATOM     26  C   UNL d   1      52.717  29.970  52.901  0.00  0.00     0.182 C 
ENDBRANCH  24  25
ENDBRANCH  23  24
ENDBRANCH   2  23
BRANCH   6  27
ATOM     27  S   UNL d   1      55.111  33.737  55.071  0.00  0.00     0.302 S 
ATOM     28  O   UNL d   1      55.660  33.470  54.509  0.00  0.00    -0.197 OA
ATOM     29  O   UNL d   1      54.566  34.000  55.626  0.00  0.00    -0.197 OA
ATOM     30  N   UNL d   1      55.729  34.020  55.537  0.00  0.00    -0.043 N 
ENDBRANCH   6  27
TORSDOF 6
ENDMDL
MODEL 3
REMARK VINA RESULT:      -4.6      1.514      1.910
REMARK  6 active torsions:
REMARK  status: ('A' for Active; 'I' for Inactive)
REMARK    1  A    between atoms: C_8  and  C_1 
REMARK    2  A    between atoms: C_2  and  N_3 
REMARK       I    between atoms: N_3  and  C_8 
REMARK    3  A    between atoms: S_4  and  C_14 
REMARK    4  A    between atoms: C_23  and  N_7 
REMARK    5  A    between atoms: C_27  and  C_23 
REMARK    6  A    between atoms: O_26  and  C_27 
ROOT
ATOM      1  C   UNL d   1      44.580  27.487  58.584  0.00  0.00     0.182 A 
ATOM      2  N   UNL d   1      44.444  27.506  57.776  0.00  0.00    -0.283 N 
ATOM      3  S   UNL d   1      44.673  26.700  58.807  0.00  0.00    -0.048 SA
ATOM      4  C   UNL d   1      44.593  26.231  58.131  0.00  0.00     0.049 A 
ATOM      5  C   UNL d   1      44.451  26.731  57.491  0.00  0.00     0.072 A 
ATOM      6  C   UNL d   1      44.528  25.102  57.263  0.00  0.00     0.107 A 
ATOM      7  C   UNL d   1      44.632  25.416  58.016  0.00  0.00     0.021 A 
ATOM      8  C   UNL d   1      44.347  26.417  56.736  0.00  0.00     0.019 A 
ATOM      9  C   UNL d   1      44.385  25.603  56.623  0.00  0.00     0.015 A 
ENDROOT
BRANCH   1  10
ATOM     10  N   UNL d   1      44.616  28.145  59.081  0.00  0.00    -0.183 NA
ATOM     11  C   UNL d   1      44.485  28.052  59.888  0.00  0.00     0.288 C 
ATOM     12  O   UNL d   1      44.318  27.305  60.193  0.00  0.00    -0.265 OA
BRANCH  11  13
ATOM     13  C   UNL d   1      44.519  28.706  60.390  0.00  0.00     0.098 A 
ATOM     14  S   UNL d   1      44.637  29.481  60.161  0.00  0.00    -0.081 SA
ATOM     15  C   UNL d   1      44.634  29.955  60.832  0.00  0.00     0.030 A 
ATOM     16  C   UNL d   1      44.726  30.773  60.931  0.00  0.00     0.006 A 
ATOM     17  C   UNL d   1      44.513  29.474  61.492  0.00  0.00     0.017 A 
ATOM     18  C   UNL d   1      44.698  31.111  61.690  0.00  0.00     0.001 A 
ATOM     19  C   UNL d   1      44.575  30.610  62.350  0.00  0.00     0.000 A 
ATOM     20  C   UNL d   1      44.485  29.809  62.248  0.00  0.00     0.001 A 
ATOM     21  C   UNL d   1      44.441  28.690  61.216  0.00  0.00     0.069 A 
ATOM     22 CL   UNL d   1      44.316  28.027  61.684  0.00  0.00    -0.082 Cl
ENDBRANCH  11  13
ENDBRANCH   1  10
BRANCH   2  23
ATOM     23  C   UNL d   1      44.319  28.182  57.317  0.00  0.00     0.108 C 
BRANCH  23  24
ATOM     24  C   UNL d   1      44.946  28.539  56.921  0.00  0.00     0.135 C 
BRANCH  24  25
ATOM     25  O   UNL d   1      44.804  29.030  56.279  0.00  0.00    -0.325 OA
ATOM     26  C   UNL d   1      44.884  29.851  56.348  0.00  0.00     0.182 C 
ENDBRANCH  24  25
ENDBRANCH  23  24
ENDBRANCH   2  23
BRANCH   6  27
ATOM     27  S   UNL d   1      44.567  24.276  57.144  0.00  0.00     0.302 S 
ATOM     28  O   UNL d   1      44.817  24.371  56.359  0.00  0.00    -0.197 OA
ATOM     29  O   UNL d   1      44.318  24.185  57.922  0.00  0.00    -0.197 OA
ATOM     30  N   UNL d   1      44.596  23.458  57.053  0.00  0.00    -0.043 N 
ENDBRANCH   6  27
TORSDOF 6
ENDMDL
MODEL 4
REMARK VINA RESULT:      -4.4      9.842     10.527
REMARK  6 active torsions:
REMARK  status: ('A' for Active; 'I' for Inactive)
REMARK    1  A    between atoms: C_8  and  C_1 
REMARK    2  A    between atoms: C_2  and  N_3 
REMARK       I    between atoms: N_3  and  C_8 
REMARK    3  A    between atoms: S_4  and  C_14 
REMARK    4  A    between atoms: C_23  and  N_7 
REMARK    5  A    between atoms: C_27  and  C_23 
REMARK    6  A    between atoms: O_26  and  C_27 
ROOT
ATOM      1  C   UNL d   1      51.334  33.882  53.144  0.00  0.00     0.182 A 
ATOM      2  N   UNL d   1      52.132  34.047  53.234  0.00  0.00    -0.283 N 
ATOM      3  S   UNL d   1      51.248  33.065  53.092  0.00  0.00    -0.048 SA
ATOM      4  C   UNL d   1      51.999  32.724  53.150  0.00  0.00     0.049 A 
ATOM      5  C   UNL d   1      52.548  33.333  53.239  0.00  0.00     0.072 A 
ATOM      6  C   UNL d   1      53.053  31.767  53.207  0.00  0.00     0.107 A 
ATOM      7  C   UNL d   1      52.252  31.941  53.135  0.00  0.00     0.021 A 
ATOM      8  C   UNL d   1      53.350  33.160  53.312  0.00  0.00     0.019 A 
ATOM      9  C   UNL d   1      53.602  32.376  53.296  0.00  0.00     0.015 A 
ENDROOT
BRANCH   1  10
ATOM     10  N   UNL d   1      50.729  34.443  53.112  0.00  0.00    -0.183 NA
ATOM     11  C   UNL d   1      50.009  34.243  52.767  0.00  0.00     0.288 C 
ATOM     12  O   UNL d   1      49.899  33.488  52.457  0.00  0.00    -0.265 OA
BRANCH  11  13
ATOM     13  C   UNL d   1      49.400  34.798  52.731  0.00  0.00     0.098 A 
ATOM     14  S   UNL d   1      49.135  35.260  53.351  0.00  0.00    -0.081 SA
ATOM     15  C   UNL d   1      48.523  35.735  53.079  0.00  0.00     0.030 A 
ATOM     16  C   UNL d   1      48.054  36.304  53.460  0.00  0.00     0.006 A 
ATOM     17  C   UNL d   1      48.399  35.572  52.280  0.00  0.00     0.017 A 
ATOM     18  C   UNL d   1      47.462  36.710  53.041  0.00  0.00     0.001 A 
ATOM     19  C   UNL d   1      47.348  36.533  52.230  0.00  0.00     0.000 A 
ATOM     20  C   UNL d   1      47.810  35.975  51.861  0.00  0.00     0.001 A 
ATOM     21  C   UNL d   1      48.949  34.984  52.060  0.00  0.00     0.069 A 
ATOM     22 CL   UNL d   1      49.024  34.654  51.312  0.00  0.00    -0.082 Cl
ENDBRANCH  11  13
ENDBRANCH   1  10
BRANCH   2  23
ATOM     23  C   UNL d   1      52.471  34.797  53.309  0.00  0.00     0.108 C 
BRANCH  23  24
ATOM     24  C   UNL d   1      52.681  35.088  54.049  0.00  0.00     0.135 C 
BRANCH  24  25
ATOM     25  O   UNL d   1      52.998  35.842  54.123  0.00  0.00    -0.325 OA
ATOM     26  C   UNL d   1      53.216  36.138  54.865  0.00  0.00     0.182 C 
ENDBRANCH  24  25
ENDBRANCH  23  24
ENDBRANCH   2  23
BRANCH   6  27
ATOM     27  S   UNL d   1      53.312  30.972  53.192  0.00  0.00     0.302 S 
ATOM     28  O   UNL d   1      52.988  30.850  52.439  0.00  0.00    -0.197 OA
ATOM     29  O   UNL d   1      53.633  31.097  53.938  0.00  0.00    -0.197 OA
ATOM     30  N   UNL d   1      53.579  30.193  53.202  0.00  0.00    -0.043 N 
ENDBRANCH   6  27
TORSDOF 6
ENDMDL
MODEL 5
REMARK VINA RESULT:      -4.2      2.428      5.469
REMARK  6 active torsions:
REMARK  status: ('A' for Active; 'I' for Inactive)
REMARK    1  A    between atoms: C_8  and  C_1 
REMARK    2  A    between atoms: C_2  and  N_3 
REMARK       I    between atoms: N_3  and  C_8 
REMARK    3  A    between atoms: S_4  and  C_14 
REMARK    4  A    between atoms: C_23  and  N_7 
REMARK    5  A    between atoms: C_27  and  C_23 
REMARK    6  A    between atoms: O_26  and  C_27 
ROOT
ATOM      1  C   UNL d   1      44.625  27.896  58.426  0.00  0.00     0.182 A 
ATOM      2  N   UNL d   1      44.489  28.406  59.053  0.00  0.00    -0.283 N 
ATOM      3  S   UNL d   1      44.777  28.351  57.757  0.00  0.00    -0.048 SA
ATOM      4  C   UNL d   1      44.734  29.148  57.974  0.00  0.00     0.049 A 
ATOM      5  C   UNL d   1      44.555  29.182  58.779  0.00  0.00     0.072 A 
ATOM      6  C   UNL d   1      44.756  30.572  57.919  0.00  0.00     0.107 A 
ATOM      7  C   UNL d   1      44.834  29.844  57.545  0.00  0.00     0.021 A 
ATOM      8  C   UNL d   1      44.477  29.911  59.154  0.00  0.00     0.019 A 
ATOM      9  C   UNL d   1      44.578  30.606  58.724  0.00  0.00     0.015 A 
ENDROOT
BRANCH   1  10
ATOM     10  N   UNL d   1      44.610  27.072  58.466  0.00  0.00    -0.183 NA
ATOM     11  C   UNL d   1      44.579  26.633  57.770  0.00  0.00     0.288 C 
ATOM     12  O   UNL d   1      44.563  27.018  57.042  0.00  0.00    -0.265 OA
BRANCH  11  13
ATOM     13  C   UNL d   1      44.564  25.808  57.802  0.00  0.00     0.098 A 
ATOM     14  S   UNL d   1      44.667  25.353  58.473  0.00  0.00    -0.081 SA
ATOM     15  C   UNL d   1      44.612  24.561  58.260  0.00  0.00     0.030 A 
ATOM     16  C   UNL d   1      44.670  23.865  58.706  0.00  0.00     0.006 A 
ATOM     17  C   UNL d   1      44.472  24.516  57.448  0.00  0.00     0.017 A 
ATOM     18  C   UNL d   1      44.590  23.122  58.340  0.00  0.00     0.001 A 
ATOM     19  C   UNL d   1      44.449  23.093  57.516  0.00  0.00     0.000 A 
ATOM     20  C   UNL d   1      44.391  23.778  57.082  0.00  0.00     0.001 A 
ATOM     21  C   UNL d   1      44.442  25.299  57.160  0.00  0.00     0.069 A 
ATOM     22 CL   UNL d   1      44.314  25.516  56.378  0.00  0.00    -0.082 Cl
ENDBRANCH  11  13
ENDBRANCH   1  10
BRANCH   2  23
ATOM     23  C   UNL d   1      44.314  28.189  59.831  0.00  0.00     0.108 C 
BRANCH  23  24
ATOM     24  C   UNL d   1      44.914  28.124  60.391  0.00  0.00     0.135 C 
BRANCH  24  25
ATOM     25  O   UNL d   1      44.786  27.713  61.089  0.00  0.00    -0.325 OA
ATOM     26  C   UNL d   1      44.669  28.117  61.803  0.00  0.00     0.182 C 
ENDBRANCH  24  25
ENDBRANCH  23  24
ENDBRANCH   2  23
BRANCH   6  27
ATOM     27  S   UNL d   1      44.858  31.279  57.485  0.00  0.00     0.302 S 
ATOM     28  O   UNL d   1      44.627  30.913  56.778  0.00  0.00    -0.197 OA
ATOM     29  O   UNL d   1      45.086  31.639  58.188  0.00  0.00    -0.197 OA
ATOM     30  N   UNL d   1      44.966  31.989  57.081  0.00  0.00    -0.043 N 
ENDBRANCH   6  27
TORSDOF 6
ENDMDL
MODEL 6
REMARK VINA RESULT:      -4.1      3.617      7.381
REMARK  6 active torsions:
REMARK  status: ('A' for Active; 'I' for Inactive)
REMARK    1  A    between atoms: C_8  and  C_1 
REMARK    2  A    between atoms: C_2  and  N_3 
REMARK       I    between atoms: N_3  and  C_8 
REMARK    3  A    between atoms: S_4  and  C_14 
REMARK    4  A    between atoms: C_23  and  N_7 
REMARK    5  A    between atoms: C_27  and  C_23 
REMARK    6  A    between atoms: O_26  and  C_27 
ROOT
ATOM      1  C   UNL d   1      44.960  25.605  56.776  0.00  0.00     0.182 A 
ATOM      2  N   UNL d   1      44.629  25.670  57.522  0.00  0.00    -0.283 N 
ATOM      3  S   UNL d   1      45.187  26.358  56.531  0.00  0.00    -0.048 SA
ATOM      4  C   UNL d   1      44.994  26.891  57.133  0.00  0.00     0.049 A 
ATOM      5  C   UNL d   1      44.647  26.464  57.748  0.00  0.00     0.072 A 
ATOM      6  C   UNL d   1      44.837  28.095  57.880  0.00  0.00     0.107 A 
ATOM      7  C   UNL d   1      45.088  27.707  57.200  0.00  0.00     0.021 A 
ATOM      8  C   UNL d   1      44.395  26.853  58.430  0.00  0.00     0.019 A 
ATOM      9  C   UNL d   1      44.490  27.668  58.495  0.00  0.00     0.015 A 
ENDROOT
BRANCH   1  10
ATOM     10  N   UNL d   1      45.048  24.904  56.349  0.00  0.00    -0.183 NA
ATOM     11  C   UNL d   1      44.847  24.887  55.551  0.00  0.00     0.288 C 
ATOM     12  O   UNL d   1      44.560  25.568  55.186  0.00  0.00    -0.265 OA
BRANCH  11  13
ATOM     13  C   UNL d   1      44.931  24.190  55.118  0.00  0.00     0.098 A 
ATOM     14  S   UNL d   1      45.257  23.492  55.392  0.00  0.00    -0.081 SA
ATOM     15  C   UNL d   1      45.234  22.938  54.786  0.00  0.00     0.030 A 
ATOM     16  C   UNL d   1      45.485  22.149  54.749  0.00  0.00     0.006 A 
ATOM     17  C   UNL d   1      44.892  23.290  54.122  0.00  0.00     0.017 A 
ATOM     18  C   UNL d   1      45.393  21.710  54.049  0.00  0.00     0.001 A 
ATOM     19  C   UNL d   1      45.044  22.080  53.385  0.00  0.00     0.000 A 
ATOM     20  C   UNL d   1      44.799  22.854  53.424  0.00  0.00     0.001 A 
ATOM     21  C   UNL d   1      44.701  24.075  54.330  0.00  0.00     0.069 A 
ATOM     22 CL   UNL d   1      44.349  24.629  53.836  0.00  0.00    -0.082 Cl
ENDBRANCH  11  13
ENDBRANCH   1  10
BRANCH   2  23
ATOM     23  C   UNL d   1      44.325  25.052  57.979  0.00  0.00     0.108 C 
BRANCH  23  24
ATOM     24  C   UNL d   1      44.817  24.623  58.480  0.00  0.00     0.135 C 
BRANCH  24  25
ATOM     25  O   UNL d   1      44.497  24.116  59.040  0.00  0.00    -0.325 OA
ATOM     26  C   UNL d   1      44.620  23.298  58.991  0.00  0.00     0.182 C 
ENDBRANCH  24  25
ENDBRANCH  23  24
ENDBRANCH   2  23
BRANCH   6  27
ATOM     27  S   UNL d   1      44.932  28.922  57.950  0.00  0.00     0.302 S 
ATOM     28  O   UNL d   1      45.427  28.840  58.610  0.00  0.00    -0.197 OA
ATOM     29  O   UNL d   1      44.441  29.001  57.296  0.00  0.00    -0.197 OA
ATOM     30  N   UNL d   1      45.009  29.741  57.997  0.00  0.00    -0.043 N 
ENDBRANCH   6  27
TORSDOF 6
ENDMDL
MODEL 7
REMARK VINA RESULT:      -4.0      9.766     10.786
REMARK  6 active torsions:
REMARK  status: ('A' for Active; 'I' for Inactive)
REMARK    1  A    between atoms: C_8  and  C_1 
REMARK    2  A    between atoms: C_2  and  N_3 
REMARK       I    between atoms: N_3  and  C_8 
REMARK    3  A    between atoms: S_4  and  C_14 
REMARK    4  A    between atoms: C_23  and  N_7 
REMARK    5  A    between atoms: C_27  and  C_23 
REMARK    6  A    between atoms: O_26  and  C_27 
ROOT
ATOM      1  C   UNL d   1      52.113  32.484  53.509  0.00  0.00     0.182 A 
ATOM      2  N   UNL d   1      52.441  33.221  53.364  0.00  0.00    -0.283 N 
ATOM      3  S   UNL d   1      51.308  32.526  53.342  0.00  0.00    -0.048 SA
ATOM      4  C   UNL d   1      51.139  33.296  53.091  0.00  0.00     0.049 A 
ATOM      5  C   UNL d   1      51.842  33.727  53.105  0.00  0.00     0.072 A 
ATOM      6  C   UNL d   1      50.441  34.450  52.631  0.00  0.00     0.107 A 
ATOM      7  C   UNL d   1      50.438  33.658  52.854  0.00  0.00     0.021 A 
ATOM      8  C   UNL d   1      51.845  34.520  52.882  0.00  0.00     0.019 A 
ATOM      9  C   UNL d   1      51.144  34.881  52.645  0.00  0.00     0.015 A 
ENDROOT
BRANCH   1  10
ATOM     10  N   UNL d   1      52.524  31.820  53.776  0.00  0.00    -0.183 NA
ATOM     11  C   UNL d   1      52.240  31.068  53.598  0.00  0.00     0.288 C 
ATOM     12  O   UNL d   1      51.550  30.985  53.156  0.00  0.00    -0.265 OA
BRANCH  11  13
ATOM     13  C   UNL d   1      52.646  30.400  53.861  0.00  0.00     0.098 A 
ATOM     14  S   UNL d   1      52.613  30.086  54.615  0.00  0.00    -0.081 SA
ATOM     15  C   UNL d   1      53.098  29.423  54.642  0.00  0.00     0.030 A 
ATOM     16  C   UNL d   1      53.276  28.894  55.255  0.00  0.00     0.006 A 
ATOM     17  C   UNL d   1      53.440  29.318  53.899  0.00  0.00     0.017 A 
ATOM     18  C   UNL d   1      53.796  28.258  55.125  0.00  0.00     0.001 A 
ATOM     19  C   UNL d   1      54.135  28.165  54.366  0.00  0.00     0.000 A 
ATOM     20  C   UNL d   1      53.959  28.686  53.767  0.00  0.00     0.001 A 
ATOM     21  C   UNL d   1      53.157  29.930  53.408  0.00  0.00     0.069 A 
ATOM     22 CL   UNL d   1      53.354  30.041  52.618  0.00  0.00    -0.082 Cl
ENDBRANCH  11  13
ENDBRANCH   1  10
BRANCH   2  23
ATOM     23  C   UNL d   1      53.235  33.430  53.459  0.00  0.00     0.108 C 
BRANCH  23  24
ATOM     24  C   UNL d   1      53.526  33.639  54.199  0.00  0.00     0.135 C 
BRANCH  24  25
ATOM     25  O   UNL d   1      54.324  33.803  54.299  0.00  0.00    -0.325 OA
ATOM     26  C   UNL d   1      54.662  33.811  55.055  0.00  0.00     0.182 C 
ENDBRANCH  24  25
ENDBRANCH  23  24
ENDBRANCH   2  23
BRANCH   6  27
ATOM     27  S   UNL d   1      49.731  34.820  52.389  0.00  0.00     0.302 S 
ATOM     28  O   UNL d   1      49.769  34.469  51.638  0.00  0.00    -0.197 OA
ATOM     29  O   UNL d   1      49.696  35.165  53.134  0.00  0.00    -0.197 OA
ATOM     30  N   UNL d   1      49.030  35.196  52.176  0.00  0.00    -0.043 N 
ENDBRANCH   6  27
TORSDOF 6
ENDMDL
MODEL 8
REMARK VINA RESULT:      -4.0      2.228      5.038
REMARK  6 active torsions:
REMARK  status: ('A' for Active; 'I' for Inactive)
REMARK    1  A    between atoms: C_8  and  C_1 
REMARK    2  A    between atoms: C_2  and  N_3 
REMARK       I    between atoms: N_3  and  C_8 
REMARK    3  A    between atoms: S_4  and  C_14 
REMARK    4  A    between atoms: C_23  and  N_7 
REMARK    5  A    between atoms: C_27  and  C_23 
REMARK    6  A    between atoms: O_26  and  C_27 
ROOT
ATOM      1  C   UNL d   1      44.340  29.194  60.421  0.00  0.00     0.182 A 
ATOM      2  N   UNL d   1      44.340  28.398  60.615  0.00  0.00    -0.283 N 
ATOM      3  S   UNL d   1      44.370  29.626  61.121  0.00  0.00    -0.048 SA
ATOM      4  C   UNL d   1      44.389  29.091  61.751  0.00  0.00     0.049 A 
ATOM      5  C   UNL d   1      44.370  28.328  61.437  0.00  0.00     0.072 A 
ATOM      6  C   UNL d   1      44.433  28.547  63.068  0.00  0.00     0.107 A 
ATOM      7  C   UNL d   1      44.420  29.200  62.567  0.00  0.00     0.021 A 
ATOM      8  C   UNL d   1      44.383  27.675  61.938  0.00  0.00     0.019 A 
ATOM      9  C   UNL d   1      44.414  27.785  62.753  0.00  0.00     0.015 A 
ENDROOT
BRANCH   1  10
ATOM     10  N   UNL d   1      44.314  29.501  59.655  0.00  0.00    -0.183 NA
ATOM     11  C   UNL d   1      44.470  30.300  59.533  0.00  0.00     0.288 C 
ATOM     12  O   UNL d   1      44.650  30.785  60.175  0.00  0.00    -0.265 OA
BRANCH  11  13
ATOM     13  C   UNL d   1      44.446  30.615  58.771  0.00  0.00     0.098 A 
ATOM     14  S   UNL d   1      44.489  30.188  58.075  0.00  0.00    -0.081 SA
ATOM     15  C   UNL d   1      44.445  30.714  57.445  0.00  0.00     0.030 A 
ATOM     16  C   UNL d   1      44.461  30.594  56.625  0.00  0.00     0.006 A 
ATOM     17  C   UNL d   1      44.374  31.479  57.746  0.00  0.00     0.017 A 
ATOM     18  C   UNL d   1      44.406  31.240  56.104  0.00  0.00     0.001 A 
ATOM     19  C   UNL d   1      44.334  32.010  56.424  0.00  0.00     0.000 A 
ATOM     20  C   UNL d   1      44.319  32.123  57.229  0.00  0.00     0.001 A 
ATOM     21  C   UNL d   1      44.375  31.418  58.578  0.00  0.00     0.069 A 
ATOM     22 CL   UNL d   1      44.315  32.046  59.104  0.00  0.00    -0.082 Cl
ENDBRANCH  11  13
ENDBRANCH   1  10
BRANCH   2  23
ATOM     23  C   UNL d   1      44.315  27.765  60.083  0.00  0.00     0.108 C 
BRANCH  23  24
ATOM     24  C   UNL d   1      45.003  27.497  59.720  0.00  0.00     0.135 C 
BRANCH  24  25
ATOM     25  O   UNL d   1      45.008  26.779  59.322  0.00  0.00    -0.325 OA
ATOM     26  C   UNL d   1      45.285  26.730  58.543  0.00  0.00     0.182 C 
ENDBRANCH  24  25
ENDBRANCH  23  24
ENDBRANCH   2  23
BRANCH   6  27
ATOM     27  S   UNL d   1      44.464  28.655  63.896  0.00  0.00     0.302 S 
ATOM     28  O   UNL d   1      44.314  27.852  64.036  0.00  0.00    -0.197 OA
ATOM     29  O   UNL d   1      44.613  29.451  63.754  0.00  0.00    -0.197 OA
ATOM     30  N   UNL d   1      44.501  28.789  64.708  0.00  0.00    -0.043 N 
ENDBRANCH   6  27
TORSDOF 6
ENDMDL
MODEL 9
REMARK VINA RESULT:      -2.8      9.791     10.715
REMARK  6 active torsions:
REMARK  status: ('A' for Active; 'I' for Inactive)
REMARK    1  A    between atoms: C_8  and  C_1 
REMARK    2  A    between atoms: C_2  and  N_3 
REMARK       I    between atoms: N_3  and  C_8 
REMARK    3  A    between atoms: S_4  and  C_14 
REMARK    4  A    between atoms: C_23  and  N_7 
REMARK    5  A    between atoms: C_27  and  C_23 
REMARK    6  A    between atoms: O_26  and  C_27 
ROOT
ATOM      1  C   UNL d   1      51.033  33.590  52.897  0.00  0.00     0.182 A 
ATOM      2  N   UNL d   1      50.911  34.277  53.327  0.00  0.00    -0.283 N 
ATOM      3  S   UNL d   1      50.425  33.524  52.346  0.00  0.00    -0.048 SA
ATOM      4  C   UNL d   1      49.924  34.177  52.437  0.00  0.00     0.049 A 
ATOM      5  C   UNL d   1      50.226  34.644  53.046  0.00  0.00     0.072 A 
ATOM      6  C   UNL d   1      48.850  35.097  52.263  0.00  0.00     0.107 A 
ATOM      7  C   UNL d   1      49.236  34.403  52.046  0.00  0.00     0.021 A 
ATOM      8  C   UNL d   1      49.840  35.338  53.264  0.00  0.00     0.019 A 
ATOM      9  C   UNL d   1      49.152  35.564  52.872  0.00  0.00     0.015 A 
ENDROOT
BRANCH   1  10
ATOM     10  N   UNL d   1      51.657  33.062  53.004  0.00  0.00    -0.183 NA
ATOM     11  C   UNL d   1      51.504  32.255  53.043  0.00  0.00     0.288 C 
ATOM     12  O   UNL d   1      50.730  31.981  52.977  0.00  0.00    -0.265 OA
BRANCH  11  13
ATOM     13  C   UNL d   1      52.124  31.720  53.150  0.00  0.00     0.098 A 
ATOM     14  S   UNL d   1      52.919  31.885  53.060  0.00  0.00    -0.081 SA
ATOM     15  C   UNL d   1      53.346  31.201  53.217  0.00  0.00     0.030 A 
ATOM     16  C   UNL d   1      54.160  31.045  53.212  0.00  0.00     0.006 A 
ATOM     17  C   UNL d   1      52.815  30.599  53.409  0.00  0.00     0.017 A 
ATOM     18  C   UNL d   1      54.444  30.286  53.398  0.00  0.00     0.001 A 
ATOM     19  C   UNL d   1      53.894  29.685  53.590  0.00  0.00     0.000 A 
ATOM     20  C   UNL d   1      53.096  29.842  53.594  0.00  0.00     0.001 A 
ATOM     21  C   UNL d   1      52.048  30.924  53.367  0.00  0.00     0.069 A 
ATOM     22 CL   UNL d   1      51.348  30.520  53.515  0.00  0.00    -0.082 Cl
ENDBRANCH  11  13
ENDBRANCH   1  10
BRANCH   2  23
ATOM     23  C   UNL d   1      51.388  34.562  53.939  0.00  0.00     0.108 C 
BRANCH  23  24
ATOM     24  C   UNL d   1      52.042  35.032  53.774  0.00  0.00     0.135 C 
BRANCH  24  25
ATOM     25  O   UNL d   1      52.481  35.361  54.385  0.00  0.00    -0.325 OA
ATOM     26  C   UNL d   1      53.257  35.622  54.255  0.00  0.00     0.182 C 
ENDBRANCH  24  25
ENDBRANCH  23  24
ENDBRANCH   2  23
BRANCH   6  27
ATOM     27  S   UNL d   1      48.152  35.329  51.868  0.00  0.00     0.302 S 
ATOM     28  O   UNL d   1      48.393  34.964  51.164  0.00  0.00    -0.197 OA
ATOM     29  O   UNL d   1      47.915  35.690  52.567  0.00  0.00    -0.197 OA
ATOM     30  N   UNL d   1      47.455  35.571  51.501  0.00  0.00    -0.043 N 
ENDBRANCH   6  27
TORSDOF 6
ENDMDL
