MODEL 1
REMARK VINA RESULT:      50.1      0.000      0.000
REMARK  3 active torsions:
REMARK  status: ('A' for Active; 'I' for Inactive)
REMARK    1  A    between atoms: C_5  and  S_1 
REMARK    2  A    between atoms: N_7  and  S_1 
REMARK       I    between atoms: N_2  and  C_3 
REMARK    3  A    between atoms: C_3  and  C_9 
ROOT
ATOM      1  C   UNL d   1      13.840  12.649  -2.786  0.00  0.00     0.104 A 
ATOM      2  C   UNL d   1      13.682  12.912  -4.180  0.00  0.00     0.059 A 
ATOM      3  C   UNL d   1      14.092  13.026  -3.473  0.00  0.00     0.018 A 
ATOM      4  C   UNL d   1      13.179  12.157  -2.802  0.00  0.00     0.012 A 
ATOM      5  C   UNL d   1      13.020  12.420  -4.199  0.00  0.00     0.005 A 
ATOM      6  C   UNL d   1      12.769  12.043  -3.509  0.00  0.00     0.001 A 
ATOM      7  C   UNL d   1      12.927  11.780  -2.116  0.00  0.00     0.001 C 
ENDROOT
BRANCH   1   8
ATOM      8  S   UNL d   1      14.246  12.762  -2.085  0.00  0.00     0.272 S 
ATOM      9  O   UNL d   1      14.421  13.664  -2.333  0.00  0.00    -0.200 OA
ATOM     10  O   UNL d   1      14.094  11.979  -1.870  0.00  0.00    -0.200 OA
BRANCH   8  11
ATOM     11  N   UNL d   1      14.668  12.936  -1.393  0.00  0.00    -0.225 N 
ATOM     12  C   UNL d   1      14.988  13.682  -1.291  0.00  0.00     0.118 A 
ATOM     13  C   UNL d   1      15.409  13.856  -0.602  0.00  0.00     0.142 A 
ATOM     14  O   UNL d   1      15.505  13.275  -0.018  0.00  0.00    -0.300 OA
ATOM     15  C   UNL d   1      15.178  12.524  -0.131  0.00  0.00     0.142 A 
ATOM     16  C   UNL d   1      14.755  12.349  -0.823  0.00  0.00     0.118 A 
ENDBRANCH   8  11
ENDBRANCH   1   8
BRANCH   2  17
ATOM     17  C   UNL d   1      13.928  13.286  -4.872  0.00  0.00     0.280 C 
ATOM     18  N   UNL d   1      13.649  14.036  -5.054  0.00  0.00    -0.195 N 
ATOM     19  N   UNL d   1      13.838  14.476  -5.711  0.00  0.00    -0.163 NA
ATOM     20  C   UNL d   1      13.121  14.472  -4.591  0.00  0.00     0.088 A 
ATOM     21  C   UNL d   1      13.434  15.195  -5.674  0.00  0.00     0.103 A 
ATOM     22  C   UNL d   1      13.467  15.804  -6.226  0.00  0.00     0.022 C 
ATOM     23  C   UNL d   1      12.990  15.190  -4.979  0.00  0.00     0.040 A 
ATOM     24  C   UNL d   1      12.784  14.236  -3.872  0.00  0.00     0.021 C 
ATOM     25  O   UNL d   1      14.454  12.907  -5.378  0.00  0.00    -0.265 OA
ENDBRANCH   2  17
TORSDOF 3
ENDMDL
MODEL 2
REMARK VINA RESULT:      52.3      1.174      1.471
REMARK  3 active torsions:
REMARK  status: ('A' for Active; 'I' for Inactive)
REMARK    1  A    between atoms: C_5  and  S_1 
REMARK    2  A    between atoms: N_7  and  S_1 
REMARK       I    between atoms: N_2  and  C_3 
REMARK    3  A    between atoms: C_3  and  C_9 
ROOT
ATOM      1  C   UNL d   1      13.549  13.031  -3.113  0.00  0.00     0.104 A 
ATOM      2  C   UNL d   1      13.346  14.184  -3.931  0.00  0.00     0.059 A 
ATOM      3  C   UNL d   1      13.674  13.832  -3.259  0.00  0.00     0.018 A 
ATOM      4  C   UNL d   1      13.098  12.580  -3.634  0.00  0.00     0.012 A 
ATOM      5  C   UNL d   1      12.894  13.734  -4.455  0.00  0.00     0.005 A 
ATOM      6  C   UNL d   1      12.771  12.931  -4.306  0.00  0.00     0.001 A 
ATOM      7  C   UNL d   1      12.974  11.780  -3.488  0.00  0.00     0.001 C 
ENDROOT
BRANCH   1   8
ATOM      8  S   UNL d   1      13.873  12.683  -2.448  0.00  0.00     0.272 S 
ATOM      9  O   UNL d   1      14.343  13.487  -2.256  0.00  0.00    -0.200 OA
ATOM     10  O   UNL d   1      13.464  11.984  -2.614  0.00  0.00    -0.200 OA
BRANCH   8  11
ATOM     11  N   UNL d   1      14.232  12.383  -1.763  0.00  0.00    -0.225 N 
ATOM     12  C   UNL d   1      15.018  12.159  -1.783  0.00  0.00     0.118 A 
ATOM     13  C   UNL d   1      15.376  11.860  -1.102  0.00  0.00     0.142 A 
ATOM     14  O   UNL d   1      14.938  11.789  -0.401  0.00  0.00    -0.300 OA
ATOM     15  C   UNL d   1      14.143  12.020  -0.390  0.00  0.00     0.142 A 
ATOM     16  C   UNL d   1      13.784  12.319  -1.075  0.00  0.00     0.118 A 
ENDBRANCH   8  11
ENDBRANCH   1   8
BRANCH   2  17
ATOM     17  C   UNL d   1      13.466  14.984  -4.084  0.00  0.00     0.280 C 
ATOM     18  N   UNL d   1      13.803  15.219  -4.795  0.00  0.00    -0.195 N 
ATOM     19  N   UNL d   1      13.957  15.982  -5.028  0.00  0.00    -0.163 NA
ATOM     20  C   UNL d   1      14.044  14.708  -5.399  0.00  0.00     0.088 A 
ATOM     21  C   UNL d   1      14.297  15.967  -5.780  0.00  0.00     0.103 A 
ATOM     22  C   UNL d   1      14.538  16.618  -6.222  0.00  0.00     0.022 C 
ATOM     23  C   UNL d   1      14.350  15.177  -6.008  0.00  0.00     0.040 A 
ATOM     24  C   UNL d   1      13.991  13.882  -5.396  0.00  0.00     0.021 C 
ATOM     25  O   UNL d   1      13.248  15.546  -3.525  0.00  0.00    -0.265 OA
ENDBRANCH   2  17
TORSDOF 3
ENDMDL
