MODEL 1
REMARK VINA RESULT:      46.0      0.000      0.000
REMARK  2 active torsions:
REMARK  status: ('A' for Active; 'I' for Inactive)
REMARK    1  A    between atoms: N_5  and  C_1 
REMARK       I    between atoms: C_7  and  N_5 
REMARK    2  A    between atoms: C_11  and  C_7 
ROOT
ATOM      1  C   UNL d   1      58.608  49.672  50.432  0.00  0.00     0.124 A 
ATOM      2  C   UNL d   1      57.911  49.661  50.814  0.00  0.00     0.093 A 
ATOM      3  S   UNL d   1      58.475  49.642  49.620  0.00  0.00    -0.067 SA
ATOM      4  C   UNL d   1      57.305  49.624  50.263  0.00  0.00     0.018 A 
ATOM      5  C   UNL d   1      57.667  49.612  49.496  0.00  0.00     0.032 A 
ATOM      6  C   UNL d   1      57.804  49.684  51.670  0.00  0.00     0.103 C 
ATOM      7  N   UNL d   1      57.686  49.706  52.482  0.00  0.00    -0.191 NA
ATOM      8  C   UNL d   1      56.491  49.600  50.332  0.00  0.00     0.001 A 
ATOM      9  C   UNL d   1      57.200  49.576  48.831  0.00  0.00     0.006 A 
ATOM     10  C   UNL d   1      56.036  49.563  49.626  0.00  0.00     0.000 A 
ATOM     11  C   UNL d   1      56.365  49.552  48.929  0.00  0.00     0.001 A 
ENDROOT
BRANCH   1  12
ATOM     12  N   UNL d   1      59.374  49.708  50.793  0.00  0.00    -0.201 NA
ATOM     13  C   UNL d   1      59.857  49.037  50.814  0.00  0.00     0.280 C 
ATOM     14  O   UNL d   1      59.592  48.297  50.473  0.00  0.00    -0.265 OA
BRANCH  13  15
ATOM     15  C   UNL d   1      60.591  49.072  51.160  0.00  0.00     0.058 A 
ATOM     16  C   UNL d   1      61.219  48.609  50.821  0.00  0.00     0.005 A 
ATOM     17  C   UNL d   1      61.985  48.645  51.182  0.00  0.00     0.000 A 
ATOM     18  C   UNL d   1      62.085  49.142  51.865  0.00  0.00     0.000 A 
ATOM     19  C   UNL d   1      61.470  49.583  52.181  0.00  0.00     0.000 A 
ATOM     20  C   UNL d   1      60.736  49.548  51.834  0.00  0.00     0.005 A 
ENDBRANCH  13  15
ENDBRANCH   1  12
TORSDOF 2
ENDMDL
MODEL 2
REMARK VINA RESULT:      48.2      0.777      1.415
REMARK  2 active torsions:
REMARK  status: ('A' for Active; 'I' for Inactive)
REMARK    1  A    between atoms: N_5  and  C_1 
REMARK       I    between atoms: C_7  and  N_5 
REMARK    2  A    between atoms: C_11  and  C_7 
ROOT
ATOM      1  C   UNL d   1      58.542  49.603  50.774  0.00  0.00     0.124 A 
ATOM      2  C   UNL d   1      58.448  49.573  49.985  0.00  0.00     0.093 A 
ATOM      3  S   UNL d   1      57.810  49.515  51.141  0.00  0.00    -0.067 SA
ATOM      4  C   UNL d   1      57.653  49.465  49.816  0.00  0.00     0.018 A 
ATOM      5  C   UNL d   1      57.243  49.428  50.557  0.00  0.00     0.032 A 
ATOM      6  C   UNL d   1      59.077  49.643  49.399  0.00  0.00     0.103 C 
ATOM      7  N   UNL d   1      59.663  49.707  48.828  0.00  0.00    -0.191 NA
ATOM      8  C   UNL d   1      57.239  49.396  49.115  0.00  0.00     0.001 A 
ATOM      9  C   UNL d   1      56.437  49.322  50.567  0.00  0.00     0.006 A 
ATOM     10  C   UNL d   1      56.405  49.287  49.158  0.00  0.00     0.000 A 
ATOM     11  C   UNL d   1      56.033  49.253  49.832  0.00  0.00     0.001 A 
ENDROOT
BRANCH   1  12
ATOM     12  N   UNL d   1      59.276  49.708  51.185  0.00  0.00    -0.201 NA
ATOM     13  C   UNL d   1      59.781  49.065  51.308  0.00  0.00     0.280 C 
ATOM     14  O   UNL d   1      59.570  48.284  51.024  0.00  0.00    -0.265 OA
BRANCH  13  15
ATOM     15  C   UNL d   1      60.484  49.165  51.701  0.00  0.00     0.058 A 
ATOM     16  C   UNL d   1      61.195  48.876  51.336  0.00  0.00     0.005 A 
ATOM     17  C   UNL d   1      61.930  48.982  51.746  0.00  0.00     0.000 A 
ATOM     18  C   UNL d   1      61.916  49.371  52.502  0.00  0.00     0.000 A 
ATOM     19  C   UNL d   1      61.222  49.644  52.842  0.00  0.00     0.000 A 
ATOM     20  C   UNL d   1      60.519  49.543  52.449  0.00  0.00     0.005 A 
ENDBRANCH  13  15
ENDBRANCH   1  12
TORSDOF 2
ENDMDL
