MODEL 1
REMARK VINA RESULT:      -7.6      0.000      0.000
REMARK  7 active torsions:
REMARK  status: ('A' for Active; 'I' for Inactive)
REMARK    1  A    between atoms: C_7  and  N_1 
REMARK    2  A    between atoms: S_15  and  C_3 
REMARK    3  A    between atoms: O_8  and  C_7 
REMARK    4  A    between atoms: C_10  and  O_8 
REMARK    5  A    between atoms: C_19  and  C_10 
REMARK    6  A    between atoms: C_13  and  O_14 
REMARK    7  A    between atoms: O_14  and  C_19 
ROOT
ATOM      1  O   UNL d   1      51.685  33.484  52.920  0.00  0.00    -0.251 OA
ENDROOT
BRANCH   1   2
ATOM      2  C   UNL d   1      52.509  33.438  52.920  0.00  0.00     0.215 C 
BRANCH   2   3
ATOM      3  N   UNL d   1      52.893  32.844  53.349  0.00  0.00    -0.229 N 
ATOM      4  C   UNL d   1      52.866  32.063  53.082  0.00  0.00     0.287 A 
ATOM      5  C   UNL d   1      53.249  31.468  53.507  0.00  0.00     0.159 A 
ATOM      6  O   UNL d   1      52.457  31.877  52.390  0.00  0.00    -0.265 OA
ATOM      7  C   UNL d   1      53.215  30.684  53.229  0.00  0.00     0.028 C 
ATOM      8  N   UNL d   1      53.658  31.653  54.199  0.00  0.00    -0.141 NA
ATOM      9  N   UNL d   1      53.685  32.433  54.466  0.00  0.00    -0.123 NA
ATOM     10  C   UNL d   1      53.303  33.029  54.041  0.00  0.00     0.200 A 
BRANCH  10  11
ATOM     11  S   UNL d   1      53.329  33.810  54.307  0.00  0.00    -0.074 SA
ATOM     12  C   UNL d   1      53.840  34.018  54.920  0.00  0.00     0.077 C 
ENDBRANCH  10  11
ENDBRANCH   2   3
ENDBRANCH   1   2
BRANCH   1  13
ATOM     13  C   UNL d   1      51.305  34.071  52.481  0.00  0.00     0.327 C 
ATOM     14  O   UNL d   1      51.676  34.397  51.819  0.00  0.00    -0.256 OA
BRANCH  13  15
ATOM     15  C   UNL d   1      50.553  34.330  52.702  0.00  0.00     0.191 C 
BRANCH  15  16
ATOM     16  O   UNL d   1      49.967  34.425  52.136  0.00  0.00    -0.299 OA
BRANCH  16  17
ATOM     17  C   UNL d   1      49.286  34.856  52.314  0.00  0.00     0.111 A 
ATOM     18  C   UNL d   1      48.683  34.921  51.764  0.00  0.00     0.081 A 
ATOM     19  C   UNL d   1      48.002  35.352  51.942  0.00  0.00     0.025 A 
ATOM     20 CL   UNL d   1      48.763  34.546  51.018  0.00  0.00    -0.080 Cl
ATOM     21  C   UNL d   1      47.924  35.717  52.669  0.00  0.00     0.059 A 
ATOM     22  C   UNL d   1      48.529  35.655  53.227  0.00  0.00     0.013 A 
ATOM     23 CL   UNL d   1      47.241  36.147  52.842  0.00  0.00    -0.082 Cl
ATOM     24  C   UNL d   1      49.210  35.224  53.049  0.00  0.00     0.026 A 
ENDBRANCH  16  17
ENDBRANCH  15  16
ENDBRANCH  13  15
ENDBRANCH   1  13
TORSDOF 7
ENDMDL
MODEL 2
REMARK VINA RESULT:      -7.5      0.744      1.506
REMARK  7 active torsions:
REMARK  status: ('A' for Active; 'I' for Inactive)
REMARK    1  A    between atoms: C_7  and  N_1 
REMARK    2  A    between atoms: S_15  and  C_3 
REMARK    3  A    between atoms: O_8  and  C_7 
REMARK    4  A    between atoms: C_10  and  O_8 
REMARK    5  A    between atoms: C_19  and  C_10 
REMARK    6  A    between atoms: C_13  and  O_14 
REMARK    7  A    between atoms: O_14  and  C_19 
ROOT
ATOM      1  O   UNL d   1      51.697  33.716  53.125  0.00  0.00    -0.251 OA
ENDROOT
BRANCH   1   2
ATOM      2  C   UNL d   1      52.426  33.398  52.907  0.00  0.00     0.215 C 
BRANCH   2   3
ATOM      3  N   UNL d   1      52.923  33.065  53.479  0.00  0.00    -0.229 N 
ATOM      4  C   UNL d   1      53.310  33.554  54.021  0.00  0.00     0.287 A 
ATOM      5  C   UNL d   1      53.806  33.224  54.593  0.00  0.00     0.159 A 
ATOM      6  O   UNL d   1      53.201  34.371  53.990  0.00  0.00    -0.265 OA
ATOM      7  C   UNL d   1      54.192  33.726  55.133  0.00  0.00     0.028 C 
ATOM      8  N   UNL d   1      53.915  32.407  54.623  0.00  0.00    -0.141 NA
ATOM      9  N   UNL d   1      53.528  31.919  54.081  0.00  0.00    -0.123 NA
ATOM     10  C   UNL d   1      53.032  32.248  53.510  0.00  0.00     0.200 A 
BRANCH  10  11
ATOM     11  S   UNL d   1      52.645  31.760  52.968  0.00  0.00    -0.074 SA
ATOM     12  C   UNL d   1      52.806  30.951  52.954  0.00  0.00     0.077 C 
ENDBRANCH  10  11
ENDBRANCH   2   3
ENDBRANCH   1   2
BRANCH   1  13
ATOM     13  C   UNL d   1      51.220  34.081  52.558  0.00  0.00     0.327 C 
ATOM     14  O   UNL d   1      51.490  34.163  51.782  0.00  0.00    -0.256 OA
BRANCH  13  15
ATOM     15  C   UNL d   1      50.473  34.363  52.767  0.00  0.00     0.191 C 
BRANCH  15  16
ATOM     16  O   UNL d   1      49.901  34.480  52.190  0.00  0.00    -0.299 OA
BRANCH  16  17
ATOM     17  C   UNL d   1      49.225  34.921  52.361  0.00  0.00     0.111 A 
ATOM     18  C   UNL d   1      48.632  35.001  51.803  0.00  0.00     0.081 A 
ATOM     19  C   UNL d   1      47.956  35.443  51.974  0.00  0.00     0.025 A 
ATOM     20 CL   UNL d   1      48.716  34.631  51.055  0.00  0.00    -0.080 Cl
ATOM     21  C   UNL d   1      47.873  35.804  52.703  0.00  0.00     0.059 A 
ATOM     22  C   UNL d   1      48.469  35.726  53.269  0.00  0.00     0.013 A 
ATOM     23 CL   UNL d   1      47.196  36.244  52.869  0.00  0.00    -0.082 Cl
ATOM     24  C   UNL d   1      49.145  35.285  53.098  0.00  0.00     0.026 A 
ENDBRANCH  16  17
ENDBRANCH  15  16
ENDBRANCH  13  15
ENDBRANCH   1  13
TORSDOF 7
ENDMDL
MODEL 3
REMARK VINA RESULT:      -6.5      2.738      5.193
REMARK  7 active torsions:
REMARK  status: ('A' for Active; 'I' for Inactive)
REMARK    1  A    between atoms: C_7  and  N_1 
REMARK    2  A    between atoms: S_15  and  C_3 
REMARK    3  A    between atoms: O_8  and  C_7 
REMARK    4  A    between atoms: C_10  and  O_8 
REMARK    5  A    between atoms: C_19  and  C_10 
REMARK    6  A    between atoms: C_13  and  O_14 
REMARK    7  A    between atoms: O_14  and  C_19 
ROOT
ATOM      1  O   UNL d   1      53.060  32.932  53.334  0.00  0.00    -0.251 OA
ENDROOT
BRANCH   1   2
ATOM      2  C   UNL d   1      53.073  33.736  53.152  0.00  0.00     0.215 C 
BRANCH   2   3
ATOM      3  N   UNL d   1      52.381  34.187  53.202  0.00  0.00    -0.229 N 
ATOM      4  C   UNL d   1      51.738  34.006  52.715  0.00  0.00     0.287 A 
ATOM      5  C   UNL d   1      51.046  34.454  52.762  0.00  0.00     0.159 A 
ATOM      6  O   UNL d   1      51.789  33.379  52.182  0.00  0.00    -0.265 OA
ATOM      7  C   UNL d   1      50.405  34.263  52.267  0.00  0.00     0.028 C 
ATOM      8  N   UNL d   1      50.996  35.081  53.296  0.00  0.00    -0.141 NA
ATOM      9  N   UNL d   1      51.638  35.261  53.782  0.00  0.00    -0.123 NA
ATOM     10  C   UNL d   1      52.330  34.814  53.735  0.00  0.00     0.200 A 
BRANCH  10  11
ATOM     11  S   UNL d   1      52.973  34.994  54.221  0.00  0.00    -0.074 SA
ATOM     12  C   UNL d   1      52.967  35.685  54.673  0.00  0.00     0.077 C 
ENDBRANCH  10  11
ENDBRANCH   2   3
ENDBRANCH   1   2
BRANCH   1  13
ATOM     13  C   UNL d   1      53.767  32.509  53.389  0.00  0.00     0.327 C 
ATOM     14  O   UNL d   1      54.459  32.818  53.062  0.00  0.00    -0.256 OA
BRANCH  13  15
ATOM     15  C   UNL d   1      53.782  31.777  53.770  0.00  0.00     0.191 C 
BRANCH  15  16
ATOM     16  O   UNL d   1      53.488  31.110  53.393  0.00  0.00    -0.299 OA
BRANCH  16  17
ATOM     17  C   UNL d   1      53.425  30.397  53.803  0.00  0.00     0.111 A 
ATOM     18  C   UNL d   1      53.130  29.731  53.430  0.00  0.00     0.081 A 
ATOM     19  C   UNL d   1      53.067  29.018  53.840  0.00  0.00     0.025 A 
ATOM     20 CL   UNL d   1      52.891  29.779  52.628  0.00  0.00    -0.080 Cl
ATOM     21  C   UNL d   1      53.300  28.970  54.622  0.00  0.00     0.059 A 
ATOM     22  C   UNL d   1      53.599  29.639  55.002  0.00  0.00     0.013 A 
ATOM     23 CL   UNL d   1      53.236  28.255  55.027  0.00  0.00    -0.082 Cl
ATOM     24  C   UNL d   1      53.661  30.352  54.593  0.00  0.00     0.026 A 
ENDBRANCH  16  17
ENDBRANCH  15  16
ENDBRANCH  13  15
ENDBRANCH   1  13
TORSDOF 7
ENDMDL
MODEL 4
REMARK VINA RESULT:      -6.4      3.282      5.635
REMARK  7 active torsions:
REMARK  status: ('A' for Active; 'I' for Inactive)
REMARK    1  A    between atoms: C_7  and  N_1 
REMARK    2  A    between atoms: S_15  and  C_3 
REMARK    3  A    between atoms: O_8  and  C_7 
REMARK    4  A    between atoms: C_10  and  O_8 
REMARK    5  A    between atoms: C_19  and  C_10 
REMARK    6  A    between atoms: C_13  and  O_14 
REMARK    7  A    between atoms: O_14  and  C_19 
ROOT
ATOM      1  O   UNL d   1      49.240  34.878  52.818  0.00  0.00    -0.251 OA
ENDROOT
BRANCH   1   2
ATOM      2  C   UNL d   1      48.808  35.473  52.444  0.00  0.00     0.215 C 
BRANCH   2   3
ATOM      3  N   UNL d   1      48.129  35.783  52.802  0.00  0.00    -0.229 N 
ATOM      4  C   UNL d   1      48.173  36.091  53.567  0.00  0.00     0.287 A 
ATOM      5  C   UNL d   1      47.498  36.400  53.927  0.00  0.00     0.159 A 
ATOM      6  O   UNL d   1      48.892  36.089  53.971  0.00  0.00    -0.265 OA
ATOM      7  C   UNL d   1      47.553  36.708  54.698  0.00  0.00     0.028 C 
ATOM      8  N   UNL d   1      46.779  36.402  53.522  0.00  0.00    -0.141 NA
ATOM      9  N   UNL d   1      46.735  36.094  52.758  0.00  0.00    -0.123 NA
ATOM     10  C   UNL d   1      47.410  35.785  52.397  0.00  0.00     0.200 A 
BRANCH  10  11
ATOM     11  S   UNL d   1      47.366  35.477  51.633  0.00  0.00    -0.074 SA
ATOM     12  C   UNL d   1      46.664  35.537  51.204  0.00  0.00     0.077 C 
ENDBRANCH  10  11
ENDBRANCH   2   3
ENDBRANCH   1   2
BRANCH   1  13
ATOM     13  C   UNL d   1      49.863  34.508  52.420  0.00  0.00     0.327 C 
ATOM     14  O   UNL d   1      49.893  34.524  51.595  0.00  0.00    -0.256 OA
BRANCH  13  15
ATOM     15  C   UNL d   1      50.454  34.124  52.848  0.00  0.00     0.191 C 
BRANCH  15  16
ATOM     16  O   UNL d   1      51.224  34.407  52.832  0.00  0.00    -0.299 OA
BRANCH  16  17
ATOM     17  C   UNL d   1      51.841  33.948  53.132  0.00  0.00     0.111 A 
ATOM     18  C   UNL d   1      52.502  34.304  53.454  0.00  0.00     0.081 A 
ATOM     19  C   UNL d   1      53.119  33.845  53.754  0.00  0.00     0.025 A 
ATOM     20 CL   UNL d   1      52.550  35.142  53.478  0.00  0.00    -0.080 Cl
ATOM     21  C   UNL d   1      53.074  33.029  53.731  0.00  0.00     0.059 A 
ATOM     22  C   UNL d   1      52.408  32.665  53.406  0.00  0.00     0.013 A 
ATOM     23 CL   UNL d   1      53.693  32.574  54.032  0.00  0.00    -0.082 Cl
ATOM     24  C   UNL d   1      51.792  33.124  53.107  0.00  0.00     0.026 A 
ENDBRANCH  16  17
ENDBRANCH  15  16
ENDBRANCH  13  15
ENDBRANCH   1  13
TORSDOF 7
ENDMDL
MODEL 5
REMARK VINA RESULT:      -6.2      3.207      5.060
REMARK  7 active torsions:
REMARK  status: ('A' for Active; 'I' for Inactive)
REMARK    1  A    between atoms: C_7  and  N_1 
REMARK    2  A    between atoms: S_15  and  C_3 
REMARK    3  A    between atoms: O_8  and  C_7 
REMARK    4  A    between atoms: C_10  and  O_8 
REMARK    5  A    between atoms: C_19  and  C_10 
REMARK    6  A    between atoms: C_13  and  O_14 
REMARK    7  A    between atoms: O_14  and  C_19 
ROOT
ATOM      1  O   UNL d   1      52.831  32.972  53.478  0.00  0.00    -0.251 OA
ENDROOT
BRANCH   1   2
ATOM      2  C   UNL d   1      53.385  33.583  53.469  0.00  0.00     0.215 C 
BRANCH   2   3
ATOM      3  N   UNL d   1      53.373  34.165  54.058  0.00  0.00    -0.229 N 
ATOM      4  C   UNL d   1      52.822  34.778  54.016  0.00  0.00     0.287 A 
ATOM      5  C   UNL d   1      52.808  35.360  54.602  0.00  0.00     0.159 A 
ATOM      6  O   UNL d   1      52.287  34.810  53.389  0.00  0.00    -0.265 OA
ATOM      7  C   UNL d   1      52.249  35.974  54.550  0.00  0.00     0.028 C 
ATOM      8  N   UNL d   1      53.344  35.328  55.228  0.00  0.00    -0.141 NA
ATOM      9  N   UNL d   1      53.894  34.715  55.269  0.00  0.00    -0.123 NA
ATOM     10  C   UNL d   1      53.909  34.133  54.684  0.00  0.00     0.200 A 
BRANCH  10  11
ATOM     11  S   UNL d   1      54.459  33.519  54.725  0.00  0.00    -0.074 SA
ATOM     12  C   UNL d   1      55.117  33.588  55.219  0.00  0.00     0.077 C 
ENDBRANCH  10  11
ENDBRANCH   2   3
ENDBRANCH   1   2
BRANCH   1  13
ATOM     13  C   UNL d   1      52.830  32.407  52.875  0.00  0.00     0.327 C 
ATOM     14  O   UNL d   1      52.512  32.593  52.136  0.00  0.00    -0.256 OA
BRANCH  13  15
ATOM     15  C   UNL d   1      53.147  31.657  53.012  0.00  0.00     0.191 C 
BRANCH  15  16
ATOM     16  O   UNL d   1      52.652  31.003  53.054  0.00  0.00    -0.299 OA
BRANCH  16  17
ATOM     17  C   UNL d   1      52.893  30.328  53.463  0.00  0.00     0.111 A 
ATOM     18  C   UNL d   1      52.346  29.761  53.682  0.00  0.00     0.081 A 
ATOM     19  C   UNL d   1      52.587  29.086  54.091  0.00  0.00     0.025 A 
ATOM     20 CL   UNL d   1      51.537  29.871  53.487  0.00  0.00    -0.080 Cl
ATOM     21  C   UNL d   1      53.374  28.978  54.281  0.00  0.00     0.059 A 
ATOM     22  C   UNL d   1      53.930  29.548  54.062  0.00  0.00     0.013 A 
ATOM     23 CL   UNL d   1      53.610  28.302  54.690  0.00  0.00    -0.082 Cl
ATOM     24  C   UNL d   1      53.690  30.222  53.653  0.00  0.00     0.026 A 
ENDBRANCH  16  17
ENDBRANCH  15  16
ENDBRANCH  13  15
ENDBRANCH   1  13
TORSDOF 7
ENDMDL
MODEL 6
REMARK VINA RESULT:      -6.2      3.058      5.372
REMARK  7 active torsions:
REMARK  status: ('A' for Active; 'I' for Inactive)
REMARK    1  A    between atoms: C_7  and  N_1 
REMARK    2  A    between atoms: S_15  and  C_3 
REMARK    3  A    between atoms: O_8  and  C_7 
REMARK    4  A    between atoms: C_10  and  O_8 
REMARK    5  A    between atoms: C_19  and  C_10 
REMARK    6  A    between atoms: C_13  and  O_14 
REMARK    7  A    between atoms: O_14  and  C_19 
ROOT
ATOM      1  O   UNL d   1      53.573  33.170  53.893  0.00  0.00    -0.251 OA
ENDROOT
BRANCH   1   2
ATOM      2  C   UNL d   1      53.417  33.803  53.388  0.00  0.00     0.215 C 
BRANCH   2   3
ATOM      3  N   UNL d   1      52.934  34.427  53.638  0.00  0.00    -0.229 N 
ATOM      4  C   UNL d   1      53.201  34.941  54.227  0.00  0.00     0.287 A 
ATOM      5  C   UNL d   1      52.722  35.564  54.479  0.00  0.00     0.159 A 
ATOM      6  O   UNL d   1      53.946  34.831  54.564  0.00  0.00    -0.265 OA
ATOM      7  C   UNL d   1      53.001  36.076  55.073  0.00  0.00     0.028 C 
ATOM      8  N   UNL d   1      51.977  35.674  54.142  0.00  0.00    -0.141 NA
ATOM      9  N   UNL d   1      51.711  35.161  53.554  0.00  0.00    -0.123 NA
ATOM     10  C   UNL d   1      52.189  34.537  53.302  0.00  0.00     0.200 A 
BRANCH  10  11
ATOM     11  S   UNL d   1      51.923  34.023  52.713  0.00  0.00    -0.074 SA
ATOM     12  C   UNL d   1      51.190  34.150  52.356  0.00  0.00     0.077 C 
ENDBRANCH  10  11
ENDBRANCH   2   3
ENDBRANCH   1   2
BRANCH   1  13
ATOM     13  C   UNL d   1      54.069  32.557  53.647  0.00  0.00     0.327 C 
ATOM     14  O   UNL d   1      54.657  32.703  53.086  0.00  0.00    -0.256 OA
BRANCH  13  15
ATOM     15  C   UNL d   1      53.977  31.800  53.961  0.00  0.00     0.191 C 
BRANCH  15  16
ATOM     16  O   UNL d   1      53.531  31.239  53.560  0.00  0.00    -0.299 OA
BRANCH  16  17
ATOM     17  C   UNL d   1      53.443  30.481  53.872  0.00  0.00     0.111 A 
ATOM     18  C   UNL d   1      53.125  29.881  53.416  0.00  0.00     0.081 A 
ATOM     19  C   UNL d   1      53.037  29.122  53.728  0.00  0.00     0.025 A 
ATOM     20 CL   UNL d   1      52.890  30.043  52.627  0.00  0.00    -0.080 Cl
ATOM     21  C   UNL d   1      53.266  28.964  54.496  0.00  0.00     0.059 A 
ATOM     22  C   UNL d   1      53.587  29.565  54.961  0.00  0.00     0.013 A 
ATOM     23 CL   UNL d   1      53.175  28.203  54.804  0.00  0.00    -0.082 Cl
ATOM     24  C   UNL d   1      53.675  30.324  54.649  0.00  0.00     0.026 A 
ENDBRANCH  16  17
ENDBRANCH  15  16
ENDBRANCH  13  15
ENDBRANCH   1  13
TORSDOF 7
ENDMDL
MODEL 7
REMARK VINA RESULT:      -5.7      3.027      5.340
REMARK  7 active torsions:
REMARK  status: ('A' for Active; 'I' for Inactive)
REMARK    1  A    between atoms: C_7  and  N_1 
REMARK    2  A    between atoms: S_15  and  C_3 
REMARK    3  A    between atoms: O_8  and  C_7 
REMARK    4  A    between atoms: C_10  and  O_8 
REMARK    5  A    between atoms: C_19  and  C_10 
REMARK    6  A    between atoms: C_13  and  O_14 
REMARK    7  A    between atoms: O_14  and  C_19 
ROOT
ATOM      1  O   UNL d   1      50.126  34.463  52.861  0.00  0.00    -0.251 OA
ENDROOT
BRANCH   1   2
ATOM      2  C   UNL d   1      49.705  35.171  52.914  0.00  0.00     0.215 C 
BRANCH   2   3
ATOM      3  N   UNL d   1      48.966  35.244  52.550  0.00  0.00    -0.229 N 
ATOM      4  C   UNL d   1      48.846  34.926  51.797  0.00  0.00     0.287 A 
ATOM      5  C   UNL d   1      48.110  34.997  51.431  0.00  0.00     0.159 A 
ATOM      6  O   UNL d   1      49.463  34.536  51.412  0.00  0.00    -0.265 OA
ATOM      7  C   UNL d   1      48.001  34.673  50.673  0.00  0.00     0.028 C 
ATOM      8  N   UNL d   1      47.493  35.387  51.816  0.00  0.00    -0.141 NA
ATOM      9  N   UNL d   1      47.613  35.705  52.568  0.00  0.00    -0.123 NA
ATOM     10  C   UNL d   1      48.349  35.634  52.935  0.00  0.00     0.200 A 
BRANCH  10  11
ATOM     11  S   UNL d   1      48.469  35.952  53.687  0.00  0.00    -0.074 SA
ATOM     12  C   UNL d   1      47.957  36.531  53.976  0.00  0.00     0.077 C 
ENDBRANCH  10  11
ENDBRANCH   2   3
ENDBRANCH   1   2
BRANCH   1  13
ATOM     13  C   UNL d   1      50.878  34.404  53.197  0.00  0.00     0.327 C 
ATOM     14  O   UNL d   1      51.256  35.080  53.484  0.00  0.00    -0.256 OA
BRANCH  13  15
ATOM     15  C   UNL d   1      51.252  33.670  53.246  0.00  0.00     0.191 C 
BRANCH  15  16
ATOM     16  O   UNL d   1      52.057  33.627  53.401  0.00  0.00    -0.299 OA
BRANCH  16  17
ATOM     17  C   UNL d   1      52.446  32.901  53.368  0.00  0.00     0.111 A 
ATOM     18  C   UNL d   1      53.155  32.794  53.762  0.00  0.00     0.081 A 
ATOM     19  C   UNL d   1      53.545  32.067  53.728  0.00  0.00     0.025 A 
ATOM     20 CL   UNL d   1      53.483  33.429  54.201  0.00  0.00    -0.080 Cl
ATOM     21  C   UNL d   1      53.226  31.448  53.301  0.00  0.00     0.059 A 
ATOM     22  C   UNL d   1      52.511  31.551  52.902  0.00  0.00     0.013 A 
ATOM     23 CL   UNL d   1      53.619  30.723  53.270  0.00  0.00    -0.082 Cl
ATOM     24  C   UNL d   1      52.121  32.277  52.935  0.00  0.00     0.026 A 
ENDBRANCH  16  17
ENDBRANCH  15  16
ENDBRANCH  13  15
ENDBRANCH   1  13
TORSDOF 7
ENDMDL
MODEL 8
REMARK VINA RESULT:      -5.0     10.024     10.823
REMARK  7 active torsions:
REMARK  status: ('A' for Active; 'I' for Inactive)
REMARK    1  A    between atoms: C_7  and  N_1 
REMARK    2  A    between atoms: S_15  and  C_3 
REMARK    3  A    between atoms: O_8  and  C_7 
REMARK    4  A    between atoms: C_10  and  O_8 
REMARK    5  A    between atoms: C_19  and  C_10 
REMARK    6  A    between atoms: C_13  and  O_14 
REMARK    7  A    between atoms: O_14  and  C_19 
ROOT
ATOM      1  O   UNL d   1      44.933  28.039  57.689  0.00  0.00    -0.251 OA
ENDROOT
BRANCH   1   2
ATOM      2  C   UNL d   1      45.358  28.733  57.829  0.00  0.00     0.215 C 
BRANCH   2   3
ATOM      3  N   UNL d   1      45.019  29.470  57.662  0.00  0.00    -0.229 N 
ATOM      4  C   UNL d   1      44.851  29.676  56.880  0.00  0.00     0.287 A 
ATOM      5  C   UNL d   1      44.513  30.410  56.711  0.00  0.00     0.159 A 
ATOM      6  O   UNL d   1      45.020  29.148  56.269  0.00  0.00    -0.265 OA
ATOM      7  C   UNL d   1      44.347  30.607  55.919  0.00  0.00     0.028 C 
ATOM      8  N   UNL d   1      44.344  30.937  57.322  0.00  0.00    -0.141 NA
ATOM      9  N   UNL d   1      44.512  30.731  58.103  0.00  0.00    -0.123 NA
ATOM     10  C   UNL d   1      44.850  29.997  58.273  0.00  0.00     0.200 A 
BRANCH  10  11
ATOM     11  S   UNL d   1      45.019  29.791  59.054  0.00  0.00    -0.074 SA
ATOM     12  C   UNL d   1      44.943  30.352  59.654  0.00  0.00     0.077 C 
ENDBRANCH  10  11
ENDBRANCH   2   3
ENDBRANCH   1   2
BRANCH   1  13
ATOM     13  C   UNL d   1      45.295  27.305  57.798  0.00  0.00     0.327 C 
ATOM     14  O   UNL d   1      45.766  27.172  58.463  0.00  0.00    -0.256 OA
BRANCH  13  15
ATOM     15  C   UNL d   1      45.186  26.705  57.243  0.00  0.00     0.191 C 
BRANCH  15  16
ATOM     16  O   UNL d   1      44.819  26.004  57.461  0.00  0.00    -0.299 OA
BRANCH  16  17
ATOM     17  C   UNL d   1      44.693  25.411  56.901  0.00  0.00     0.111 A 
ATOM     18  C   UNL d   1      44.443  24.668  57.135  0.00  0.00     0.081 A 
ATOM     19  C   UNL d   1      44.317  24.075  56.575  0.00  0.00     0.025 A 
ATOM     20 CL   UNL d   1      44.315  24.513  57.950  0.00  0.00    -0.080 Cl
ATOM     21  C   UNL d   1      44.441  24.225  55.781  0.00  0.00     0.059 A 
ATOM     22  C   UNL d   1      44.694  24.973  55.540  0.00  0.00     0.013 A 
ATOM     23 CL   UNL d   1      44.314  23.629  55.225  0.00  0.00    -0.082 Cl
ATOM     24  C   UNL d   1      44.819  25.566  56.100  0.00  0.00     0.026 A 
ENDBRANCH  16  17
ENDBRANCH  15  16
ENDBRANCH  13  15
ENDBRANCH   1  13
TORSDOF 7
ENDMDL
MODEL 9
REMARK VINA RESULT:      -5.0     10.648     11.145
REMARK  7 active torsions:
REMARK  status: ('A' for Active; 'I' for Inactive)
REMARK    1  A    between atoms: C_7  and  N_1 
REMARK    2  A    between atoms: S_15  and  C_3 
REMARK    3  A    between atoms: O_8  and  C_7 
REMARK    4  A    between atoms: C_10  and  O_8 
REMARK    5  A    between atoms: C_19  and  C_10 
REMARK    6  A    between atoms: C_13  and  O_14 
REMARK    7  A    between atoms: O_14  and  C_19 
ROOT
ATOM      1  O   UNL d   1      44.928  29.750  60.339  0.00  0.00    -0.251 OA
ENDROOT
BRANCH   1   2
ATOM      2  C   UNL d   1      44.376  30.087  60.850  0.00  0.00     0.215 C 
BRANCH   2   3
ATOM      3  N   UNL d   1      44.439  29.972  61.668  0.00  0.00    -0.229 N 
ATOM      4  C   UNL d   1      44.509  29.206  61.969  0.00  0.00     0.287 A 
ATOM      5  C   UNL d   1      44.572  29.088  62.784  0.00  0.00     0.159 A 
ATOM      6  O   UNL d   1      44.514  28.560  61.456  0.00  0.00    -0.265 OA
ATOM      7  C   UNL d   1      44.641  28.312  63.077  0.00  0.00     0.028 C 
ATOM      8  N   UNL d   1      44.567  29.734  63.296  0.00  0.00    -0.141 NA
ATOM      9  N   UNL d   1      44.498  30.499  62.994  0.00  0.00    -0.123 NA
ATOM     10  C   UNL d   1      44.434  30.618  62.180  0.00  0.00     0.200 A 
BRANCH  10  11
ATOM     11  S   UNL d   1      44.365  31.383  61.878  0.00  0.00    -0.074 SA
ATOM     12  C   UNL d   1      44.314  32.026  62.393  0.00  0.00     0.077 C 
ENDBRANCH  10  11
ENDBRANCH   2   3
ENDBRANCH   1   2
BRANCH   1  13
ATOM     13  C   UNL d   1      44.883  29.898  59.527  0.00  0.00     0.327 C 
ATOM     14  O   UNL d   1      44.954  30.670  59.244  0.00  0.00    -0.256 OA
BRANCH  13  15
ATOM     15  C   UNL d   1      44.768  29.273  59.001  0.00  0.00     0.191 C 
BRANCH  15  16
ATOM     16  O   UNL d   1      45.181  29.251  58.292  0.00  0.00    -0.299 OA
BRANCH  16  17
ATOM     17  C   UNL d   1      45.205  28.555  57.848  0.00  0.00     0.111 A 
ATOM     18  C   UNL d   1      45.072  28.575  57.041  0.00  0.00     0.081 A 
ATOM     19  C   UNL d   1      45.096  27.880  56.598  0.00  0.00     0.025 A 
ATOM     20 CL   UNL d   1      44.911  29.309  56.668  0.00  0.00    -0.080 Cl
ATOM     21  C   UNL d   1      45.252  27.165  56.961  0.00  0.00     0.059 A 
ATOM     22  C   UNL d   1      45.387  27.139  57.775  0.00  0.00     0.013 A 
ATOM     23 CL   UNL d   1      45.275  26.472  56.514  0.00  0.00    -0.082 Cl
ATOM     24  C   UNL d   1      45.363  27.835  58.219  0.00  0.00     0.026 A 
ENDBRANCH  16  17
ENDBRANCH  15  16
ENDBRANCH  13  15
ENDBRANCH   1  13
TORSDOF 7
ENDMDL
