MODEL 1
REMARK VINA RESULT:      -3.6      0.000      0.000
REMARK  5 active torsions:
REMARK  status: ('A' for Active; 'I' for Inactive)
REMARK    1  A    between atoms: C_11  and  C_2 
REMARK    2  A    between atoms: N_3  and  C_5 
REMARK       I    between atoms: C_6  and  N_3 
REMARK    3  A    between atoms: C_5  and  N_12 
REMARK    4  A    between atoms: C_7  and  C_6 
REMARK    5  A    between atoms: N_12  and  C_20 
ROOT
ATOM      1  C   UNL d   1      33.056  20.444 -22.006  0.00  0.00     0.041 A 
ATOM      2  C   UNL d   1      33.087  19.668 -21.713  0.00  0.00     0.005 A 
ATOM      3  C   UNL d   1      33.085  20.589 -22.810  0.00  0.00     0.005 A 
ATOM      4  C   UNL d   1      33.179  19.174 -23.064  0.00  0.00     0.084 A 
ATOM      5  C   UNL d   1      33.149  19.037 -22.249  0.00  0.00     0.019 A 
ATOM      6  C   UNL d   1      33.146  19.968 -23.327  0.00  0.00     0.019 A 
ENDROOT
BRANCH   4   7
ATOM      7  N   UNL d   1      33.240  18.547 -23.597  0.00  0.00    -0.217 NA
BRANCH   7   8
ATOM      8  C   UNL d   1      32.601  18.345 -24.070  0.00  0.00     0.224 C 
ATOM      9  S   UNL d   1      32.526  18.683 -24.807  0.00  0.00    -0.037 SA
BRANCH   8  10
ATOM     10  N   UNL d   1      32.056  17.813 -23.796  0.00  0.00    -0.178 NA
ATOM     11  C   UNL d   1      31.866  17.146 -24.255  0.00  0.00     0.287 C 
ATOM     12  O   UNL d   1      32.231  17.031 -24.983  0.00  0.00    -0.265 OA
BRANCH  11  13
ATOM     13  C   UNL d   1      31.322  16.591 -24.010  0.00  0.00     0.087 A 
ATOM     14  S   UNL d   1      30.496  16.705 -24.037  0.00  0.00    -0.082 SA
ATOM     15  C   UNL d   1      30.155  16.028 -23.745  0.00  0.00     0.036 A 
ATOM     16  C   UNL d   1      30.766  15.482 -23.530  0.00  0.00     0.008 A 
ATOM     17  C   UNL d   1      31.471  15.823 -23.690  0.00  0.00     0.012 A 
ENDBRANCH  11  13
ENDBRANCH   8  10
ENDBRANCH   7   8
ENDBRANCH   4   7
BRANCH   1  18
ATOM     18  C   UNL d   1      32.994  21.078 -21.468  0.00  0.00     0.182 A 
ATOM     19  N   UNL d   1      33.223  21.114 -20.680  0.00  0.00    -0.220 NA
ATOM     20  C   UNL d   1      33.033  21.879 -20.407  0.00  0.00     0.106 A 
ATOM     21  C   UNL d   1      32.692  22.289 -21.037  0.00  0.00     0.119 A 
ATOM     22  C   UNL d   1      33.125  22.235 -19.689  0.00  0.00     0.021 A 
ATOM     23  C   UNL d   1      32.445  23.057 -20.947  0.00  0.00     0.026 A 
ATOM     24  O   UNL d   1      32.676  21.773 -21.692  0.00  0.00    -0.288 OA
ATOM     25  C   UNL d   1      32.536  23.428 -20.217  0.00  0.00     0.002 A 
ATOM     26  C   UNL d   1      32.875  23.020 -19.587  0.00  0.00     0.002 A 
ENDBRANCH   1  18
TORSDOF 5
ENDMDL
MODEL 2
REMARK VINA RESULT:      -1.9      1.569      5.749
REMARK  5 active torsions:
REMARK  status: ('A' for Active; 'I' for Inactive)
REMARK    1  A    between atoms: C_11  and  C_2 
REMARK    2  A    between atoms: N_3  and  C_5 
REMARK       I    between atoms: C_6  and  N_3 
REMARK    3  A    between atoms: C_5  and  N_12 
REMARK    4  A    between atoms: C_7  and  C_6 
REMARK    5  A    between atoms: N_12  and  C_20 
ROOT
ATOM      1  C   UNL d   1      31.194  17.515 -24.047  0.00  0.00     0.041 A 
ATOM      2  C   UNL d   1      31.674  17.376 -23.385  0.00  0.00     0.005 A 
ATOM      3  C   UNL d   1      31.387  18.095 -24.589  0.00  0.00     0.005 A 
ATOM      4  C   UNL d   1      32.561  18.424 -23.823  0.00  0.00     0.084 A 
ATOM      5  C   UNL d   1      32.358  17.835 -23.279  0.00  0.00     0.019 A 
ATOM      6  C   UNL d   1      32.055  18.540 -24.479  0.00  0.00     0.019 A 
ENDROOT
BRANCH   4   7
ATOM      7  N   UNL d   1      33.241  18.881 -23.717  0.00  0.00    -0.217 NA
BRANCH   7   8
ATOM      8  C   UNL d   1      33.176  19.681 -23.544  0.00  0.00     0.224 C 
ATOM      9  S   UNL d   1      33.231  20.226 -24.146  0.00  0.00    -0.037 SA
BRANCH   8  10
ATOM     10  N   UNL d   1      33.058  19.913 -22.778  0.00  0.00    -0.178 NA
ATOM     11  C   UNL d   1      33.090  20.722 -22.584  0.00  0.00     0.287 C 
ATOM     12  O   UNL d   1      33.241  21.278 -23.171  0.00  0.00    -0.265 OA
BRANCH  11  13
ATOM     13  C   UNL d   1      32.977  20.990 -21.824  0.00  0.00     0.087 A 
ATOM     14  S   UNL d   1      32.774  21.777 -21.632  0.00  0.00    -0.082 SA
ATOM     15  C   UNL d   1      32.713  21.815 -20.824  0.00  0.00     0.036 A 
ATOM     16  C   UNL d   1      32.878  21.049 -20.499  0.00  0.00     0.008 A 
ATOM     17  C   UNL d   1      33.037  20.552 -21.104  0.00  0.00     0.012 A 
ENDBRANCH  11  13
ENDBRANCH   8  10
ENDBRANCH   7   8
ENDBRANCH   4   7
BRANCH   1  18
ATOM     18  C   UNL d   1      30.507  17.054 -24.154  0.00  0.00     0.182 A 
ATOM     19  N   UNL d   1      30.287  16.592 -24.795  0.00  0.00    -0.220 NA
ATOM     20  C   UNL d   1      29.548  16.251 -24.608  0.00  0.00     0.106 A 
ATOM     21  C   UNL d   1      29.339  16.516 -23.855  0.00  0.00     0.119 A 
ATOM     22  C   UNL d   1      29.063  15.753 -25.016  0.00  0.00     0.021 A 
ATOM     23  C   UNL d   1      28.642  16.281 -23.511  0.00  0.00     0.026 A 
ATOM     24  O   UNL d   1      29.949  17.017 -23.586  0.00  0.00    -0.288 OA
ATOM     25  C   UNL d   1      28.141  15.772 -23.922  0.00  0.00     0.002 A 
ATOM     26  C   UNL d   1      28.349  15.507 -24.674  0.00  0.00     0.002 A 
ENDBRANCH   1  18
TORSDOF 5
ENDMDL
MODEL 3
REMARK VINA RESULT:      -0.9      1.789      5.943
REMARK  5 active torsions:
REMARK  status: ('A' for Active; 'I' for Inactive)
REMARK    1  A    between atoms: C_11  and  C_2 
REMARK    2  A    between atoms: N_3  and  C_5 
REMARK       I    between atoms: C_6  and  N_3 
REMARK    3  A    between atoms: C_5  and  N_12 
REMARK    4  A    between atoms: C_7  and  C_6 
REMARK    5  A    between atoms: N_12  and  C_20 
ROOT
ATOM      1  C   UNL d   1      32.690  18.760 -23.037  0.00  0.00     0.041 A 
ATOM      2  C   UNL d   1      33.060  18.848 -22.298  0.00  0.00     0.005 A 
ATOM      3  C   UNL d   1      32.506  19.413 -23.492  0.00  0.00     0.005 A 
ATOM      4  C   UNL d   1      33.058  20.277 -22.481  0.00  0.00     0.084 A 
ATOM      5  C   UNL d   1      33.241  19.611 -22.026  0.00  0.00     0.019 A 
ATOM      6  C   UNL d   1      32.686  20.155 -23.220  0.00  0.00     0.019 A 
ENDROOT
BRANCH   4   7
ATOM      7  N   UNL d   1      33.238  21.037 -22.210  0.00  0.00    -0.217 NA
BRANCH   7   8
ATOM      8  C   UNL d   1      32.688  21.458 -21.771  0.00  0.00     0.224 C 
ATOM      9  S   UNL d   1      31.944  21.583 -22.076  0.00  0.00    -0.037 SA
BRANCH   8  10
ATOM     10  N   UNL d   1      32.895  21.741 -21.042  0.00  0.00    -0.178 NA
ATOM     11  C   UNL d   1      32.472  22.379 -20.714  0.00  0.00     0.287 C 
ATOM     12  O   UNL d   1      31.849  22.716 -21.131  0.00  0.00    -0.265 OA
BRANCH  11  13
ATOM     13  C   UNL d   1      32.654  22.689 -19.983  0.00  0.00     0.087 A 
ATOM     14  S   UNL d   1      32.434  23.454 -19.733  0.00  0.00    -0.082 SA
ATOM     15  C   UNL d   1      32.718  23.547 -18.978  0.00  0.00     0.036 A 
ATOM     16  C   UNL d   1      33.121  22.838 -18.746  0.00  0.00     0.008 A 
ATOM     17  C   UNL d   1      33.081  22.320 -19.354  0.00  0.00     0.012 A 
ENDBRANCH  11  13
ENDBRANCH   8  10
ENDBRANCH   7   8
ENDBRANCH   4   7
BRANCH   1  18
ATOM     18  C   UNL d   1      32.508  17.993 -23.310  0.00  0.00     0.182 A 
ATOM     19  N   UNL d   1      31.815  17.563 -23.223  0.00  0.00    -0.220 NA
ATOM     20  C   UNL d   1      31.935  16.830 -23.603  0.00  0.00     0.106 A 
ATOM     21  C   UNL d   1      32.700  16.834 -23.912  0.00  0.00     0.119 A 
ATOM     22  C   UNL d   1      31.458  16.187 -23.701  0.00  0.00     0.021 A 
ATOM     23  C   UNL d   1      32.988  16.193 -24.318  0.00  0.00     0.026 A 
ATOM     24  O   UNL d   1      33.044  17.569 -23.719  0.00  0.00    -0.288 OA
ATOM     25  C   UNL d   1      32.506  15.531 -24.422  0.00  0.00     0.002 A 
ATOM     26  C   UNL d   1      31.742  15.526 -24.114  0.00  0.00     0.002 A 
ENDBRANCH   1  18
TORSDOF 5
ENDMDL
MODEL 4
REMARK VINA RESULT:      -0.9      2.697      6.212
REMARK  5 active torsions:
REMARK  status: ('A' for Active; 'I' for Inactive)
REMARK    1  A    between atoms: C_11  and  C_2 
REMARK    2  A    between atoms: N_3  and  C_5 
REMARK       I    between atoms: C_6  and  N_3 
REMARK    3  A    between atoms: C_5  and  N_12 
REMARK    4  A    between atoms: C_7  and  C_6 
REMARK    5  A    between atoms: N_12  and  C_20 
ROOT
ATOM      1  C   UNL d   1      33.036  20.698 -21.887  0.00  0.00     0.041 A 
ATOM      2  C   UNL d   1      32.972  20.647 -21.060  0.00  0.00     0.005 A 
ATOM      3  C   UNL d   1      33.122  21.422 -22.255  0.00  0.00     0.005 A 
ATOM      4  C   UNL d   1      33.086  22.081 -20.976  0.00  0.00     0.084 A 
ATOM      5  C   UNL d   1      32.999  21.344 -20.611  0.00  0.00     0.019 A 
ATOM      6  C   UNL d   1      33.147  22.098 -21.810  0.00  0.00     0.019 A 
ENDROOT
BRANCH   4   7
ATOM      7  N   UNL d   1      33.112  22.775 -20.528  0.00  0.00    -0.217 NA
BRANCH   7   8
ATOM      8  C   UNL d   1      32.573  22.893 -19.922  0.00  0.00     0.224 C 
ATOM      9  S   UNL d   1      31.808  23.104 -20.102  0.00  0.00    -0.037 SA
BRANCH   8  10
ATOM     10  N   UNL d   1      32.811  22.798 -19.154  0.00  0.00    -0.178 NA
ATOM     11  C   UNL d   1      32.335  23.092 -18.537  0.00  0.00     0.287 C 
ATOM     12  O   UNL d   1      31.629  23.475 -18.711  0.00  0.00    -0.265 OA
BRANCH  11  13
ATOM     13  C   UNL d   1      32.544  23.013 -17.754  0.00  0.00     0.087 A 
ATOM     14  S   UNL d   1      32.564  23.646 -17.211  0.00  0.00    -0.082 SA
ATOM     15  C   UNL d   1      32.798  23.338 -16.497  0.00  0.00     0.036 A 
ATOM     16  C   UNL d   1      32.927  22.505 -16.586  0.00  0.00     0.008 A 
ATOM     17  C   UNL d   1      32.774  22.309 -17.345  0.00  0.00     0.012 A 
ENDBRANCH  11  13
ENDBRANCH   8  10
ENDBRANCH   7   8
ENDBRANCH   4   7
BRANCH   1  18
ATOM     18  C   UNL d   1      33.009  19.998 -22.339  0.00  0.00     0.182 A 
ATOM     19  N   UNL d   1      33.169  19.226 -22.109  0.00  0.00    -0.220 NA
ATOM     20  C   UNL d   1      33.057  18.744 -22.781  0.00  0.00     0.106 A 
ATOM     21  C   UNL d   1      32.832  19.237 -23.403  0.00  0.00     0.119 A 
ATOM     22  C   UNL d   1      33.131  17.949 -22.895  0.00  0.00     0.021 A 
ATOM     23  C   UNL d   1      32.680  18.933 -24.141  0.00  0.00     0.026 A 
ATOM     24  O   UNL d   1      32.807  20.018 -23.109  0.00  0.00    -0.288 OA
ATOM     25  C   UNL d   1      32.753  18.121 -24.265  0.00  0.00     0.002 A 
ATOM     26  C   UNL d   1      32.978  17.628 -23.645  0.00  0.00     0.002 A 
ENDBRANCH   1  18
TORSDOF 5
ENDMDL
