MODEL 1
REMARK VINA RESULT:      14.7      0.000      0.000
REMARK  5 active torsions:
REMARK  status: ('A' for Active; 'I' for Inactive)
REMARK    1  A    between atoms: C_13  and  C_4 
REMARK    2  A    between atoms: C_7  and  S_11 
REMARK    3  A    between atoms: O_14  and  C_7 
REMARK    4  A    between atoms: S_11  and  C_13 
REMARK    5  A    between atoms: C_16  and  O_14 
ROOT
ATOM      1  C   UNL d   1      46.398 -18.652  43.158  0.00  0.00     0.148 A 
ATOM      2  N   UNL d   1      46.319 -19.084  43.865  0.00  0.00    -0.288 N 
ATOM      3  N   UNL d   1      46.282 -17.847  43.362  0.00  0.00    -0.226 NA
ATOM      4  C   UNL d   1      46.136 -17.787  44.164  0.00  0.00     0.107 A 
ATOM      5  C   UNL d   1      46.158 -18.561  44.482  0.00  0.00     0.101 A 
ATOM      6  C   UNL d   1      46.561 -19.036  42.448  0.00  0.00     0.035 A 
ATOM      7  C   UNL d   1      46.406 -19.913  43.842  0.00  0.00     0.082 A 
ATOM      8  C   UNL d   1      46.569 -20.291  43.128  0.00  0.00     0.019 A 
ATOM      9  C   UNL d   1      46.647 -19.858  42.434  0.00  0.00     0.004 A 
ATOM     10  C   UNL d   1      46.641 -18.602  41.740  0.00  0.00     0.003 C 
ENDROOT
BRANCH   4  11
ATOM     11  C   UNL d   1      45.991 -17.097  44.592  0.00  0.00     0.059 C 
BRANCH  11  12
ATOM     12  S   UNL d   1      45.896 -16.385  44.204  0.00  0.00    -0.049 SA
BRANCH  12  13
ATOM     13  C   UNL d   1      45.509 -15.754  44.586  0.00  0.00     0.185 C 
ATOM     14  S   UNL d   1      44.794 -15.884  44.955  0.00  0.00    -0.044 SA
BRANCH  13  15
ATOM     15  O   UNL d   1      45.852 -15.006  44.586  0.00  0.00    -0.288 OA
BRANCH  15  16
ATOM     16  C   UNL d   1      46.193 -14.259  44.578  0.00  0.00     0.124 C 
ATOM     17  C   UNL d   1      45.746 -13.601  44.346  0.00  0.00     0.029 C 
ENDBRANCH  15  16
ENDBRANCH  13  15
ENDBRANCH  12  13
ENDBRANCH  11  12
ENDBRANCH   4  11
TORSDOF 5
ENDMDL
MODEL 2
REMARK VINA RESULT:      16.0      1.038      1.514
REMARK  5 active torsions:
REMARK  status: ('A' for Active; 'I' for Inactive)
REMARK    1  A    between atoms: C_13  and  C_4 
REMARK    2  A    between atoms: C_7  and  S_11 
REMARK    3  A    between atoms: O_14  and  C_7 
REMARK    4  A    between atoms: S_11  and  C_13 
REMARK    5  A    between atoms: C_16  and  O_14 
ROOT
ATOM      1  C   UNL d   1      46.622 -18.811  41.726  0.00  0.00     0.148 A 
ATOM      2  N   UNL d   1      46.623 -19.477  42.225  0.00  0.00    -0.288 N 
ATOM      3  N   UNL d   1      46.609 -18.141  42.231  0.00  0.00    -0.226 NA
ATOM      4  C   UNL d   1      46.602 -18.387  43.010  0.00  0.00     0.107 A 
ATOM      5  C   UNL d   1      46.611 -19.224  43.010  0.00  0.00     0.101 A 
ATOM      6  C   UNL d   1      46.633 -18.900  40.907  0.00  0.00     0.035 A 
ATOM      7  C   UNL d   1      46.636 -20.237  41.882  0.00  0.00     0.082 A 
ATOM      8  C   UNL d   1      46.646 -20.318  41.062  0.00  0.00     0.019 A 
ATOM      9  C   UNL d   1      46.645 -19.656  40.575  0.00  0.00     0.004 A 
ATOM     10  C   UNL d   1      46.631 -18.231  40.408  0.00  0.00     0.003 C 
ENDROOT
BRANCH   4  11
ATOM     11  C   UNL d   1      46.589 -17.908  43.682  0.00  0.00     0.059 C 
BRANCH  11  12
ATOM     12  S   UNL d   1      46.226 -17.177  43.658  0.00  0.00    -0.049 SA
BRANCH  12  13
ATOM     13  C   UNL d   1      45.889 -16.860  44.351  0.00  0.00     0.185 C 
ATOM     14  S   UNL d   1      45.603 -17.361  44.926  0.00  0.00    -0.044 SA
BRANCH  13  15
ATOM     15  O   UNL d   1      45.848 -16.044  44.447  0.00  0.00    -0.288 OA
BRANCH  15  16
ATOM     16  C   UNL d   1      45.799 -15.230  44.545  0.00  0.00     0.124 C 
ATOM     17  C   UNL d   1      45.102 -14.888  44.833  0.00  0.00     0.029 C 
ENDBRANCH  15  16
ENDBRANCH  13  15
ENDBRANCH  12  13
ENDBRANCH  11  12
ENDBRANCH   4  11
TORSDOF 5
ENDMDL
