MODEL 1
REMARK VINA RESULT:      49.7      0.000      0.000
REMARK  4 active torsions:
REMARK  status: ('A' for Active; 'I' for Inactive)
REMARK    1  A    between atoms: C_10  and  N_1 
REMARK    2  A    between atoms: C_14  and  C_10 
REMARK    3  A    between atoms: O_16  and  C_12 
REMARK    4  A    between atoms: C_19  and  O_16 
ROOT
ATOM      1  N   UNL d   1      59.747  49.599  50.696  0.00  0.00    -0.260 N 
ATOM      2  C   UNL d   1      59.210  49.626  50.105  0.00  0.00     0.174 A 
ATOM      3  C   UNL d   1      59.714  49.587  51.496  0.00  0.00     0.348 A 
ATOM      4  O   UNL d   1      58.411  49.652  50.064  0.00  0.00    -0.314 OA
ATOM      5  N   UNL d   1      59.127  49.596  52.029  0.00  0.00    -0.216 NA
ATOM      6  C   UNL d   1      58.323  49.622  51.991  0.00  0.00     0.137 A 
ATOM      7  C   UNL d   1      59.068  49.612  51.238  0.00  0.00     0.079 A 
ATOM      8  C   UNL d   1      57.824  49.661  50.610  0.00  0.00     0.116 A 
ATOM      9  C   UNL d   1      57.791  49.649  51.402  0.00  0.00     0.025 A 
ATOM     10  O   UNL d   1      60.432  49.559  51.828  0.00  0.00    -0.245 OA
ATOM     11  C   UNL d   1      57.143  49.690  50.182  0.00  0.00     0.122 A 
ATOM     12  C   UNL d   1      59.402  49.634  49.324  0.00  0.00     0.055 C 
ATOM     13  C   UNL d   1      57.085  49.665  51.779  0.00  0.00    -0.000 A 
ATOM     14  C   UNL d   1      56.408  49.693  51.352  0.00  0.00     0.002 A 
ATOM     15  C   UNL d   1      56.438  49.706  50.551  0.00  0.00     0.027 A 
ENDROOT
BRANCH   1  16
ATOM     16  C   UNL d   1      60.568  49.575  50.608  0.00  0.00     0.082 C 
BRANCH  16  17
ATOM     17  C   UNL d   1      60.957  48.839  50.591  0.00  0.00     0.017 A 
ATOM     18  C   UNL d   1      60.745  48.247  51.132  0.00  0.00     0.002 A 
ATOM     19  C   UNL d   1      61.134  47.511  51.115  0.00  0.00     0.000 A 
ATOM     20  C   UNL d   1      61.733  47.370  50.556  0.00  0.00     0.000 A 
ATOM     21  C   UNL d   1      61.941  47.971  50.016  0.00  0.00     0.000 A 
ATOM     22  C   UNL d   1      61.554  48.698  50.035  0.00  0.00     0.002 A 
ENDBRANCH  16  17
ENDBRANCH   1  16
BRANCH  11  23
ATOM     23  O   UNL d   1      57.178  49.703  49.357  0.00  0.00    -0.303 OA
BRANCH  23  24
ATOM     24  C   UNL d   1      56.496  49.559  48.915  0.00  0.00     0.123 C 
ATOM     25  C   UNL d   1      56.203  48.784  48.853  0.00  0.00     0.029 C 
ENDBRANCH  23  24
ENDBRANCH  11  23
TORSDOF 4
ENDMDL
