MODEL 1
REMARK VINA RESULT:      -2.1      0.000      0.000
REMARK  4 active torsions:
REMARK  status: ('A' for Active; 'I' for Inactive)
REMARK    1  A    between atoms: N_2  and  S_1 
REMARK    2  A    between atoms: C_3  and  S_1 
REMARK    3  A    between atoms: C_14  and  C_4 
REMARK    4  A    between atoms: O_17  and  C_11 
ROOT
ATOM      1  S   UNL d   1      30.788  16.926 -24.232  0.00  0.00     0.274 S 
ATOM      2  O   UNL d   1      31.271  17.554 -24.022  0.00  0.00    -0.199 OA
ATOM      3  O   UNL d   1      31.118  16.204 -24.457  0.00  0.00    -0.199 OA
ENDROOT
BRANCH   1   4
ATOM      4  N   UNL d   1      29.972  17.017 -24.216  0.00  0.00    -0.213 N 
ATOM      5  C   UNL d   1      29.510  16.509 -23.773  0.00  0.00     0.157 A 
ATOM      6  N   UNL d   1      28.664  16.605 -23.759  0.00  0.00    -0.226 NA
ATOM      7  C   UNL d   1      28.795  17.717 -24.635  0.00  0.00     0.101 A 
ATOM      8  C   UNL d   1      29.616  17.628 -24.653  0.00  0.00     0.112 A 
ATOM      9  C   UNL d   1      28.452  18.335 -25.078  0.00  0.00     0.022 C 
BRANCH   5  10
ATOM     10  C   UNL d   1      29.862  15.899 -23.338  0.00  0.00     0.038 C 
ATOM     11  C   UNL d   1      29.397  15.473 -22.814  0.00  0.00     0.003 C 
ENDBRANCH   5  10
ENDBRANCH   1   4
BRANCH   1  12
ATOM     12  C   UNL d   1      31.602  16.839 -24.245  0.00  0.00     0.127 A 
ATOM     13  C   UNL d   1      31.944  16.201 -24.623  0.00  0.00     0.022 A 
ATOM     14  C   UNL d   1      32.756  16.108 -24.640  0.00  0.00     0.035 A 
ATOM     15 BR   UNL d   1      33.085  15.460 -25.024  0.00  0.00    -0.049 Br
ATOM     16  C   UNL d   1      33.239  16.666 -24.272  0.00  0.00     0.009 A 
ATOM     17  C   UNL d   1      32.898  17.312 -23.890  0.00  0.00     0.025 A 
ATOM     18  C   UNL d   1      32.085  17.399 -23.876  0.00  0.00     0.106 A 
BRANCH  18  19
ATOM     19  O   UNL d   1      31.744  18.048 -23.492  0.00  0.00    -0.327 OA
ATOM     20  C   UNL d   1      32.189  18.726 -23.343  0.00  0.00     0.181 C 
ENDBRANCH  18  19
ENDBRANCH   1  12
TORSDOF 4
ENDMDL
MODEL 2
REMARK VINA RESULT:      -2.0      1.575      3.205
REMARK  4 active torsions:
REMARK  status: ('A' for Active; 'I' for Inactive)
REMARK    1  A    between atoms: N_2  and  S_1 
REMARK    2  A    between atoms: C_3  and  S_1 
REMARK    3  A    between atoms: C_14  and  C_4 
REMARK    4  A    between atoms: O_17  and  C_11 
ROOT
ATOM      1  S   UNL d   1      30.923  17.240 -24.374  0.00  0.00     0.274 S 
ATOM      2  O   UNL d   1      30.311  17.497 -24.854  0.00  0.00    -0.199 OA
ATOM      3  O   UNL d   1      30.765  16.783 -23.706  0.00  0.00    -0.199 OA
ENDROOT
BRANCH   1   4
ATOM      4  N   UNL d   1      31.697  17.440 -24.561  0.00  0.00    -0.213 N 
ATOM      5  C   UNL d   1      32.230  16.860 -24.779  0.00  0.00     0.157 A 
ATOM      6  N   UNL d   1      33.032  17.068 -24.972  0.00  0.00    -0.226 NA
ATOM      7  C   UNL d   1      32.718  18.431 -24.716  0.00  0.00     0.101 A 
ATOM      8  C   UNL d   1      31.939  18.234 -24.528  0.00  0.00     0.112 A 
ATOM      9  C   UNL d   1      32.946  19.233 -24.679  0.00  0.00     0.022 C 
BRANCH   5  10
ATOM     10  C   UNL d   1      31.992  16.067 -24.813  0.00  0.00     0.038 C 
ATOM     11  C   UNL d   1      32.523  15.510 -25.095  0.00  0.00     0.003 C 
ENDBRANCH   5  10
ENDBRANCH   1   4
BRANCH   1  12
ATOM     12  C   UNL d   1      30.150  17.043 -24.192  0.00  0.00     0.127 A 
ATOM     13  C   UNL d   1      29.987  16.392 -23.728  0.00  0.00     0.022 A 
ATOM     14  C   UNL d   1      29.217  16.189 -23.542  0.00  0.00     0.035 A 
ATOM     15 BR   UNL d   1      29.070  15.530 -23.073  0.00  0.00    -0.049 Br
ATOM     16  C   UNL d   1      28.593  16.648 -23.826  0.00  0.00     0.009 A 
ATOM     17  C   UNL d   1      28.753  17.307 -24.295  0.00  0.00     0.025 A 
ATOM     18  C   UNL d   1      29.526  17.504 -24.477  0.00  0.00     0.106 A 
BRANCH  18  19
ATOM     19  O   UNL d   1      29.685  18.166 -24.949  0.00  0.00    -0.327 OA
ATOM     20  C   UNL d   1      29.101  18.732 -25.084  0.00  0.00     0.181 C 
ENDBRANCH  18  19
ENDBRANCH   1  12
TORSDOF 4
ENDMDL
MODEL 3
REMARK VINA RESULT:      -1.1      1.834      3.159
REMARK  4 active torsions:
REMARK  status: ('A' for Active; 'I' for Inactive)
REMARK    1  A    between atoms: N_2  and  S_1 
REMARK    2  A    between atoms: C_3  and  S_1 
REMARK    3  A    between atoms: C_14  and  C_4 
REMARK    4  A    between atoms: O_17  and  C_11 
ROOT
ATOM      1  S   UNL d   1      31.875  17.521 -24.141  0.00  0.00     0.274 S 
ATOM      2  O   UNL d   1      32.037  17.036 -24.781  0.00  0.00    -0.199 OA
ATOM      3  O   UNL d   1      31.230  17.361 -23.652  0.00  0.00    -0.199 OA
ENDROOT
BRANCH   1   4
ATOM      4  N   UNL d   1      32.357  18.167 -23.988  0.00  0.00    -0.213 N 
ATOM      5  C   UNL d   1      32.696  18.262 -23.250  0.00  0.00     0.157 A 
ATOM      6  N   UNL d   1      33.195  18.933 -23.092  0.00  0.00    -0.226 NA
ATOM      7  C   UNL d   1      32.986  19.377 -24.426  0.00  0.00     0.101 A 
ATOM      8  C   UNL d   1      32.500  18.727 -24.585  0.00  0.00     0.112 A 
ATOM      9  C   UNL d   1      33.121  19.931 -25.036  0.00  0.00     0.022 C 
BRANCH   5  10
ATOM     10  C   UNL d   1      32.554  17.705 -22.653  0.00  0.00     0.038 C 
ATOM     11  C   UNL d   1      33.121  17.603 -22.069  0.00  0.00     0.003 C 
ENDBRANCH   5  10
ENDBRANCH   1   4
BRANCH   1  12
ATOM     12  C   UNL d   1      31.397  16.875 -24.298  0.00  0.00     0.127 A 
ATOM     13  C   UNL d   1      30.604  16.890 -24.105  0.00  0.00     0.022 A 
ATOM     14  C   UNL d   1      30.121  16.250 -24.259  0.00  0.00     0.035 A 
ATOM     15 BR   UNL d   1      29.324  16.280 -24.058  0.00  0.00    -0.049 Br
ATOM     16  C   UNL d   1      30.437  15.575 -24.615  0.00  0.00     0.009 A 
ATOM     17  C   UNL d   1      31.237  15.556 -24.811  0.00  0.00     0.025 A 
ATOM     18  C   UNL d   1      31.715  16.201 -24.654  0.00  0.00     0.106 A 
BRANCH  18  19
ATOM     19  O   UNL d   1      32.518  16.180 -24.853  0.00  0.00    -0.327 OA
ATOM     20  C   UNL d   1      32.870  15.474 -25.095  0.00  0.00     0.181 C 
ENDBRANCH  18  19
ENDBRANCH   1  12
TORSDOF 4
ENDMDL
MODEL 4
REMARK VINA RESULT:      -0.5      1.190      1.885
REMARK  4 active torsions:
REMARK  status: ('A' for Active; 'I' for Inactive)
REMARK    1  A    between atoms: N_2  and  S_1 
REMARK    2  A    between atoms: C_3  and  S_1 
REMARK    3  A    between atoms: C_14  and  C_4 
REMARK    4  A    between atoms: O_17  and  C_11 
ROOT
ATOM      1  S   UNL d   1      30.619  16.184 -24.041  0.00  0.00     0.274 S 
ATOM      2  O   UNL d   1      30.993  16.334 -23.328  0.00  0.00    -0.199 OA
ATOM      3  O   UNL d   1      31.031  15.824 -24.659  0.00  0.00    -0.199 OA
ENDROOT
BRANCH   1   4
ATOM      4  N   UNL d   1      29.832  16.394 -24.140  0.00  0.00    -0.213 N 
ATOM      5  C   UNL d   1      29.637  17.129 -24.442  0.00  0.00     0.157 A 
ATOM      6  N   UNL d   1      28.820  17.345 -24.544  0.00  0.00    -0.226 NA
ATOM      7  C   UNL d   1      28.440  16.072 -24.035  0.00  0.00     0.101 A 
ATOM      8  C   UNL d   1      29.232  15.858 -23.934  0.00  0.00     0.112 A 
ATOM      9  C   UNL d   1      27.849  15.523 -23.823  0.00  0.00     0.022 C 
BRANCH   5  10
ATOM     10  C   UNL d   1      30.233  17.665 -24.649  0.00  0.00     0.038 C 
ATOM     11  C   UNL d   1      30.017  18.425 -24.870  0.00  0.00     0.003 C 
ENDBRANCH   5  10
ENDBRANCH   1   4
BRANCH   1  12
ATOM     12  C   UNL d   1      31.404  15.977 -23.938  0.00  0.00     0.127 A 
ATOM     13  C   UNL d   1      31.934  16.039 -24.557  0.00  0.00     0.022 A 
ATOM     14  C   UNL d   1      32.719  15.834 -24.462  0.00  0.00     0.035 A 
ATOM     15 BR   UNL d   1      33.239  15.902 -25.094  0.00  0.00    -0.049 Br
ATOM     16  C   UNL d   1      32.984  15.559 -23.730  0.00  0.00     0.009 A 
ATOM     17  C   UNL d   1      32.452  15.495 -23.102  0.00  0.00     0.025 A 
ATOM     18  C   UNL d   1      31.668  15.702 -23.205  0.00  0.00     0.106 A 
BRANCH  18  19
ATOM     19  O   UNL d   1      31.136  15.637 -22.574  0.00  0.00    -0.327 OA
ATOM     20  C   UNL d   1      31.412  15.539 -21.804  0.00  0.00     0.181 C 
ENDBRANCH  18  19
ENDBRANCH   1  12
TORSDOF 4
ENDMDL
MODEL 5
REMARK VINA RESULT:       0.4      1.218      1.746
REMARK  4 active torsions:
REMARK  status: ('A' for Active; 'I' for Inactive)
REMARK    1  A    between atoms: N_2  and  S_1 
REMARK    2  A    between atoms: C_3  and  S_1 
REMARK    3  A    between atoms: C_14  and  C_4 
REMARK    4  A    between atoms: O_17  and  C_11 
ROOT
ATOM      1  S   UNL d   1      30.742  16.615 -23.690  0.00  0.00     0.274 S 
ATOM      2  O   UNL d   1      31.291  16.159 -23.288  0.00  0.00    -0.199 OA
ATOM      3  O   UNL d   1      30.973  17.317 -24.058  0.00  0.00    -0.199 OA
ENDROOT
BRANCH   1   4
ATOM      4  N   UNL d   1      29.958  16.373 -23.726  0.00  0.00    -0.213 N 
ATOM      5  C   UNL d   1      29.632  15.947 -23.109  0.00  0.00     0.157 A 
ATOM      6  N   UNL d   1      28.819  15.696 -23.147  0.00  0.00    -0.226 NA
ATOM      7  C   UNL d   1      28.709  16.314 -24.423  0.00  0.00     0.101 A 
ATOM      8  C   UNL d   1      29.497  16.560 -24.391  0.00  0.00     0.112 A 
ATOM      9  C   UNL d   1      28.258  16.510 -25.097  0.00  0.00     0.022 C 
BRANCH   5  10
ATOM     10  C   UNL d   1      30.089  15.758 -22.445  0.00  0.00     0.038 C 
ATOM     11  C   UNL d   1      29.713  15.453 -21.783  0.00  0.00     0.003 C 
ENDBRANCH   5  10
ENDBRANCH   1   4
BRANCH   1  12
ATOM     12  C   UNL d   1      31.524  16.853 -23.652  0.00  0.00     0.127 A 
ATOM     13  C   UNL d   1      31.724  17.562 -23.298  0.00  0.00     0.022 A 
ATOM     14  C   UNL d   1      32.503  17.806 -23.256  0.00  0.00     0.035 A 
ATOM     15 BR   UNL d   1      32.688  18.522 -22.897  0.00  0.00    -0.049 Br
ATOM     16  C   UNL d   1      33.098  17.332 -23.576  0.00  0.00     0.009 A 
ATOM     17  C   UNL d   1      32.900  16.616 -23.935  0.00  0.00     0.025 A 
ATOM     18  C   UNL d   1      32.118  16.378 -23.973  0.00  0.00     0.106 A 
BRANCH  18  19
ATOM     19  O   UNL d   1      31.921  15.659 -24.333  0.00  0.00    -0.327 OA
ATOM     20  C   UNL d   1      32.183  15.489 -25.096  0.00  0.00     0.181 C 
ENDBRANCH  18  19
ENDBRANCH   1  12
TORSDOF 4
ENDMDL
MODEL 6
REMARK VINA RESULT:       0.7      4.228      5.807
REMARK  4 active torsions:
REMARK  status: ('A' for Active; 'I' for Inactive)
REMARK    1  A    between atoms: N_2  and  S_1 
REMARK    2  A    between atoms: C_3  and  S_1 
REMARK    3  A    between atoms: C_14  and  C_4 
REMARK    4  A    between atoms: O_17  and  C_11 
ROOT
ATOM      1  S   UNL d   1      32.745  20.954 -22.225  0.00  0.00     0.274 S 
ATOM      2  O   UNL d   1      33.241  20.848 -21.582  0.00  0.00    -0.199 OA
ATOM      3  O   UNL d   1      32.147  21.522 -22.200  0.00  0.00    -0.199 OA
ENDROOT
BRANCH   1   4
ATOM      4  N   UNL d   1      32.844  20.491 -22.896  0.00  0.00    -0.213 N 
ATOM      5  C   UNL d   1      32.967  20.844 -23.624  0.00  0.00     0.157 A 
ATOM      6  N   UNL d   1      33.070  20.364 -24.319  0.00  0.00    -0.226 NA
ATOM      7  C   UNL d   1      32.920  19.201 -23.513  0.00  0.00     0.101 A 
ATOM      8  C   UNL d   1      32.819  19.663 -22.836  0.00  0.00     0.112 A 
ATOM      9  C   UNL d   1      32.893  18.371 -23.437  0.00  0.00     0.022 C 
BRANCH   5  10
ATOM     10  C   UNL d   1      32.992  21.669 -23.687  0.00  0.00     0.038 C 
ATOM     11  C   UNL d   1      33.238  22.001 -24.396  0.00  0.00     0.003 C 
ENDBRANCH   5  10
ENDBRANCH   1   4
BRANCH   1  12
ATOM     12  C   UNL d   1      32.649  21.412 -21.554  0.00  0.00     0.127 A 
ATOM     13  C   UNL d   1      32.416  22.192 -21.615  0.00  0.00     0.022 A 
ATOM     14  C   UNL d   1      32.318  22.656 -20.949  0.00  0.00     0.035 A 
ATOM     15 BR   UNL d   1      32.083  23.439 -21.028  0.00  0.00    -0.049 Br
ATOM     16  C   UNL d   1      32.457  22.333 -20.202  0.00  0.00     0.009 A 
ATOM     17  C   UNL d   1      32.693  21.546 -20.136  0.00  0.00     0.025 A 
ATOM     18  C   UNL d   1      32.789  21.088 -20.807  0.00  0.00     0.106 A 
BRANCH  18  19
ATOM     19  O   UNL d   1      33.026  20.298 -20.738  0.00  0.00    -0.327 OA
ATOM     20  C   UNL d   1      33.240  19.988 -20.005  0.00  0.00     0.181 C 
ENDBRANCH  18  19
ENDBRANCH   1  12
TORSDOF 4
ENDMDL
