MODEL 1
REMARK VINA RESULT:      -6.4      0.000      0.000
REMARK  6 active torsions:
REMARK  status: ('A' for Active; 'I' for Inactive)
REMARK    1  A    between atoms: S_2  and  C_1 
REMARK    2  A    between atoms: C_9  and  S_2 
REMARK    3  A    between atoms: N_10  and  C_6 
REMARK    4  A    between atoms: C_13  and  N_10 
REMARK    5  A    between atoms: N_12  and  C_14 
REMARK    6  A    between atoms: C_14  and  C_13 
ROOT
ATOM      1  C   UNL d   1     -47.767  13.233  22.750  0.00  0.00     0.187 A 
ATOM      2  N   UNL d   1     -47.223  12.641  22.917  0.00  0.00    -0.208 NA
ATOM      3  C   UNL d   1     -47.389  13.961  22.835  0.00  0.00     0.118 A 
ATOM      4  S   UNL d   1     -46.610  13.813  23.055  0.00  0.00    -0.035 SA
ATOM      5  C   UNL d   1     -46.507  13.002  23.106  0.00  0.00     0.196 A 
ATOM      6 CL   UNL d   1     -47.728  14.704  22.720  0.00  0.00    -0.073 Cl
ENDROOT
BRANCH   1   7
ATOM      7  S   UNL d   1     -48.552  13.124  22.535  0.00  0.00     0.228 S 
ATOM      8  O   UNL d   1     -48.417  13.294  21.744  0.00  0.00    -0.216 OA
ATOM      9  O   UNL d   1     -48.694  12.952  23.323  0.00  0.00    -0.216 OA
BRANCH   7  10
ATOM     10  C   UNL d   1     -49.363  12.995  22.400  0.00  0.00     0.089 A 
ATOM     11  C   UNL d   1     -49.872  12.903  23.037  0.00  0.00     0.011 A 
ATOM     12  C   UNL d   1     -50.684  12.774  22.906  0.00  0.00     0.001 A 
ATOM     13  C   UNL d   1     -50.976  12.738  22.130  0.00  0.00     0.000 A 
ATOM     14  C   UNL d   1     -50.456  12.831  21.485  0.00  0.00     0.001 A 
ATOM     15  C   UNL d   1     -49.650  12.959  21.617  0.00  0.00     0.011 A 
ENDBRANCH   7  10
ENDBRANCH   1   7
BRANCH   5  16
ATOM     16  N   UNL d   1     -45.810  12.618  23.309  0.00  0.00    -0.218 NA
BRANCH  16  17
ATOM     17  C   UNL d   1     -45.791  11.799  23.303  0.00  0.00     0.120 C 
BRANCH  17  18
ATOM     18  C   UNL d   1     -45.068  11.409  23.282  0.00  0.00     0.101 C 
BRANCH  18  19
ATOM     19  N   UNL d   1     -45.049  10.628  23.555  0.00  0.00    -0.299 N 
ATOM     20  C   UNL d   1     -44.324  10.270  23.687  0.00  0.00     0.100 C 
ATOM     21  C   UNL d   1     -45.746  10.221  23.693  0.00  0.00     0.100 C 
ENDBRANCH  18  19
ENDBRANCH  17  18
ENDBRANCH  16  17
ENDBRANCH   5  16
TORSDOF 6
ENDMDL
MODEL 2
REMARK VINA RESULT:      -5.6      8.832     10.073
REMARK  6 active torsions:
REMARK  status: ('A' for Active; 'I' for Inactive)
REMARK    1  A    between atoms: S_2  and  C_1 
REMARK    2  A    between atoms: C_9  and  S_2 
REMARK    3  A    between atoms: N_10  and  C_6 
REMARK    4  A    between atoms: C_13  and  N_10 
REMARK    5  A    between atoms: N_12  and  C_14 
REMARK    6  A    between atoms: C_14  and  C_13 
ROOT
ATOM      1  C   UNL d   1     -39.550  14.392  18.526  0.00  0.00     0.187 A 
ATOM      2  N   UNL d   1     -39.186  14.579  19.237  0.00  0.00    -0.208 NA
ATOM      3  C   UNL d   1     -40.364  14.489  18.620  0.00  0.00     0.118 A 
ATOM      4  S   UNL d   1     -40.497  14.735  19.394  0.00  0.00    -0.035 SA
ATOM      5  C   UNL d   1     -39.773  14.791  19.774  0.00  0.00     0.196 A 
ATOM      6 CL   UNL d   1     -40.941  14.361  18.045  0.00  0.00    -0.073 Cl
ENDROOT
BRANCH   1   7
ATOM      7  S   UNL d   1     -39.173  14.151  17.837  0.00  0.00     0.228 S 
ATOM      8  O   UNL d   1     -39.463  13.385  17.881  0.00  0.00    -0.216 OA
ATOM      9  O   UNL d   1     -38.880  14.914  17.787  0.00  0.00    -0.216 OA
BRANCH   7  10
ATOM     10  C   UNL d   1     -38.761  13.987  17.134  0.00  0.00     0.089 A 
ATOM     11  C   UNL d   1     -38.358  13.276  17.055  0.00  0.00     0.011 A 
ATOM     12  C   UNL d   1     -37.944  13.108  16.352  0.00  0.00     0.001 A 
ATOM     13  C   UNL d   1     -37.940  13.661  15.733  0.00  0.00     0.000 A 
ATOM     14  C   UNL d   1     -38.350  14.382  15.817  0.00  0.00     0.001 A 
ATOM     15  C   UNL d   1     -38.760  14.548  16.515  0.00  0.00     0.011 A 
ENDBRANCH   7  10
ENDBRANCH   1   7
BRANCH   5  16
ATOM     16  N   UNL d   1     -39.657  15.019  20.555  0.00  0.00    -0.218 NA
BRANCH  16  17
ATOM     17  C   UNL d   1     -39.308  14.492  21.075  0.00  0.00     0.120 C 
BRANCH  17  18
ATOM     18  C   UNL d   1     -39.255  14.682  21.873  0.00  0.00     0.101 C 
BRANCH  18  19
ATOM     19  N   UNL d   1     -38.773  14.205  22.347  0.00  0.00    -0.299 N 
ATOM     20  C   UNL d   1     -39.067  13.493  22.625  0.00  0.00     0.100 C 
ATOM     21  C   UNL d   1     -38.012  14.444  22.534  0.00  0.00     0.100 C 
ENDBRANCH  18  19
ENDBRANCH  17  18
ENDBRANCH  16  17
ENDBRANCH   5  16
TORSDOF 6
ENDMDL
MODEL 3
REMARK VINA RESULT:      -5.5      1.625      4.270
REMARK  6 active torsions:
REMARK  status: ('A' for Active; 'I' for Inactive)
REMARK    1  A    between atoms: S_2  and  C_1 
REMARK    2  A    between atoms: C_9  and  S_2 
REMARK    3  A    between atoms: N_10  and  C_6 
REMARK    4  A    between atoms: C_13  and  N_10 
REMARK    5  A    between atoms: N_12  and  C_14 
REMARK    6  A    between atoms: C_14  and  C_13 
ROOT
ATOM      1  C   UNL d   1     -47.143  13.899  22.676  0.00  0.00     0.187 A 
ATOM      2  N   UNL d   1     -47.892  13.572  22.755  0.00  0.00    -0.208 NA
ATOM      3  C   UNL d   1     -47.222  14.719  22.647  0.00  0.00     0.118 A 
ATOM      4  S   UNL d   1     -48.024  14.894  22.709  0.00  0.00    -0.035 SA
ATOM      5  C   UNL d   1     -48.436  14.189  22.776  0.00  0.00     0.196 A 
ATOM      6 CL   UNL d   1     -46.610  15.267  22.570  0.00  0.00    -0.073 Cl
ENDROOT
BRANCH   1   7
ATOM      7  S   UNL d   1     -46.435  13.484  22.632  0.00  0.00     0.228 S 
ATOM      8  O   UNL d   1     -46.227  13.648  23.408  0.00  0.00    -0.216 OA
ATOM      9  O   UNL d   1     -46.636  13.317  21.856  0.00  0.00    -0.216 OA
BRANCH   7  10
ATOM     10  C   UNL d   1     -45.739  13.047  22.506  0.00  0.00     0.089 A 
ATOM     11  C   UNL d   1     -45.192  13.304  21.950  0.00  0.00     0.011 A 
ATOM     12  C   UNL d   1     -44.494  12.868  21.822  0.00  0.00     0.001 A 
ATOM     13  C   UNL d   1     -44.353  12.175  22.256  0.00  0.00     0.000 A 
ATOM     14  C   UNL d   1     -44.911  11.918  22.820  0.00  0.00     0.001 A 
ATOM     15  C   UNL d   1     -45.604  12.351  22.947  0.00  0.00     0.011 A 
ENDBRANCH   7  10
ENDBRANCH   1   7
BRANCH   5  16
ATOM     16  N   UNL d   1     -49.251  14.114  22.850  0.00  0.00    -0.218 NA
BRANCH  16  17
ATOM     17  C   UNL d   1     -49.567  13.385  23.047  0.00  0.00     0.120 C 
BRANCH  17  18
ATOM     18  C   UNL d   1     -50.363  13.325  23.242  0.00  0.00     0.101 C 
BRANCH  18  19
ATOM     19  N   UNL d   1     -50.737  12.602  23.097  0.00  0.00    -0.299 N 
ATOM     20  C   UNL d   1     -50.775  12.046  23.698  0.00  0.00     0.100 C 
ATOM     21  C   UNL d   1     -51.064  12.446  22.363  0.00  0.00     0.100 C 
ENDBRANCH  18  19
ENDBRANCH  17  18
ENDBRANCH  16  17
ENDBRANCH   5  16
TORSDOF 6
ENDMDL
MODEL 4
REMARK VINA RESULT:      -5.3      8.277      9.558
REMARK  6 active torsions:
REMARK  status: ('A' for Active; 'I' for Inactive)
REMARK    1  A    between atoms: S_2  and  C_1 
REMARK    2  A    between atoms: C_9  and  S_2 
REMARK    3  A    between atoms: N_10  and  C_6 
REMARK    4  A    between atoms: C_13  and  N_10 
REMARK    5  A    between atoms: N_12  and  C_14 
REMARK    6  A    between atoms: C_14  and  C_13 
ROOT
ATOM      1  C   UNL d   1     -39.930  14.665  20.628  0.00  0.00     0.187 A 
ATOM      2  N   UNL d   1     -39.735  14.322  19.909  0.00  0.00    -0.208 NA
ATOM      3  C   UNL d   1     -40.597  15.138  20.515  0.00  0.00     0.118 A 
ATOM      4  S   UNL d   1     -40.810  15.082  19.722  0.00  0.00    -0.035 SA
ATOM      5  C   UNL d   1     -40.281  14.581  19.348  0.00  0.00     0.196 A 
ATOM      6 CL   UNL d   1     -40.982  15.586  21.091  0.00  0.00    -0.073 Cl
ENDROOT
BRANCH   1   7
ATOM      7  S   UNL d   1     -39.533  14.560  21.339  0.00  0.00     0.228 S 
ATOM      8  O   UNL d   1     -39.113  15.261  21.272  0.00  0.00    -0.216 OA
ATOM      9  O   UNL d   1     -39.949  13.859  21.413  0.00  0.00    -0.216 OA
BRANCH   7  10
ATOM     10  C   UNL d   1     -39.174  14.380  22.067  0.00  0.00     0.089 A 
ATOM     11  C   UNL d   1     -38.824  14.978  22.508  0.00  0.00     0.011 A 
ATOM     12  C   UNL d   1     -38.464  14.801  23.237  0.00  0.00     0.001 A 
ATOM     13  C   UNL d   1     -38.460  14.019  23.518  0.00  0.00     0.000 A 
ATOM     14  C   UNL d   1     -38.816  13.414  23.067  0.00  0.00     0.001 A 
ATOM     15  C   UNL d   1     -39.174  13.592  22.343  0.00  0.00     0.011 A 
ENDBRANCH   7  10
ENDBRANCH   1   7
BRANCH   5  16
ATOM     16  N   UNL d   1     -40.295  14.374  18.554  0.00  0.00    -0.218 NA
BRANCH  16  17
ATOM     17  C   UNL d   1     -39.757  14.720  18.043  0.00  0.00     0.120 C 
BRANCH  17  18
ATOM     18  C   UNL d   1     -39.822  14.592  17.234  0.00  0.00     0.101 C 
BRANCH  18  19
ATOM     19  N   UNL d   1     -39.203  14.860  16.755  0.00  0.00    -0.299 N 
ATOM     20  C   UNL d   1     -39.189  15.645  16.523  0.00  0.00     0.100 C 
ATOM     21  C   UNL d   1     -38.613  14.344  16.517  0.00  0.00     0.100 C 
ENDBRANCH  18  19
ENDBRANCH  17  18
ENDBRANCH  16  17
ENDBRANCH   5  16
TORSDOF 6
ENDMDL
MODEL 5
REMARK VINA RESULT:      -5.2      8.948     10.127
REMARK  6 active torsions:
REMARK  status: ('A' for Active; 'I' for Inactive)
REMARK    1  A    between atoms: S_2  and  C_1 
REMARK    2  A    between atoms: C_9  and  S_2 
REMARK    3  A    between atoms: N_10  and  C_6 
REMARK    4  A    between atoms: C_13  and  N_10 
REMARK    5  A    between atoms: N_12  and  C_14 
REMARK    6  A    between atoms: C_14  and  C_13 
ROOT
ATOM      1  C   UNL d   1     -40.036  15.190  18.016  0.00  0.00     0.187 A 
ATOM      2  N   UNL d   1     -39.256  15.112  17.772  0.00  0.00    -0.208 NA
ATOM      3  C   UNL d   1     -40.500  15.335  17.350  0.00  0.00     0.118 A 
ATOM      4  S   UNL d   1     -40.000  15.345  16.695  0.00  0.00    -0.035 SA
ATOM      5  C   UNL d   1     -39.236  15.208  16.954  0.00  0.00     0.196 A 
ATOM      6 CL   UNL d   1     -41.317  15.450  17.339  0.00  0.00    -0.073 Cl
ENDROOT
BRANCH   1   7
ATOM      7  S   UNL d   1     -40.310  15.135  18.788  0.00  0.00     0.228 S 
ATOM      8  O   UNL d   1     -40.597  14.373  18.690  0.00  0.00    -0.216 OA
ATOM      9  O   UNL d   1     -40.026  15.896  18.893  0.00  0.00    -0.216 OA
BRANCH   7  10
ATOM     10  C   UNL d   1     -40.559  15.159  19.581  0.00  0.00     0.089 A 
ATOM     11  C   UNL d   1     -40.703  14.458  19.984  0.00  0.00     0.011 A 
ATOM     12  C   UNL d   1     -40.952  14.478  20.778  0.00  0.00     0.001 A 
ATOM     13  C   UNL d   1     -41.054  15.207  21.161  0.00  0.00     0.000 A 
ATOM     14  C   UNL d   1     -40.906  15.917  20.749  0.00  0.00     0.001 A 
ATOM     15  C   UNL d   1     -40.659  15.896  19.960  0.00  0.00     0.011 A 
ENDBRANCH   7  10
ENDBRANCH   1   7
BRANCH   5  16
ATOM     16  N   UNL d   1     -38.567  15.172  16.479  0.00  0.00    -0.218 NA
BRANCH  16  17
ATOM     17  C   UNL d   1     -38.549  14.642  15.856  0.00  0.00     0.120 C 
BRANCH  17  18
ATOM     18  C   UNL d   1     -37.940  14.680  15.306  0.00  0.00     0.101 C 
BRANCH  18  19
ATOM     19  N   UNL d   1     -37.981  14.169  14.656  0.00  0.00    -0.299 N 
ATOM     20  C   UNL d   1     -38.063  13.364  14.786  0.00  0.00     0.100 C 
ATOM     21  C   UNL d   1     -37.940  14.466  13.894  0.00  0.00     0.100 C 
ENDBRANCH  18  19
ENDBRANCH  17  18
ENDBRANCH  16  17
ENDBRANCH   5  16
TORSDOF 6
ENDMDL
