MODEL 1
REMARK VINA RESULT:      -7.1      0.000      0.000
REMARK  4 active torsions:
REMARK  status: ('A' for Active; 'I' for Inactive)
REMARK    1  A    between atoms: C_6  and  C_1 
REMARK    2  A    between atoms: C_7  and  C_4 
REMARK    3  A    between atoms: O_10  and  C_6 
REMARK    4  A    between atoms: C_13  and  O_10 
ROOT
ATOM      1  C   UNL d   1     -47.254  12.495  23.095  0.00  0.00     0.112 A 
ATOM      2  S   UNL d   1     -47.991  12.806  22.845  0.00  0.00    -0.080 SA
ATOM      3  C   UNL d   1     -47.392  11.736  23.387  0.00  0.00     0.115 A 
ATOM      4  C   UNL d   1     -48.566  12.225  22.992  0.00  0.00     0.031 A 
ATOM      5  C   UNL d   1     -48.186  11.578  23.322  0.00  0.00     0.028 A 
ATOM      6  N   UNL d   1     -46.809  11.217  23.697  0.00  0.00    -0.147 N 
ENDROOT
BRANCH   4   7
ATOM      7  C   UNL d   1     -49.353  12.385  22.796  0.00  0.00     0.006 A 
ATOM      8  C   UNL d   1     -49.561  12.450  21.994  0.00  0.00     0.001 A 
ATOM      9  C   UNL d   1     -50.346  12.610  21.801  0.00  0.00     0.000 A 
ATOM     10  C   UNL d   1     -50.913  12.704  22.388  0.00  0.00     0.000 A 
ATOM     11  C   UNL d   1     -50.703  12.639  23.177  0.00  0.00     0.000 A 
ATOM     12  C   UNL d   1     -49.920  12.479  23.384  0.00  0.00     0.001 A 
ENDBRANCH   4   7
BRANCH   1  13
ATOM     13  C   UNL d   1     -46.511  12.881  23.056  0.00  0.00     0.308 C 
ATOM     14  O   UNL d   1     -46.212  13.328  23.698  0.00  0.00    -0.258 OA
BRANCH  13  15
ATOM     15  O   UNL d   1     -46.061  12.816  22.357  0.00  0.00    -0.271 OA
BRANCH  15  16
ATOM     16  C   UNL d   1     -45.402  13.318  22.232  0.00  0.00     0.126 C 
ATOM     17  C   UNL d   1     -44.757  13.030  21.807  0.00  0.00     0.029 C 
ENDBRANCH  15  16
ENDBRANCH  13  15
ENDBRANCH   1  13
TORSDOF 4
ENDMDL
MODEL 2
REMARK VINA RESULT:      -6.7      1.872      2.361
REMARK  4 active torsions:
REMARK  status: ('A' for Active; 'I' for Inactive)
REMARK    1  A    between atoms: C_6  and  C_1 
REMARK    2  A    between atoms: C_7  and  C_4 
REMARK    3  A    between atoms: O_10  and  C_6 
REMARK    4  A    between atoms: C_13  and  O_10 
ROOT
ATOM      1  C   UNL d   1     -47.437  13.661  23.049  0.00  0.00     0.112 A 
ATOM      2  S   UNL d   1     -48.275  13.659  23.039  0.00  0.00    -0.080 SA
ATOM      3  C   UNL d   1     -47.188  14.356  22.681  0.00  0.00     0.115 A 
ATOM      4  C   UNL d   1     -48.519  14.358  22.663  0.00  0.00     0.031 A 
ATOM      5  C   UNL d   1     -47.845  14.774  22.450  0.00  0.00     0.028 A 
ATOM      6  N   UNL d   1     -46.389  14.591  22.566  0.00  0.00    -0.147 N 
ENDROOT
BRANCH   4   7
ATOM      7  C   UNL d   1     -49.328  14.502  22.575  0.00  0.00     0.006 A 
ATOM      8  C   UNL d   1     -49.712  14.984  23.133  0.00  0.00     0.001 A 
ATOM      9  C   UNL d   1     -50.519  15.127  23.045  0.00  0.00     0.000 A 
ATOM     10  C   UNL d   1     -50.938  14.799  22.418  0.00  0.00     0.000 A 
ATOM     11  C   UNL d   1     -50.556  14.324  21.872  0.00  0.00     0.000 A 
ATOM     12  C   UNL d   1     -49.747  14.174  21.949  0.00  0.00     0.001 A 
ENDBRANCH   4   7
BRANCH   1  13
ATOM     13  C   UNL d   1     -46.941  13.068  23.372  0.00  0.00     0.308 C 
ATOM     14  O   UNL d   1     -46.191  13.249  23.697  0.00  0.00    -0.258 OA
BRANCH  13  15
ATOM     15  O   UNL d   1     -47.206  12.277  23.366  0.00  0.00    -0.271 OA
BRANCH  15  16
ATOM     16  C   UNL d   1     -46.696  11.661  23.617  0.00  0.00     0.126 C 
ATOM     17  C   UNL d   1     -47.001  10.899  23.694  0.00  0.00     0.029 C 
ENDBRANCH  15  16
ENDBRANCH  13  15
ENDBRANCH   1  13
TORSDOF 4
ENDMDL
MODEL 3
REMARK VINA RESULT:      -5.6      8.854      9.878
REMARK  4 active torsions:
REMARK  status: ('A' for Active; 'I' for Inactive)
REMARK    1  A    between atoms: C_6  and  C_1 
REMARK    2  A    between atoms: C_7  and  C_4 
REMARK    3  A    between atoms: O_10  and  C_6 
REMARK    4  A    between atoms: C_13  and  O_10 
ROOT
ATOM      1  C   UNL d   1     -39.954  15.276  17.399  0.00  0.00     0.112 A 
ATOM      2  S   UNL d   1     -39.812  15.187  18.221  0.00  0.00    -0.080 SA
ATOM      3  C   UNL d   1     -40.760  15.424  17.303  0.00  0.00     0.115 A 
ATOM      4  C   UNL d   1     -40.540  15.284  18.608  0.00  0.00     0.031 A 
ATOM      5  C   UNL d   1     -41.109  15.428  18.036  0.00  0.00     0.028 A 
ATOM      6  N   UNL d   1     -41.151  15.549  16.570  0.00  0.00    -0.147 N 
ENDROOT
BRANCH   4   7
ATOM      7  C   UNL d   1     -40.562  15.224  19.433  0.00  0.00     0.006 A 
ATOM      8  C   UNL d   1     -40.581  15.922  19.884  0.00  0.00     0.001 A 
ATOM      9  C   UNL d   1     -40.604  15.861  20.706  0.00  0.00     0.000 A 
ATOM     10  C   UNL d   1     -40.607  15.125  21.073  0.00  0.00     0.000 A 
ATOM     11  C   UNL d   1     -40.588  14.441  20.624  0.00  0.00     0.000 A 
ATOM     12  C   UNL d   1     -40.565  14.489  19.800  0.00  0.00     0.001 A 
ENDBRANCH   4   7
BRANCH   1  13
ATOM     13  C   UNL d   1     -39.385  15.224  16.786  0.00  0.00     0.308 C 
ATOM     14  O   UNL d   1     -39.133  15.899  16.360  0.00  0.00    -0.258 OA
BRANCH  13  15
ATOM     15  O   UNL d   1     -39.065  14.477  16.599  0.00  0.00    -0.271 OA
BRANCH  15  16
ATOM     16  C   UNL d   1     -38.395  14.420  16.098  0.00  0.00     0.126 C 
ATOM     17  C   UNL d   1     -38.121  13.672  15.884  0.00  0.00     0.029 C 
ENDBRANCH  15  16
ENDBRANCH  13  15
ENDBRANCH   1  13
TORSDOF 4
ENDMDL
MODEL 4
REMARK VINA RESULT:      -5.1      8.470      9.333
REMARK  4 active torsions:
REMARK  status: ('A' for Active; 'I' for Inactive)
REMARK    1  A    between atoms: C_6  and  C_1 
REMARK    2  A    between atoms: C_7  and  C_4 
REMARK    3  A    between atoms: O_10  and  C_6 
REMARK    4  A    between atoms: C_13  and  O_10 
ROOT
ATOM      1  C   UNL d   1     -40.101  15.384  20.573  0.00  0.00     0.112 A 
ATOM      2  S   UNL d   1     -39.792  15.213  19.813  0.00  0.00    -0.080 SA
ATOM      3  C   UNL d   1     -40.864  15.678  20.469  0.00  0.00     0.115 A 
ATOM      4  C   UNL d   1     -40.379  15.408  19.259  0.00  0.00     0.031 A 
ATOM      5  C   UNL d   1     -41.028  15.690  19.674  0.00  0.00     0.028 A 
ATOM      6  N   UNL d   1     -41.383  15.922  21.083  0.00  0.00    -0.147 N 
ENDROOT
BRANCH   4   7
ATOM      7  C   UNL d   1     -40.222  15.293  18.456  0.00  0.00     0.006 A 
ATOM      8  C   UNL d   1     -40.326  14.535  18.131  0.00  0.00     0.001 A 
ATOM      9  C   UNL d   1     -40.169  14.423  17.330  0.00  0.00     0.000 A 
ATOM     10  C   UNL d   1     -39.914  15.047  16.860  0.00  0.00     0.000 A 
ATOM     11  C   UNL d   1     -39.813  15.791  17.184  0.00  0.00     0.000 A 
ATOM     12  C   UNL d   1     -39.967  15.917  17.985  0.00  0.00     0.001 A 
ENDBRANCH   4   7
BRANCH   1  13
ATOM     13  C   UNL d   1     -39.708  15.278  21.306  0.00  0.00     0.308 C 
ATOM     14  O   UNL d   1     -39.382  15.922  21.729  0.00  0.00    -0.258 OA
BRANCH  13  15
ATOM     15  O   UNL d   1     -39.644  14.507  21.618  0.00  0.00    -0.271 OA
BRANCH  15  16
ATOM     16  C   UNL d   1     -39.062  14.334  22.196  0.00  0.00     0.126 C 
ATOM     17  C   UNL d   1     -39.050  13.582  22.536  0.00  0.00     0.029 C 
ENDBRANCH  15  16
ENDBRANCH  13  15
ENDBRANCH   1  13
TORSDOF 4
ENDMDL
MODEL 5
REMARK VINA RESULT:      -5.0      8.942      9.736
REMARK  4 active torsions:
REMARK  status: ('A' for Active; 'I' for Inactive)
REMARK    1  A    between atoms: C_6  and  C_1 
REMARK    2  A    between atoms: C_7  and  C_4 
REMARK    3  A    between atoms: O_10  and  C_6 
REMARK    4  A    between atoms: C_13  and  O_10 
ROOT
ATOM      1  C   UNL d   1     -40.023  14.548  19.164  0.00  0.00     0.112 A 
ATOM      2  S   UNL d   1     -39.543  14.079  19.667  0.00  0.00    -0.080 SA
ATOM      3  C   UNL d   1     -40.330  15.163  19.619  0.00  0.00     0.115 A 
ATOM      4  C   UNL d   1     -39.570  14.422  20.422  0.00  0.00     0.031 A 
ATOM      5  C   UNL d   1     -40.054  15.083  20.378  0.00  0.00     0.028 A 
ATOM      6  N   UNL d   1     -40.843  15.769  19.342  0.00  0.00    -0.147 N 
ENDROOT
BRANCH   4   7
ATOM      7  C   UNL d   1     -39.141  14.070  21.035  0.00  0.00     0.006 A 
ATOM      8  C   UNL d   1     -39.510  13.961  21.771  0.00  0.00     0.001 A 
ATOM      9  C   UNL d   1     -39.082  13.609  22.381  0.00  0.00     0.000 A 
ATOM     10  C   UNL d   1     -38.304  13.370  22.265  0.00  0.00     0.000 A 
ATOM     11  C   UNL d   1     -37.944  13.479  21.537  0.00  0.00     0.000 A 
ATOM     12  C   UNL d   1     -38.363  13.830  20.919  0.00  0.00     0.001 A 
ENDBRANCH   4   7
BRANCH   1  13
ATOM     13  C   UNL d   1     -40.166  14.418  18.348  0.00  0.00     0.308 C 
ATOM     14  O   UNL d   1     -40.857  14.030  18.078  0.00  0.00    -0.258 OA
BRANCH  13  15
ATOM     15  O   UNL d   1     -39.602  14.684  17.795  0.00  0.00    -0.271 OA
BRANCH  15  16
ATOM     16  C   UNL d   1     -39.644  14.433  16.996  0.00  0.00     0.126 C 
ATOM     17  C   UNL d   1     -39.058  14.679  16.470  0.00  0.00     0.029 C 
ENDBRANCH  15  16
ENDBRANCH  13  15
ENDBRANCH   1  13
TORSDOF 4
ENDMDL
MODEL 6
REMARK VINA RESULT:      -5.0      7.933     10.363
REMARK  4 active torsions:
REMARK  status: ('A' for Active; 'I' for Inactive)
REMARK    1  A    between atoms: C_6  and  C_1 
REMARK    2  A    between atoms: C_7  and  C_4 
REMARK    3  A    between atoms: O_10  and  C_6 
REMARK    4  A    between atoms: C_13  and  O_10 
ROOT
ATOM      1  C   UNL d   1     -40.127  15.028  18.574  0.00  0.00     0.112 A 
ATOM      2  S   UNL d   1     -39.509  14.546  18.277  0.00  0.00    -0.080 SA
ATOM      3  C   UNL d   1     -40.551  15.313  17.926  0.00  0.00     0.115 A 
ATOM      4  C   UNL d   1     -39.572  14.548  17.449  0.00  0.00     0.031 A 
ATOM      5  C   UNL d   1     -40.212  15.020  17.249  0.00  0.00     0.028 A 
ATOM      6  N   UNL d   1     -41.220  15.820  17.963  0.00  0.00    -0.147 N 
ENDROOT
BRANCH   4   7
ATOM      7  C   UNL d   1     -39.026  14.111  17.008  0.00  0.00     0.006 A 
ATOM      8  C   UNL d   1     -38.775  13.374  17.298  0.00  0.00     0.001 A 
ATOM      9  C   UNL d   1     -38.230  12.940  16.857  0.00  0.00     0.000 A 
ATOM     10  C   UNL d   1     -37.940  13.229  16.144  0.00  0.00     0.000 A 
ATOM     11  C   UNL d   1     -38.190  13.956  15.863  0.00  0.00     0.000 A 
ATOM     12  C   UNL d   1     -38.735  14.401  16.295  0.00  0.00     0.001 A 
ENDBRANCH   4   7
BRANCH   1  13
ATOM     13  C   UNL d   1     -40.288  15.193  19.380  0.00  0.00     0.308 C 
ATOM     14  O   UNL d   1     -40.073  15.921  19.732  0.00  0.00    -0.258 OA
BRANCH  13  15
ATOM     15  O   UNL d   1     -40.671  14.612  19.839  0.00  0.00    -0.271 OA
BRANCH  15  16
ATOM     16  C   UNL d   1     -40.894  14.780  20.629  0.00  0.00     0.126 C 
ATOM     17  C   UNL d   1     -41.152  14.161  21.110  0.00  0.00     0.029 C 
ENDBRANCH  15  16
ENDBRANCH  13  15
ENDBRANCH   1  13
TORSDOF 4
ENDMDL
