MODEL 1
REMARK VINA RESULT:      49.2      0.000      0.000
REMARK  3 active torsions:
REMARK  status: ('A' for Active; 'I' for Inactive)
REMARK    1  A    between atoms: S_6  and  C_1 
REMARK    2  A    between atoms: C_9  and  S_6 
REMARK    3  A    between atoms: C_7  and  C_9 
REMARK       I    between atoms: N_8  and  C_7 
ROOT
ATOM      1  C   UNL d   1     -56.442 -98.833 -45.200  0.00  0.00     0.049 A 
ATOM      2  N   UNL d   1     -57.087 -98.758 -46.369  0.00  0.00    -0.245 NA
ATOM      3  C   UNL d   1     -56.340 -98.794 -46.017  0.00  0.00     0.087 A 
ATOM      4  C   UNL d   1     -57.247 -98.823 -45.036  0.00  0.00     0.025 A 
ATOM      5  C   UNL d   1     -57.651 -98.777 -45.754  0.00  0.00     0.082 A 
ATOM      6  C   UNL d   1     -55.614 -98.790 -46.407  0.00  0.00     0.021 C 
ATOM      7  C   UNL d   1     -57.671 -98.850 -44.332  0.00  0.00     0.002 A 
ATOM      8  C   UNL d   1     -58.477 -98.757 -45.768  0.00  0.00     0.019 A 
ATOM      9  C   UNL d   1     -58.495 -98.830 -44.333  0.00  0.00     0.000 A 
ATOM     10  C   UNL d   1     -58.897 -98.783 -45.065  0.00  0.00     0.002 A 
ENDROOT
BRANCH   1  11
ATOM     11  S   UNL d   1     -55.834 -98.877 -44.632  0.00  0.00    -0.080 SA
BRANCH  11  12
ATOM     12  C   UNL d   1     -55.216 -99.418 -44.739  0.00  0.00     0.097 C 
BRANCH  12  13
ATOM     13  C   UNL d   1     -54.964 -99.877 -44.096  0.00  0.00     0.272 C 
ATOM     14  N   UNL d   1     -54.964-100.707 -44.167  0.00  0.00    -0.267 N 
ATOM     15  C   UNL d   1     -54.713-101.167 -43.528  0.00  0.00     0.110 A 
ATOM     16  C   UNL d   1     -55.211-101.070 -44.871  0.00  0.00     0.110 A 
ATOM     17  C   UNL d   1     -54.712-101.993 -43.596  0.00  0.00     0.142 A 
ATOM     18  O   UNL d   1     -54.959-102.359 -44.298  0.00  0.00    -0.300 OA
ATOM     19  C   UNL d   1     -55.209-101.889 -44.937  0.00  0.00     0.142 A 
ATOM     20  O   UNL d   1     -54.716 -99.518 -43.390  0.00  0.00    -0.266 OA
ENDBRANCH  12  13
ENDBRANCH  11  12
ENDBRANCH   1  11
TORSDOF 3
ENDMDL
