MODEL 1
REMARK VINA RESULT:      -5.8      0.000      0.000
REMARK  7 active torsions:
REMARK  status: ('A' for Active; 'I' for Inactive)
REMARK    1  A    between atoms: N_4  and  C_1 
REMARK    2  A    between atoms: C_9  and  C_2 
REMARK    3  A    between atoms: C_7  and  N_4 
REMARK    4  A    between atoms: N_8  and  C_7 
REMARK       I    between atoms: C_10  and  N_8 
REMARK    5  A    between atoms: C_15  and  C_10 
REMARK    6  A    between atoms: C_18  and  C_15 
REMARK    7  A    between atoms: C_19  and  C_18 
ROOT
ATOM      1  C   UNL d   1     -47.729  13.065  23.041  0.00  0.00     0.224 C 
ATOM      2  S   UNL d   1     -47.894  12.404  23.509  0.00  0.00    -0.037 SA
ENDROOT
BRANCH   1   3
ATOM      3  N   UNL d   1     -48.223  13.702  23.040  0.00  0.00    -0.211 NA
BRANCH   3   4
ATOM      4  C   UNL d   1     -48.924  13.673  22.623  0.00  0.00     0.118 A 
ATOM      5  C   UNL d   1     -49.449  14.299  22.507  0.00  0.00     0.084 A 
ATOM      6  C   UNL d   1     -50.060  14.029  22.068  0.00  0.00     0.013 A 
ATOM      7  C   UNL d   1     -50.718  14.481  21.822  0.00  0.00     0.001 C 
ATOM      8  C   UNL d   1     -49.947  13.269  21.902  0.00  0.00     0.031 A 
ATOM      9  S   UNL d   1     -49.250  13.033  22.237  0.00  0.00    -0.068 SA
ATOM     10  C   UNL d   1     -50.472  12.807  21.455  0.00  0.00     0.007 C 
BRANCH   5  11
ATOM     11  C   UNL d   1     -49.353  15.074  22.799  0.00  0.00     0.299 C 
ATOM     12  O   UNL d   1     -48.930  15.633  22.362  0.00  0.00    -0.264 OA
ATOM     13  N   UNL d   1     -49.682  15.294  23.535  0.00  0.00    -0.102 N 
ENDBRANCH   5  11
ENDBRANCH   3   4
ENDBRANCH   1   3
BRANCH   1  14
ATOM     14  N   UNL d   1     -47.056  13.082  22.570  0.00  0.00    -0.179 NA
ATOM     15  C   UNL d   1     -46.318  13.085  22.892  0.00  0.00     0.281 C 
ATOM     16  O   UNL d   1     -46.226  13.072  23.698  0.00  0.00    -0.265 OA
BRANCH  15  17
ATOM     17  C   UNL d   1     -45.632  13.101  22.413  0.00  0.00     0.063 C 
BRANCH  17  18
ATOM     18  C   UNL d   1     -45.110  12.486  22.432  0.00  0.00     0.005 C 
BRANCH  18  19
ATOM     19  C   UNL d   1     -44.386  12.573  22.048  0.00  0.00     0.000 A 
ATOM     20  C   UNL d   1     -44.271  13.163  21.474  0.00  0.00     0.000 A 
ATOM     21  C   UNL d   1     -43.552  13.238  21.103  0.00  0.00     0.000 A 
ATOM     22  C   UNL d   1     -42.922  12.723  21.294  0.00  0.00     0.000 A 
ATOM     23  C   UNL d   1     -43.040  12.143  21.860  0.00  0.00     0.000 A 
ATOM     24  C   UNL d   1     -43.780  12.076  22.233  0.00  0.00     0.000 A 
ENDBRANCH  18  19
ENDBRANCH  17  18
ENDBRANCH  15  17
ENDBRANCH   1  14
TORSDOF 7
ENDMDL
MODEL 2
REMARK VINA RESULT:      -5.3      8.351      9.771
REMARK  7 active torsions:
REMARK  status: ('A' for Active; 'I' for Inactive)
REMARK    1  A    between atoms: N_4  and  C_1 
REMARK    2  A    between atoms: C_9  and  C_2 
REMARK    3  A    between atoms: C_7  and  N_4 
REMARK    4  A    between atoms: N_8  and  C_7 
REMARK       I    between atoms: C_10  and  N_8 
REMARK    5  A    between atoms: C_15  and  C_10 
REMARK    6  A    between atoms: C_18  and  C_15 
REMARK    7  A    between atoms: C_19  and  C_18 
ROOT
ATOM      1  C   UNL d   1     -39.826  15.276  18.568  0.00  0.00     0.224 C 
ATOM      2  S   UNL d   1     -40.360  15.819  18.247  0.00  0.00    -0.037 SA
ENDROOT
BRANCH   1   3
ATOM      3  N   UNL d   1     -39.653  14.590  18.180  0.00  0.00    -0.211 NA
BRANCH   3   4
ATOM      4  C   UNL d   1     -39.198  14.609  17.503  0.00  0.00     0.118 A 
ATOM      5  C   UNL d   1     -38.812  13.967  17.156  0.00  0.00     0.084 A 
ATOM      6  C   UNL d   1     -38.432  14.231  16.506  0.00  0.00     0.013 A 
ATOM      7  C   UNL d   1     -37.971  13.764  15.989  0.00  0.00     0.001 C 
ATOM      8  C   UNL d   1     -38.558  15.003  16.423  0.00  0.00     0.031 A 
ATOM      9  S   UNL d   1     -39.029  15.253  17.031  0.00  0.00    -0.068 SA
ATOM     10  C   UNL d   1     -38.247  15.463  15.806  0.00  0.00     0.007 C 
BRANCH   5  11
ATOM     11  C   UNL d   1     -38.821  13.184  17.442  0.00  0.00     0.299 C 
ATOM     12  O   UNL d   1     -39.460  12.688  17.275  0.00  0.00    -0.264 OA
ATOM     13  N   UNL d   1     -38.185  12.891  17.898  0.00  0.00    -0.102 N 
ENDBRANCH   5  11
ENDBRANCH   3   4
ENDBRANCH   1   3
BRANCH   1  14
ATOM     14  N   UNL d   1     -39.462  15.429  19.289  0.00  0.00    -0.179 NA
ATOM     15  C   UNL d   1     -39.871  15.394  19.981  0.00  0.00     0.281 C 
ATOM     16  O   UNL d   1     -40.660  15.204  19.978  0.00  0.00    -0.265 OA
BRANCH  15  17
ATOM     17  C   UNL d   1     -39.502  15.549  20.716  0.00  0.00     0.063 C 
BRANCH  17  18
ATOM     18  C   UNL d   1     -39.788  15.216  21.392  0.00  0.00     0.005 C 
BRANCH  18  19
ATOM     19  C   UNL d   1     -39.308  15.208  22.061  0.00  0.00     0.000 A 
ATOM     20  C   UNL d   1     -38.995  14.497  22.360  0.00  0.00     0.000 A 
ATOM     21  C   UNL d   1     -38.523  14.504  23.020  0.00  0.00     0.000 A 
ATOM     22  C   UNL d   1     -38.346  15.223  23.407  0.00  0.00     0.000 A 
ATOM     23  C   UNL d   1     -38.656  15.922  23.110  0.00  0.00     0.000 A 
ATOM     24  C   UNL d   1     -39.138  15.902  22.433  0.00  0.00     0.000 A 
ENDBRANCH  18  19
ENDBRANCH  17  18
ENDBRANCH  15  17
ENDBRANCH   1  14
TORSDOF 7
ENDMDL
MODEL 3
REMARK VINA RESULT:      -4.5      1.363      1.727
REMARK  7 active torsions:
REMARK  status: ('A' for Active; 'I' for Inactive)
REMARK    1  A    between atoms: N_4  and  C_1 
REMARK    2  A    between atoms: C_9  and  C_2 
REMARK    3  A    between atoms: C_7  and  N_4 
REMARK    4  A    between atoms: N_8  and  C_7 
REMARK       I    between atoms: C_10  and  N_8 
REMARK    5  A    between atoms: C_15  and  C_10 
REMARK    6  A    between atoms: C_18  and  C_15 
REMARK    7  A    between atoms: C_19  and  C_18 
ROOT
ATOM      1  C   UNL d   1     -48.185  12.379  23.500  0.00  0.00     0.224 C 
ATOM      2  S   UNL d   1     -48.655  11.707  23.606  0.00  0.00    -0.037 SA
ENDROOT
BRANCH   1   3
ATOM      3  N   UNL d   1     -48.521  13.109  23.431  0.00  0.00    -0.211 NA
BRANCH   3   4
ATOM      4  C   UNL d   1     -49.119  13.232  22.890  0.00  0.00     0.118 A 
ATOM      5  C   UNL d   1     -49.502  13.948  22.739  0.00  0.00     0.084 A 
ATOM      6  C   UNL d   1     -50.048  13.819  22.171  0.00  0.00     0.013 A 
ATOM      7  C   UNL d   1     -50.561  14.396  21.851  0.00  0.00     0.001 C 
ATOM      8  C   UNL d   1     -50.030  13.064  21.955  0.00  0.00     0.031 A 
ATOM      9  S   UNL d   1     -49.462  12.686  22.389  0.00  0.00    -0.068 SA
ATOM     10  C   UNL d   1     -50.523  12.732  21.376  0.00  0.00     0.007 C 
BRANCH   5  11
ATOM     11  C   UNL d   1     -49.341  14.672  23.118  0.00  0.00     0.299 C 
ATOM     12  O   UNL d   1     -48.625  15.062  22.983  0.00  0.00    -0.264 OA
ATOM     13  N   UNL d   1     -49.899  15.013  23.638  0.00  0.00    -0.102 N 
ENDBRANCH   5  11
ENDBRANCH   3   4
ENDBRANCH   1   3
BRANCH   1  14
ATOM     14  N   UNL d   1     -47.367  12.311  23.465  0.00  0.00    -0.179 NA
ATOM     15  C   UNL d   1     -47.001  11.601  23.561  0.00  0.00     0.281 C 
ATOM     16  O   UNL d   1     -47.439  10.932  23.696  0.00  0.00    -0.265 OA
BRANCH  15  17
ATOM     17  C   UNL d   1     -46.167  11.531  23.525  0.00  0.00     0.063 C 
BRANCH  17  18
ATOM     18  C   UNL d   1     -45.829  10.832  23.308  0.00  0.00     0.005 C 
BRANCH  18  19
ATOM     19  C   UNL d   1     -45.006  10.774  23.311  0.00  0.00     0.000 A 
ATOM     20  C   UNL d   1     -44.620  10.148  23.698  0.00  0.00     0.000 A 
ATOM     21  C   UNL d   1     -43.809  10.103  23.693  0.00  0.00     0.000 A 
ATOM     22  C   UNL d   1     -43.355  10.685  23.301  0.00  0.00     0.000 A 
ATOM     23  C   UNL d   1     -43.740  11.301  22.921  0.00  0.00     0.000 A 
ATOM     24  C   UNL d   1     -44.571  11.336  22.932  0.00  0.00     0.000 A 
ENDBRANCH  18  19
ENDBRANCH  17  18
ENDBRANCH  15  17
ENDBRANCH   1  14
TORSDOF 7
ENDMDL
MODEL 4
REMARK VINA RESULT:      -4.0      5.380      8.110
REMARK  7 active torsions:
REMARK  status: ('A' for Active; 'I' for Inactive)
REMARK    1  A    between atoms: N_4  and  C_1 
REMARK    2  A    between atoms: C_9  and  C_2 
REMARK    3  A    between atoms: C_7  and  N_4 
REMARK    4  A    between atoms: N_8  and  C_7 
REMARK       I    between atoms: C_10  and  N_8 
REMARK    5  A    between atoms: C_15  and  C_10 
REMARK    6  A    between atoms: C_18  and  C_15 
REMARK    7  A    between atoms: C_19  and  C_18 
ROOT
ATOM      1  C   UNL d   1     -40.414  14.605  19.981  0.00  0.00     0.224 C 
ATOM      2  S   UNL d   1     -39.838  14.991  20.431  0.00  0.00    -0.037 SA
ENDROOT
BRANCH   1   3
ATOM      3  N   UNL d   1     -40.519  14.789  19.203  0.00  0.00    -0.211 NA
BRANCH   3   4
ATOM      4  C   UNL d   1     -40.006  14.491  18.642  0.00  0.00     0.118 A 
ATOM      5  C   UNL d   1     -40.035  14.633  17.829  0.00  0.00     0.084 A 
ATOM      6  C   UNL d   1     -39.432  14.236  17.489  0.00  0.00     0.013 A 
ATOM      7  C   UNL d   1     -39.256  14.226  16.672  0.00  0.00     0.001 C 
ATOM      8  C   UNL d   1     -39.025  13.853  18.041  0.00  0.00     0.031 A 
ATOM      9  S   UNL d   1     -39.365  13.999  18.760  0.00  0.00    -0.068 SA
ATOM     10  C   UNL d   1     -38.359  13.382  17.887  0.00  0.00     0.007 C 
BRANCH   5  11
ATOM     11  C   UNL d   1     -40.599  15.108  17.440  0.00  0.00     0.299 C 
ATOM     12  O   UNL d   1     -41.327  14.789  17.216  0.00  0.00    -0.264 OA
ATOM     13  N   UNL d   1     -40.435  15.910  17.272  0.00  0.00    -0.102 N 
ENDBRANCH   5  11
ENDBRANCH   3   4
ENDBRANCH   1   3
BRANCH   1  14
ATOM     14  N   UNL d   1     -40.889  14.028  20.323  0.00  0.00    -0.179 NA
ATOM     15  C   UNL d   1     -41.478  14.220  20.836  0.00  0.00     0.281 C 
ATOM     16  O   UNL d   1     -41.614  14.996  21.028  0.00  0.00    -0.265 OA
BRANCH  15  17
ATOM     17  C   UNL d   1     -41.962  13.632  21.185  0.00  0.00     0.063 C 
BRANCH  17  18
ATOM     18  C   UNL d   1     -42.722  13.533  20.934  0.00  0.00     0.005 C 
BRANCH  18  19
ATOM     19  C   UNL d   1     -43.225  13.057  21.380  0.00  0.00     0.000 A 
ATOM     20  C   UNL d   1     -44.031  13.242  21.465  0.00  0.00     0.000 A 
ATOM     21  C   UNL d   1     -44.516  12.765  21.908  0.00  0.00     0.000 A 
ATOM     22  C   UNL d   1     -44.211  12.082  22.283  0.00  0.00     0.000 A 
ATOM     23  C   UNL d   1     -43.416  11.903  22.197  0.00  0.00     0.000 A 
ATOM     24  C   UNL d   1     -42.929  12.400  21.741  0.00  0.00     0.000 A 
ENDBRANCH  18  19
ENDBRANCH  17  18
ENDBRANCH  15  17
ENDBRANCH   1  14
TORSDOF 7
ENDMDL
MODEL 5
REMARK VINA RESULT:      -3.6      8.765      9.559
REMARK  7 active torsions:
REMARK  status: ('A' for Active; 'I' for Inactive)
REMARK    1  A    between atoms: N_4  and  C_1 
REMARK    2  A    between atoms: C_9  and  C_2 
REMARK    3  A    between atoms: C_7  and  N_4 
REMARK    4  A    between atoms: N_8  and  C_7 
REMARK       I    between atoms: C_10  and  N_8 
REMARK    5  A    between atoms: C_15  and  C_10 
REMARK    6  A    between atoms: C_18  and  C_15 
REMARK    7  A    between atoms: C_19  and  C_18 
ROOT
ATOM      1  C   UNL d   1     -38.433  14.161  18.666  0.00  0.00     0.224 C 
ATOM      2  S   UNL d   1     -37.940  13.712  18.177  0.00  0.00    -0.037 SA
ENDROOT
BRANCH   1   3
ATOM      3  N   UNL d   1     -39.148  14.424  18.401  0.00  0.00    -0.211 NA
BRANCH   3   4
ATOM      4  C   UNL d   1     -39.194  14.842  17.702  0.00  0.00     0.118 A 
ATOM      5  C   UNL d   1     -39.878  15.162  17.369  0.00  0.00     0.084 A 
ATOM      6  C   UNL d   1     -39.673  15.524  16.688  0.00  0.00     0.013 A 
ATOM      7  C   UNL d   1     -40.197  15.922  16.172  0.00  0.00     0.001 C 
ATOM      8  C   UNL d   1     -38.899  15.451  16.574  0.00  0.00     0.031 A 
ATOM      9  S   UNL d   1     -38.587  15.032  17.191  0.00  0.00    -0.068 SA
ATOM     10  C   UNL d   1     -38.493  15.761  15.920  0.00  0.00     0.007 C 
BRANCH   5  11
ATOM     11  C   UNL d   1     -40.645  15.111  17.692  0.00  0.00     0.299 C 
ATOM     12  O   UNL d   1     -41.131  14.469  17.509  0.00  0.00    -0.264 OA
ATOM     13  N   UNL d   1     -40.930  15.706  18.205  0.00  0.00    -0.102 N 
ENDBRANCH   5  11
ENDBRANCH   3   4
ENDBRANCH   1   3
BRANCH   1  14
ATOM     14  N   UNL d   1     -38.198  14.346  19.432  0.00  0.00    -0.179 NA
ATOM     15  C   UNL d   1     -38.230  13.801  20.023  0.00  0.00     0.281 C 
ATOM     16  O   UNL d   1     -38.498  13.051  19.871  0.00  0.00    -0.265 OA
BRANCH  15  17
ATOM     17  C   UNL d   1     -37.991  13.989  20.803  0.00  0.00     0.063 C 
BRANCH  17  18
ATOM     18  C   UNL d   1     -37.948  13.410  21.364  0.00  0.00     0.005 C 
BRANCH  18  19
ATOM     19  C   UNL d   1     -38.138  13.601  22.142  0.00  0.00     0.000 A 
ATOM     20  C   UNL d   1     -38.095  13.032  22.748  0.00  0.00     0.000 A 
ATOM     21  C   UNL d   1     -38.286  13.233  23.511  0.00  0.00     0.000 A 
ATOM     22  C   UNL d   1     -38.527  14.012  23.697  0.00  0.00     0.000 A 
ATOM     23  C   UNL d   1     -38.568  14.569  23.097  0.00  0.00     0.000 A 
ATOM     24  C   UNL d   1     -38.370  14.351  22.319  0.00  0.00     0.000 A 
ENDBRANCH  18  19
ENDBRANCH  17  18
ENDBRANCH  15  17
ENDBRANCH   1  14
TORSDOF 7
ENDMDL
MODEL 6
REMARK VINA RESULT:      -3.6      2.545      3.822
REMARK  7 active torsions:
REMARK  status: ('A' for Active; 'I' for Inactive)
REMARK    1  A    between atoms: N_4  and  C_1 
REMARK    2  A    between atoms: C_9  and  C_2 
REMARK    3  A    between atoms: C_7  and  N_4 
REMARK    4  A    between atoms: N_8  and  C_7 
REMARK       I    between atoms: C_10  and  N_8 
REMARK    5  A    between atoms: C_15  and  C_10 
REMARK    6  A    between atoms: C_18  and  C_15 
REMARK    7  A    between atoms: C_19  and  C_18 
ROOT
ATOM      1  C   UNL d   1     -44.627  12.901  21.769  0.00  0.00     0.224 C 
ATOM      2  S   UNL d   1     -44.970  12.758  21.031  0.00  0.00    -0.037 SA
ENDROOT
BRANCH   1   3
ATOM      3  N   UNL d   1     -44.954  12.599  22.441  0.00  0.00    -0.211 NA
BRANCH   3   4
ATOM      4  C   UNL d   1     -45.677  12.873  22.701  0.00  0.00     0.118 A 
ATOM      5  C   UNL d   1     -46.232  12.447  23.138  0.00  0.00     0.084 A 
ATOM      6  C   UNL d   1     -46.858  12.925  23.273  0.00  0.00     0.013 A 
ATOM      7  C   UNL d   1     -47.547  12.716  23.697  0.00  0.00     0.001 C 
ATOM      8  C   UNL d   1     -46.727  13.627  22.945  0.00  0.00     0.031 A 
ATOM      9  S   UNL d   1     -46.002  13.613  22.587  0.00  0.00    -0.068 SA
ATOM     10  C   UNL d   1     -47.260  14.262  22.975  0.00  0.00     0.007 C 
BRANCH   5  11
ATOM     11  C   UNL d   1     -46.148  11.657  23.391  0.00  0.00     0.299 C 
ATOM     12  O   UNL d   1     -45.426  11.393  23.694  0.00  0.00    -0.264 OA
ATOM     13  N   UNL d   1     -46.790  11.125  23.343  0.00  0.00    -0.102 N 
ENDBRANCH   5  11
ENDBRANCH   3   4
ENDBRANCH   1   3
BRANCH   1  14
ATOM     14  N   UNL d   1     -43.944  13.356  21.827  0.00  0.00    -0.179 NA
ATOM     15  C   UNL d   1     -43.276  13.162  21.422  0.00  0.00     0.281 C 
ATOM     16  O   UNL d   1     -43.265  12.508  20.944  0.00  0.00    -0.265 OA
BRANCH  15  17
ATOM     17  C   UNL d   1     -42.581  13.625  21.480  0.00  0.00     0.063 C 
BRANCH  17  18
ATOM     18  C   UNL d   1     -41.960  13.487  20.984  0.00  0.00     0.005 C 
BRANCH  18  19
ATOM     19  C   UNL d   1     -41.309  13.992  21.018  0.00  0.00     0.000 A 
ATOM     20  C   UNL d   1     -41.362  14.780  20.757  0.00  0.00     0.000 A 
ATOM     21  C   UNL d   1     -40.714  15.267  20.796  0.00  0.00     0.000 A 
ATOM     22  C   UNL d   1     -39.987  14.983  21.096  0.00  0.00     0.000 A 
ATOM     23  C   UNL d   1     -39.940  14.205  21.352  0.00  0.00     0.000 A 
ATOM     24  C   UNL d   1     -40.611  13.716  21.308  0.00  0.00     0.000 A 
ENDBRANCH  18  19
ENDBRANCH  17  18
ENDBRANCH  15  17
ENDBRANCH   1  14
TORSDOF 7
ENDMDL
MODEL 7
REMARK VINA RESULT:      -3.5      1.751      2.335
REMARK  7 active torsions:
REMARK  status: ('A' for Active; 'I' for Inactive)
REMARK    1  A    between atoms: N_4  and  C_1 
REMARK    2  A    between atoms: C_9  and  C_2 
REMARK    3  A    between atoms: C_7  and  N_4 
REMARK    4  A    between atoms: N_8  and  C_7 
REMARK       I    between atoms: C_10  and  N_8 
REMARK    5  A    between atoms: C_15  and  C_10 
REMARK    6  A    between atoms: C_18  and  C_15 
REMARK    7  A    between atoms: C_19  and  C_18 
ROOT
ATOM      1  C   UNL d   1     -49.604  12.038  23.167  0.00  0.00     0.224 C 
ATOM      2  S   UNL d   1     -49.754  11.421  23.696  0.00  0.00    -0.037 SA
ENDROOT
BRANCH   1   3
ATOM      3  N   UNL d   1     -50.183  12.308  22.675  0.00  0.00    -0.211 NA
BRANCH   3   4
ATOM      4  C   UNL d   1     -50.440  13.080  22.734  0.00  0.00     0.118 A 
ATOM      5  C   UNL d   1     -50.608  13.588  22.106  0.00  0.00     0.084 A 
ATOM      6  C   UNL d   1     -50.841  14.288  22.411  0.00  0.00     0.013 A 
ATOM      7  C   UNL d   1     -51.064  14.961  21.970  0.00  0.00     0.001 C 
ATOM      8  C   UNL d   1     -50.830  14.248  23.196  0.00  0.00     0.031 A 
ATOM      9  S   UNL d   1     -50.584  13.509  23.413  0.00  0.00    -0.068 SA
ATOM     10  C   UNL d   1     -51.039  14.876  23.698  0.00  0.00     0.007 C 
BRANCH   5  11
ATOM     11  C   UNL d   1     -50.543  13.398  21.297  0.00  0.00     0.299 C 
ATOM     12  O   UNL d   1     -50.960  12.755  20.986  0.00  0.00    -0.264 OA
ATOM     13  N   UNL d   1     -50.057  13.852  20.791  0.00  0.00    -0.102 N 
ENDBRANCH   5  11
ENDBRANCH   3   4
ENDBRANCH   1   3
BRANCH   1  14
ATOM     14  N   UNL d   1     -48.859  12.385  23.135  0.00  0.00    -0.179 NA
ATOM     15  C   UNL d   1     -48.191  11.940  23.080  0.00  0.00     0.281 C 
ATOM     16  O   UNL d   1     -48.242  11.131  23.055  0.00  0.00    -0.265 OA
BRANCH  15  17
ATOM     17  C   UNL d   1     -47.433  12.293  23.048  0.00  0.00     0.063 C 
BRANCH  17  18
ATOM     18  C   UNL d   1     -47.110  12.495  22.337  0.00  0.00     0.005 C 
BRANCH  18  19
ATOM     19  C   UNL d   1     -46.399  12.911  22.332  0.00  0.00     0.000 A 
ATOM     20  C   UNL d   1     -45.686  12.543  22.109  0.00  0.00     0.000 A 
ATOM     21  C   UNL d   1     -44.992  12.965  22.108  0.00  0.00     0.000 A 
ATOM     22  C   UNL d   1     -44.986  13.771  22.330  0.00  0.00     0.000 A 
ATOM     23  C   UNL d   1     -45.690  14.129  22.549  0.00  0.00     0.000 A 
ATOM     24  C   UNL d   1     -46.394  13.687  22.546  0.00  0.00     0.000 A 
ENDBRANCH  18  19
ENDBRANCH  17  18
ENDBRANCH  15  17
ENDBRANCH   1  14
TORSDOF 7
ENDMDL
MODEL 8
REMARK VINA RESULT:      -3.2      3.788      6.872
REMARK  7 active torsions:
REMARK  status: ('A' for Active; 'I' for Inactive)
REMARK    1  A    between atoms: N_4  and  C_1 
REMARK    2  A    between atoms: C_9  and  C_2 
REMARK    3  A    between atoms: C_7  and  N_4 
REMARK    4  A    between atoms: N_8  and  C_7 
REMARK       I    between atoms: C_10  and  N_8 
REMARK    5  A    between atoms: C_15  and  C_10 
REMARK    6  A    between atoms: C_18  and  C_15 
REMARK    7  A    between atoms: C_19  and  C_18 
ROOT
ATOM      1  C   UNL d   1     -42.371  13.395  21.155  0.00  0.00     0.224 C 
ATOM      2  S   UNL d   1     -42.134  12.603  21.155  0.00  0.00    -0.037 SA
ENDROOT
BRANCH   1   3
ATOM      3  N   UNL d   1     -41.947  13.951  20.754  0.00  0.00    -0.211 NA
BRANCH   3   4
ATOM      4  C   UNL d   1     -41.192  14.141  20.999  0.00  0.00     0.118 A 
ATOM      5  C   UNL d   1     -40.708  14.729  20.678  0.00  0.00     0.084 A 
ATOM      6  C   UNL d   1     -40.019  14.727  21.081  0.00  0.00     0.013 A 
ATOM      7  C   UNL d   1     -39.371  15.234  20.938  0.00  0.00     0.001 C 
ATOM      8  C   UNL d   1     -40.041  14.171  21.636  0.00  0.00     0.031 A 
ATOM      9  S   UNL d   1     -40.758  13.800  21.600  0.00  0.00    -0.068 SA
ATOM     10  C   UNL d   1     -39.419  14.012  22.161  0.00  0.00     0.007 C 
BRANCH   5  11
ATOM     11  C   UNL d   1     -40.911  15.232  20.045  0.00  0.00     0.299 C 
ATOM     12  O   UNL d   1     -41.353  15.916  20.184  0.00  0.00    -0.264 OA
ATOM     13  N   UNL d   1     -40.672  15.052  19.265  0.00  0.00    -0.102 N 
ENDBRANCH   5  11
ENDBRANCH   3   4
ENDBRANCH   1   3
BRANCH   1  14
ATOM     14  N   UNL d   1     -43.044  13.626  21.567  0.00  0.00    -0.179 NA
ATOM     15  C   UNL d   1     -43.724  13.196  21.533  0.00  0.00     0.281 C 
ATOM     16  O   UNL d   1     -43.756  12.520  21.086  0.00  0.00    -0.265 OA
BRANCH  15  17
ATOM     17  C   UNL d   1     -44.410  13.431  21.951  0.00  0.00     0.063 C 
BRANCH  17  18
ATOM     18  C   UNL d   1     -45.079  12.981  21.916  0.00  0.00     0.005 C 
BRANCH  18  19
ATOM     19  C   UNL d   1     -45.727  13.204  22.374  0.00  0.00     0.000 A 
ATOM     20  C   UNL d   1     -46.018  13.983  22.359  0.00  0.00     0.000 A 
ATOM     21  C   UNL d   1     -46.658  14.188  22.815  0.00  0.00     0.000 A 
ATOM     22  C   UNL d   1     -47.029  13.621  23.304  0.00  0.00     0.000 A 
ATOM     23  C   UNL d   1     -46.738  12.855  23.317  0.00  0.00     0.000 A 
ATOM     24  C   UNL d   1     -46.083  12.656  22.845  0.00  0.00     0.000 A 
ENDBRANCH  18  19
ENDBRANCH  17  18
ENDBRANCH  15  17
ENDBRANCH   1  14
TORSDOF 7
ENDMDL
