MODEL 1
REMARK VINA RESULT:      60.9      0.000      0.000
REMARK  5 active torsions:
REMARK  status: ('A' for Active; 'I' for Inactive)
REMARK    1  A    between atoms: C_2  and  S_1 
REMARK    2  A    between atoms: N_3  and  S_1 
REMARK    3  A    between atoms: C_10  and  N_3 
REMARK    4  A    between atoms: C_9  and  C_5 
REMARK    5  A    between atoms: O_14  and  C_8 
ROOT
ATOM      1  C   UNL d   1     -47.335  30.634  35.554  0.00  0.00     0.127 A 
ATOM      2  C   UNL d   1     -47.792  30.157  35.060  0.00  0.00     0.011 A 
ATOM      3  C   UNL d   1     -47.982  29.389  35.289  0.00  0.00    -0.022 A 
ATOM      4  C   UNL d   1     -47.073  30.338  36.272  0.00  0.00     0.106 A 
ATOM      5  C   UNL d   1     -47.716  29.099  36.011  0.00  0.00    -0.002 A 
ATOM      6  C   UNL d   1     -47.259  29.576  36.505  0.00  0.00     0.025 A 
ENDROOT
BRANCH   1   7
ATOM      7  S   UNL d   1     -47.150  31.396  35.320  0.00  0.00     0.287 S 
ATOM      8  O   UNL d   1     -47.654  31.690  35.901  0.00  0.00    -0.198 OA
ATOM      9  O   UNL d   1     -46.649  31.110  34.743  0.00  0.00    -0.198 OA
BRANCH   7  10
ATOM     10  N   UNL d   1     -46.968  32.166  35.091  0.00  0.00    -0.157 NA
BRANCH  10  11
ATOM     11  C   UNL d   1     -47.431  32.545  34.526  0.00  0.00     0.113 A 
ATOM     12  C   UNL d   1     -47.081  32.906  33.883  0.00  0.00     0.119 A 
ATOM     13  N   UNL d   1     -47.545  33.285  33.318  0.00  0.00    -0.241 NA
ATOM     14  C   UNL d   1     -48.372  33.302  33.401  0.00  0.00     0.099 A 
ATOM     15  C   UNL d   1     -48.718  32.935  34.054  0.00  0.00     0.022 A 
ATOM     16  C   UNL d   1     -48.254  32.556  34.618  0.00  0.00     0.023 A 
ENDBRANCH  10  11
ENDBRANCH   7  10
ENDBRANCH   1   7
BRANCH   4  17
ATOM     17  O   UNL d   1     -46.616  30.815  36.766  0.00  0.00    -0.327 OA
ATOM     18  C   UNL d   1     -46.233  30.488  37.418  0.00  0.00     0.181 C 
ENDBRANCH   4  17
BRANCH   3  19
ATOM     19  C   UNL d   1     -48.439  28.912  34.795  0.00  0.00     0.019 C 
ATOM     20  C   UNL d   1     -48.896  28.435  34.301  0.00  0.00     0.004 C 
ATOM     21  C   UNL d   1     -48.136  28.239  35.164  0.00  0.00     0.004 C 
ATOM     22  C   UNL d   1     -48.743  29.584  34.426  0.00  0.00     0.004 C 
ENDBRANCH   3  19
TORSDOF 5
ENDMDL
MODEL 2
REMARK VINA RESULT:      61.5      4.462      6.046
REMARK  5 active torsions:
REMARK  status: ('A' for Active; 'I' for Inactive)
REMARK    1  A    between atoms: C_2  and  S_1 
REMARK    2  A    between atoms: N_3  and  S_1 
REMARK    3  A    between atoms: C_10  and  N_3 
REMARK    4  A    between atoms: C_9  and  C_5 
REMARK    5  A    between atoms: O_14  and  C_8 
ROOT
ATOM      1  C   UNL d   1     -50.180  25.461  33.682  0.00  0.00     0.127 A 
ATOM      2  C   UNL d   1     -50.924  25.812  33.619  0.00  0.00     0.011 A 
ATOM      3  C   UNL d   1     -51.582  25.352  33.433  0.00  0.00    -0.022 A 
ATOM      4  C   UNL d   1     -50.102  24.654  33.560  0.00  0.00     0.106 A 
ATOM      5  C   UNL d   1     -51.496  24.543  33.312  0.00  0.00    -0.002 A 
ATOM      6  C   UNL d   1     -50.752  24.192  33.375  0.00  0.00     0.025 A 
ENDROOT
BRANCH   1   7
ATOM      7  S   UNL d   1     -49.530  25.923  33.866  0.00  0.00     0.287 S 
ATOM      8  O   UNL d   1     -49.088  25.512  33.306  0.00  0.00    -0.198 OA
ATOM      9  O   UNL d   1     -49.964  26.333  34.423  0.00  0.00    -0.198 OA
BRANCH   7  10
ATOM     10  N   UNL d   1     -48.872  26.384  34.047  0.00  0.00    -0.157 NA
BRANCH  10  11
ATOM     11  C   UNL d   1     -48.966  27.185  34.211  0.00  0.00     0.113 A 
ATOM     12  C   UNL d   1     -48.585  27.520  34.851  0.00  0.00     0.119 A 
ATOM     13  N   UNL d   1     -48.680  28.322  35.015  0.00  0.00    -0.241 NA
ATOM     14  C   UNL d   1     -49.163  28.792  34.530  0.00  0.00     0.099 A 
ATOM     15  C   UNL d   1     -49.545  28.446  33.885  0.00  0.00     0.022 A 
ATOM     16  C   UNL d   1     -49.450  27.645  33.722  0.00  0.00     0.023 A 
ENDBRANCH  10  11
ENDBRANCH   7  10
ENDBRANCH   1   7
BRANCH   4  17
ATOM     17  O   UNL d   1     -49.358  24.303  33.623  0.00  0.00    -0.327 OA
ATOM     18  C   UNL d   1     -49.294  23.497  33.777  0.00  0.00     0.181 C 
ENDBRANCH   4  17
BRANCH   3  19
ATOM     19  C   UNL d   1     -52.326  25.703  33.370  0.00  0.00     0.019 C 
ATOM     20  C   UNL d   1     -53.070  26.054  33.306  0.00  0.00     0.004 C 
ATOM     21  C   UNL d   1     -51.976  26.450  33.399  0.00  0.00     0.004 C 
ATOM     22  C   UNL d   1     -52.676  24.957  33.340  0.00  0.00     0.004 C 
ENDBRANCH   3  19
TORSDOF 5
ENDMDL
MODEL 3
REMARK VINA RESULT:      62.2      5.266      7.137
REMARK  5 active torsions:
REMARK  status: ('A' for Active; 'I' for Inactive)
REMARK    1  A    between atoms: C_2  and  S_1 
REMARK    2  A    between atoms: N_3  and  S_1 
REMARK    3  A    between atoms: C_10  and  N_3 
REMARK    4  A    between atoms: C_9  and  C_5 
REMARK    5  A    between atoms: O_14  and  C_8 
ROOT
ATOM      1  C   UNL d   1     -50.751  26.194  33.864  0.00  0.00     0.127 A 
ATOM      2  C   UNL d   1     -50.523  26.978  33.978  0.00  0.00     0.011 A 
ATOM      3  C   UNL d   1     -49.768  27.224  33.757  0.00  0.00    -0.022 A 
ATOM      4  C   UNL d   1     -50.222  25.664  33.530  0.00  0.00     0.106 A 
ATOM      5  C   UNL d   1     -49.243  26.687  33.423  0.00  0.00    -0.002 A 
ATOM      6  C   UNL d   1     -49.471  25.903  33.309  0.00  0.00     0.025 A 
ENDROOT
BRANCH   1   7
ATOM      7  S   UNL d   1     -51.502  25.955  34.085  0.00  0.00     0.287 S 
ATOM      8  O   UNL d   1     -51.324  26.142  34.867  0.00  0.00    -0.198 OA
ATOM      9  O   UNL d   1     -51.683  25.769  33.311  0.00  0.00    -0.198 OA
BRANCH   7  10
ATOM     10  N   UNL d   1     -52.256  25.717  34.315  0.00  0.00    -0.157 NA
BRANCH  10  11
ATOM     11  C   UNL d   1     -52.532  24.971  34.101  0.00  0.00     0.113 A 
ATOM     12  C   UNL d   1     -53.198  24.663  34.459  0.00  0.00     0.119 A 
ATOM     13  N   UNL d   1     -53.474  23.917  34.245  0.00  0.00    -0.241 NA
ATOM     14  C   UNL d   1     -53.076  23.476  33.664  0.00  0.00     0.099 A 
ATOM     15  C   UNL d   1     -52.404  23.795  33.307  0.00  0.00     0.022 A 
ATOM     16  C   UNL d   1     -52.129  24.540  33.521  0.00  0.00     0.023 A 
ENDBRANCH  10  11
ENDBRANCH   7  10
ENDBRANCH   1   7
BRANCH   4  17
ATOM     17  O   UNL d   1     -50.450  24.879  33.416  0.00  0.00    -0.327 OA
ATOM     18  C   UNL d   1     -49.879  24.289  33.348  0.00  0.00     0.181 C 
ENDBRANCH   4  17
BRANCH   3  19
ATOM     19  C   UNL d   1     -49.540  28.009  33.871  0.00  0.00     0.019 C 
ATOM     20  C   UNL d   1     -49.312  28.794  33.986  0.00  0.00     0.004 C 
ATOM     21  C   UNL d   1     -50.102  28.253  33.319  0.00  0.00     0.004 C 
ATOM     22  C   UNL d   1     -48.978  27.765  34.424  0.00  0.00     0.004 C 
ENDBRANCH   3  19
TORSDOF 5
ENDMDL
MODEL 4
REMARK VINA RESULT:      63.3      5.777      7.168
REMARK  5 active torsions:
REMARK  status: ('A' for Active; 'I' for Inactive)
REMARK    1  A    between atoms: C_2  and  S_1 
REMARK    2  A    between atoms: N_3  and  S_1 
REMARK    3  A    between atoms: C_10  and  N_3 
REMARK    4  A    between atoms: C_9  and  C_5 
REMARK    5  A    between atoms: O_14  and  C_8 
ROOT
ATOM      1  C   UNL d   1     -51.470  25.512  34.335  0.00  0.00     0.127 A 
ATOM      2  C   UNL d   1     -52.132  25.020  34.335  0.00  0.00     0.011 A 
ATOM      3  C   UNL d   1     -52.169  24.378  33.821  0.00  0.00    -0.022 A 
ATOM      4  C   UNL d   1     -50.852  25.356  33.820  0.00  0.00     0.106 A 
ATOM      5  C   UNL d   1     -51.545  24.228  33.306  0.00  0.00    -0.002 A 
ATOM      6  C   UNL d   1     -50.883  24.720  33.306  0.00  0.00     0.025 A 
ENDROOT
BRANCH   1   7
ATOM      7  S   UNL d   1     -51.439  26.148  34.849  0.00  0.00     0.287 S 
ATOM      8  O   UNL d   1     -51.119  26.610  34.247  0.00  0.00    -0.198 OA
ATOM      9  O   UNL d   1     -51.755  25.694  35.449  0.00  0.00    -0.198 OA
BRANCH   7  10
ATOM     10  N   UNL d   1     -51.405  26.793  35.361  0.00  0.00    -0.157 NA
BRANCH  10  11
ATOM     11  C   UNL d   1     -51.400  26.669  36.174  0.00  0.00     0.113 A 
ATOM     12  C   UNL d   1     -50.792  26.968  36.630  0.00  0.00     0.119 A 
ATOM     13  N   UNL d   1     -50.788  26.844  37.445  0.00  0.00    -0.241 NA
ATOM     14  C   UNL d   1     -51.402  26.415  37.805  0.00  0.00     0.099 A 
ATOM     15  C   UNL d   1     -52.012  26.116  37.336  0.00  0.00     0.022 A 
ATOM     16  C   UNL d   1     -52.016  26.240  36.523  0.00  0.00     0.023 A 
ENDBRANCH  10  11
ENDBRANCH   7  10
ENDBRANCH   1   7
BRANCH   4  17
ATOM     17  O   UNL d   1     -50.189  25.848  33.819  0.00  0.00    -0.327 OA
ATOM     18  C   UNL d   1     -49.557  25.689  33.315  0.00  0.00     0.181 C 
ENDBRANCH   4  17
BRANCH   3  19
ATOM     19  C   UNL d   1     -52.831  23.886  33.822  0.00  0.00     0.019 C 
ATOM     20  C   UNL d   1     -53.493  23.394  33.822  0.00  0.00     0.004 C 
ATOM     21  C   UNL d   1     -53.229  24.420  33.335  0.00  0.00     0.004 C 
ATOM     22  C   UNL d   1     -52.434  23.352  34.309  0.00  0.00     0.004 C 
ENDBRANCH   3  19
TORSDOF 5
ENDMDL
