MODEL 1
REMARK VINA RESULT:       8.6      0.000      0.000
REMARK  2 active torsions:
REMARK  status: ('A' for Active; 'I' for Inactive)
REMARK    1  A    between atoms: N_2  and  C_1 
REMARK    2  A    between atoms: N_11  and  C_3 
ROOT
ATOM      1  C   UNL d   1     -42.383-123.152 -49.589  0.00  0.00     0.142 A 
ATOM      2  C   UNL d   1     -43.018-122.776 -49.219  0.00  0.00     0.124 A 
ATOM      3  C   UNL d   1     -41.761-123.441 -49.137  0.00  0.00     0.215 A 
ATOM      4  C   UNL d   1     -43.033-122.689 -48.400  0.00  0.00     0.213 A 
ATOM      5  C   UNL d   1     -41.767-123.358 -48.314  0.00  0.00     0.044 A 
ATOM      6  C   UNL d   1     -42.408-122.980 -47.949  0.00  0.00     0.044 A 
ATOM      7  O   UNL d   1     -41.123-123.817 -49.500  0.00  0.00    -0.285 OA
ATOM      8  O   UNL d   1     -43.668-122.314 -48.030  0.00  0.00    -0.285 OA
ATOM      9  C   UNL d   1     -41.151-123.645 -47.864  0.00  0.00     0.003 A 
ATOM     10  C   UNL d   1     -42.417-122.896 -47.125  0.00  0.00     0.003 A 
ATOM     11  C   UNL d   1     -41.791-123.188 -46.681  0.00  0.00     0.000 A 
ATOM     12  C   UNL d   1     -41.153-123.565 -47.053  0.00  0.00     0.000 A 
ENDROOT
BRANCH   1  13
ATOM     13  N   UNL d   1     -42.374-123.235 -50.404  0.00  0.00    -0.206 N 
ATOM     14  N   UNL d   1     -42.776-123.813 -50.836  0.00  0.00    -0.059 NA
ATOM     15  N   UNL d   1     -42.610-123.689 -51.639  0.00  0.00    -0.129 NA
ATOM     16  C   UNL d   1     -42.106-123.033 -51.692  0.00  0.00     0.122 A 
ATOM     17  C   UNL d   1     -41.962-122.755 -50.925  0.00  0.00     0.104 A 
ATOM     18  C   UNL d   1     -41.765-122.663 -52.344  0.00  0.00     0.022 A 
ATOM     19  C   UNL d   1     -41.479-122.107 -50.810  0.00  0.00     0.021 A 
ATOM     20  C   UNL d   1     -41.127-121.720 -51.456  0.00  0.00     0.002 A 
ATOM     21  C   UNL d   1     -41.273-122.002 -52.220  0.00  0.00     0.002 A 
ENDBRANCH   1  13
BRANCH   2  22
ATOM     22  N   UNL d   1     -43.644-122.485 -49.673  0.00  0.00    -0.296 N 
ATOM     23  C   UNL d   1     -43.656-121.693 -49.899  0.00  0.00     0.107 A 
ATOM     24  C   UNL d   1     -44.273-121.403 -50.347  0.00  0.00     0.142 A 
ATOM     25  O   UNL d   1     -44.891-121.904 -50.577  0.00  0.00    -0.300 OA
ATOM     26  C   UNL d   1     -44.874-122.698 -50.347  0.00  0.00     0.142 A 
ATOM     27  C   UNL d   1     -44.250-122.986 -49.896  0.00  0.00     0.107 A 
ENDBRANCH   2  22
TORSDOF 2
ENDMDL
