MODEL 1
REMARK VINA RESULT:      28.7      0.000      0.000
REMARK  3 active torsions:
REMARK  status: ('A' for Active; 'I' for Inactive)
REMARK    1  A    between atoms: C_4  and  C_1 
REMARK    2  A    between atoms: N_7  and  C_4 
REMARK    3  A    between atoms: C_9  and  N_7 
ROOT
ATOM      1  C   UNL d   1      14.474  12.455  -1.240  0.00  0.00     0.171 C 
ATOM      2  S   UNL d   1      14.985  11.794  -1.215  0.00  0.00    -0.054 SA
ENDROOT
BRANCH   1   3
ATOM      3  C   UNL d   1      14.734  13.188  -0.973  0.00  0.00     0.191 A 
ATOM      4  N   UNL d   1      15.496  13.362  -0.695  0.00  0.00    -0.223 NA
ATOM      5  C   UNL d   1      15.511  14.162  -0.485  0.00  0.00     0.101 A 
ATOM      6  C   UNL d   1      16.116  14.637  -0.179  0.00  0.00     0.021 A 
ATOM      7  C   UNL d   1      14.763  14.480  -0.633  0.00  0.00     0.101 A 
ATOM      8  C   UNL d   1      15.961  15.432  -0.022  0.00  0.00     0.002 A 
ATOM      9  C   UNL d   1      15.212  15.751  -0.170  0.00  0.00     0.002 A 
ATOM     10  C   UNL d   1      14.616  15.275  -0.474  0.00  0.00     0.021 A 
ATOM     11  N   UNL d   1      14.289  13.876  -0.933  0.00  0.00    -0.223 NA
ENDBRANCH   1   3
BRANCH   1  12
ATOM     12  N   UNL d   1      13.710  12.362  -1.536  0.00  0.00    -0.232 NA
BRANCH  12  13
ATOM     13  C   UNL d   1      13.580  12.284  -2.348  0.00  0.00     0.082 A 
ATOM     14  C   UNL d   1      14.121  11.862  -2.812  0.00  0.00     0.019 A 
ATOM     15  C   UNL d   1      13.991  11.784  -3.621  0.00  0.00     0.002 A 
ATOM     16  C   UNL d   1      13.319  12.127  -3.974  0.00  0.00     0.000 A 
ATOM     17  C   UNL d   1      12.784  12.547  -3.501  0.00  0.00     0.002 A 
ATOM     18  C   UNL d   1      13.190  12.049  -4.782  0.00  0.00     0.000 C 
ATOM     19  C   UNL d   1      12.917  12.623  -2.693  0.00  0.00     0.019 A 
ENDBRANCH  12  13
ENDBRANCH   1  12
TORSDOF 3
ENDMDL
MODEL 2
REMARK VINA RESULT:      31.4      1.427      4.184
REMARK  3 active torsions:
REMARK  status: ('A' for Active; 'I' for Inactive)
REMARK    1  A    between atoms: C_4  and  C_1 
REMARK    2  A    between atoms: N_7  and  C_4 
REMARK    3  A    between atoms: C_9  and  N_7 
ROOT
ATOM      1  C   UNL d   1      13.214  12.377  -2.243  0.00  0.00     0.171 C 
ATOM      2  S   UNL d   1      12.769  11.795  -1.840  0.00  0.00    -0.054 SA
ENDROOT
BRANCH   1   3
ATOM      3  C   UNL d   1      13.287  12.350  -3.061  0.00  0.00     0.191 A 
ATOM      4  N   UNL d   1      13.895  12.698  -3.507  0.00  0.00    -0.223 NA
ATOM      5  C   UNL d   1      13.748  12.532  -4.304  0.00  0.00     0.101 A 
ATOM      6  C   UNL d   1      14.163  12.735  -4.991  0.00  0.00     0.021 A 
ATOM      7  C   UNL d   1      13.054  12.085  -4.350  0.00  0.00     0.101 A 
ATOM      8  C   UNL d   1      13.874  12.485  -5.722  0.00  0.00     0.002 A 
ATOM      9  C   UNL d   1      13.180  12.038  -5.769  0.00  0.00     0.002 A 
ATOM     10  C   UNL d   1      12.772  11.839  -5.084  0.00  0.00     0.021 A 
ATOM     11  N   UNL d   1      12.776  11.977  -3.582  0.00  0.00    -0.223 NA
ENDBRANCH   1   3
BRANCH   1  12
ATOM     12  N   UNL d   1      13.578  12.978  -1.809  0.00  0.00    -0.232 NA
BRANCH  12  13
ATOM     13  C   UNL d   1      14.254  12.822  -1.360  0.00  0.00     0.082 A 
ATOM     14  C   UNL d   1      14.840  13.402  -1.285  0.00  0.00     0.019 A 
ATOM     15  C   UNL d   1      15.513  13.247  -0.838  0.00  0.00     0.002 A 
ATOM     16  C   UNL d   1      15.607  12.510  -0.461  0.00  0.00     0.000 A 
ATOM     17  C   UNL d   1      15.015  11.936  -0.542  0.00  0.00     0.002 A 
ATOM     18  C   UNL d   1      16.279  12.355  -0.015  0.00  0.00     0.000 C 
ATOM     19  C   UNL d   1      14.343  12.095  -0.990  0.00  0.00     0.019 A 
ENDBRANCH  12  13
ENDBRANCH   1  12
TORSDOF 3
ENDMDL
