MODEL 1
REMARK VINA RESULT:      -4.6      0.000      0.000
REMARK  10 active torsions:
REMARK  status: ('A' for Active; 'I' for Inactive)
REMARK    1  A    between atoms: N_3  and  C_1 
REMARK    2  A    between atoms: C_16  and  N_2 
REMARK       I    between atoms: C_7  and  N_3 
REMARK    3  A    between atoms: C_18  and  C_7 
REMARK    4  A    between atoms: C_10  and  C_20 
REMARK       I    between atoms: N_11  and  C_10 
REMARK    5  A    between atoms: C_19  and  N_11 
REMARK    6  A    between atoms: S_14  and  C_18 
REMARK    7  A    between atoms: C_20  and  S_14 
REMARK    8  A    between atoms: O_21  and  C_15 
REMARK    9  A    between atoms: C_23  and  C_16 
REMARK   10  A    between atoms: O_22  and  C_23 
ROOT
ATOM      1  C   UNL d   1     -41.132  14.363  20.429  0.00  0.00     0.182 A 
ATOM      2  N   UNL d   1     -40.701  15.071  20.401  0.00  0.00    -0.283 N 
ATOM      3  S   UNL d   1     -41.155  14.046  19.659  0.00  0.00    -0.048 SA
ATOM      4  C   UNL d   1     -40.736  14.564  19.159  0.00  0.00     0.050 A 
ATOM      5  C   UNL d   1     -40.455  15.196  19.616  0.00  0.00     0.072 A 
ATOM      6  C   UNL d   1     -40.579  14.530  18.343  0.00  0.00     0.032 A 
ATOM      7  C   UNL d   1     -40.019  15.794  19.259  0.00  0.00     0.020 A 
ATOM      8  C   UNL d   1     -40.140  15.138  18.001  0.00  0.00     0.095 A 
ATOM      9  C   UNL d   1     -39.859  15.770  18.459  0.00  0.00     0.026 A 
ENDROOT
BRANCH   1  10
ATOM     10  N   UNL d   1     -41.480  14.028  21.104  0.00  0.00    -0.183 NA
ATOM     11  C   UNL d   1     -42.061  13.512  20.810  0.00  0.00     0.287 C 
ATOM     12  O   UNL d   1     -42.173  13.437  19.990  0.00  0.00    -0.265 OA
BRANCH  11  13
ATOM     13  C   UNL d   1     -42.529  13.075  21.325  0.00  0.00     0.098 C 
BRANCH  13  14
ATOM     14  S   UNL d   1     -43.358  13.113  21.280  0.00  0.00    -0.076 SA
BRANCH  14  15
ATOM     15  C   UNL d   1     -43.823  12.719  21.840  0.00  0.00     0.098 C 
BRANCH  15  16
ATOM     16  C   UNL d   1     -44.630  12.881  21.902  0.00  0.00     0.286 C 
ATOM     17  N   UNL d   1     -44.967  13.025  22.642  0.00  0.00    -0.208 NA
ATOM     18  O   UNL d   1     -45.099  12.899  21.216  0.00  0.00    -0.265 OA
BRANCH  17  19
ATOM     19  C   UNL d   1     -45.780  13.188  22.699  0.00  0.00     0.085 A 
ATOM     20  C   UNL d   1     -46.047  13.958  22.620  0.00  0.00     0.019 A 
ATOM     21  C   UNL d   1     -46.852  14.117  22.676  0.00  0.00     0.002 A 
ATOM     22  C   UNL d   1     -47.390  13.495  22.813  0.00  0.00     0.000 A 
ATOM     23  C   UNL d   1     -47.107  12.721  22.890  0.00  0.00     0.002 A 
ATOM     24  C   UNL d   1     -46.301  12.562  22.834  0.00  0.00     0.019 A 
ENDBRANCH  17  19
ENDBRANCH  15  16
ENDBRANCH  14  15
ENDBRANCH  13  14
ENDBRANCH  11  13
ENDBRANCH   1  10
BRANCH   2  25
ATOM     25  C   UNL d   1     -40.547  15.559  21.041  0.00  0.00     0.108 C 
BRANCH  25  26
ATOM     26  C   UNL d   1     -39.890  15.432  21.520  0.00  0.00     0.135 C 
BRANCH  26  27
ATOM     27  O   UNL d   1     -39.761  15.921  22.174  0.00  0.00    -0.325 OA
ATOM     28  C   UNL d   1     -39.055  15.876  22.598  0.00  0.00     0.182 C 
ENDBRANCH  26  27
ENDBRANCH  25  26
ENDBRANCH   2  25
BRANCH   8  29
ATOM     29  O   UNL d   1     -39.975  15.117  17.186  0.00  0.00    -0.328 OA
ATOM     30  C   UNL d   1     -39.233  15.331  16.910  0.00  0.00     0.181 C 
ENDBRANCH   8  29
TORSDOF 10
ENDMDL
MODEL 2
REMARK VINA RESULT:      -4.0      0.976      2.602
REMARK  10 active torsions:
REMARK  status: ('A' for Active; 'I' for Inactive)
REMARK    1  A    between atoms: N_3  and  C_1 
REMARK    2  A    between atoms: C_16  and  N_2 
REMARK       I    between atoms: C_7  and  N_3 
REMARK    3  A    between atoms: C_18  and  C_7 
REMARK    4  A    between atoms: C_10  and  C_20 
REMARK       I    between atoms: N_11  and  C_10 
REMARK    5  A    between atoms: C_19  and  N_11 
REMARK    6  A    between atoms: S_14  and  C_18 
REMARK    7  A    between atoms: C_20  and  S_14 
REMARK    8  A    between atoms: O_21  and  C_15 
REMARK    9  A    between atoms: C_23  and  C_16 
REMARK   10  A    between atoms: O_22  and  C_23 
ROOT
ATOM      1  C   UNL d   1     -40.868  14.379  20.637  0.00  0.00     0.182 A 
ATOM      2  N   UNL d   1     -40.530  15.089  20.373  0.00  0.00    -0.283 N 
ATOM      3  S   UNL d   1     -40.428  14.116  21.294  0.00  0.00    -0.048 SA
ATOM      4  C   UNL d   1     -39.819  14.668  21.430  0.00  0.00     0.050 A 
ATOM      5  C   UNL d   1     -39.882  15.268  20.862  0.00  0.00     0.072 A 
ATOM      6  C   UNL d   1     -39.219  14.690  22.004  0.00  0.00     0.032 A 
ATOM      7  C   UNL d   1     -39.345  15.891  20.867  0.00  0.00     0.020 A 
ATOM      8  C   UNL d   1     -38.689  15.321  21.995  0.00  0.00     0.095 A 
ATOM      9  C   UNL d   1     -38.752  15.922  21.427  0.00  0.00     0.026 A 
ENDROOT
BRANCH   1  10
ATOM     10  N   UNL d   1     -41.527  13.998  20.308  0.00  0.00    -0.183 NA
ATOM     11  C   UNL d   1     -41.877  13.592  20.942  0.00  0.00     0.287 C 
ATOM     12  O   UNL d   1     -41.541  13.638  21.701  0.00  0.00    -0.265 OA
BRANCH  11  13
ATOM     13  C   UNL d   1     -42.556  13.143  20.827  0.00  0.00     0.098 C 
BRANCH  13  14
ATOM     14  S   UNL d   1     -43.116  13.059  21.436  0.00  0.00    -0.076 SA
BRANCH  14  15
ATOM     15  C   UNL d   1     -43.894  12.839  21.257  0.00  0.00     0.098 C 
BRANCH  15  16
ATOM     16  C   UNL d   1     -44.471  12.824  21.847  0.00  0.00     0.286 C 
ATOM     17  N   UNL d   1     -45.189  13.214  21.732  0.00  0.00    -0.208 NA
ATOM     18  O   UNL d   1     -44.322  12.415  22.555  0.00  0.00    -0.265 OA
BRANCH  17  19
ATOM     19  C   UNL d   1     -45.767  13.195  22.330  0.00  0.00     0.085 A 
ATOM     20  C   UNL d   1     -46.100  12.480  22.551  0.00  0.00     0.019 A 
ATOM     21  C   UNL d   1     -46.671  12.465  23.144  0.00  0.00     0.002 A 
ATOM     22  C   UNL d   1     -46.906  13.174  23.513  0.00  0.00     0.000 A 
ATOM     23  C   UNL d   1     -46.561  13.889  23.279  0.00  0.00     0.002 A 
ATOM     24  C   UNL d   1     -45.990  13.905  22.687  0.00  0.00     0.019 A 
ENDBRANCH  17  19
ENDBRANCH  15  16
ENDBRANCH  14  15
ENDBRANCH  13  14
ENDBRANCH  11  13
ENDBRANCH   1  10
BRANCH   2  25
ATOM     25  C   UNL d   1     -40.796  15.533  19.736  0.00  0.00     0.108 C 
BRANCH  25  26
ATOM     26  C   UNL d   1     -40.535  15.374  18.973  0.00  0.00     0.135 C 
BRANCH  26  27
ATOM     27  O   UNL d   1     -40.676  15.922  18.370  0.00  0.00    -0.325 OA
ATOM     28  C   UNL d   1     -40.772  15.672  17.590  0.00  0.00     0.182 C 
ENDBRANCH  26  27
ENDBRANCH  25  26
ENDBRANCH   2  25
BRANCH   8  29
ATOM     29  O   UNL d   1     -38.082  15.357  22.564  0.00  0.00    -0.328 OA
ATOM     30  C   UNL d   1     -38.256  15.250  23.357  0.00  0.00     0.181 C 
ENDBRANCH   8  29
TORSDOF 10
ENDMDL
MODEL 3
REMARK VINA RESULT:      -3.7      1.481      6.713
REMARK  10 active torsions:
REMARK  status: ('A' for Active; 'I' for Inactive)
REMARK    1  A    between atoms: N_3  and  C_1 
REMARK    2  A    between atoms: C_16  and  N_2 
REMARK       I    between atoms: C_7  and  N_3 
REMARK    3  A    between atoms: C_18  and  C_7 
REMARK    4  A    between atoms: C_10  and  C_20 
REMARK       I    between atoms: N_11  and  C_10 
REMARK    5  A    between atoms: C_19  and  N_11 
REMARK    6  A    between atoms: S_14  and  C_18 
REMARK    7  A    between atoms: C_20  and  S_14 
REMARK    8  A    between atoms: O_21  and  C_15 
REMARK    9  A    between atoms: C_23  and  C_16 
REMARK   10  A    between atoms: O_22  and  C_23 
ROOT
ATOM      1  C   UNL d   1     -45.031  12.561  22.329  0.00  0.00     0.182 A 
ATOM      2  N   UNL d   1     -45.476  12.266  22.965  0.00  0.00    -0.283 N 
ATOM      3  S   UNL d   1     -45.450  13.202  22.000  0.00  0.00    -0.048 SA
ATOM      4  C   UNL d   1     -46.152  13.298  22.437  0.00  0.00     0.050 A 
ATOM      5  C   UNL d   1     -46.169  12.721  23.032  0.00  0.00     0.072 A 
ATOM      6  C   UNL d   1     -46.775  13.843  22.359  0.00  0.00     0.032 A 
ATOM      7  C   UNL d   1     -46.807  12.689  23.549  0.00  0.00     0.020 A 
ATOM      8  C   UNL d   1     -47.407  13.797  22.886  0.00  0.00     0.095 A 
ATOM      9  C   UNL d   1     -47.423  13.220  23.481  0.00  0.00     0.026 A 
ENDROOT
BRANCH   1  10
ATOM     10  N   UNL d   1     -44.300  12.271  22.067  0.00  0.00    -0.183 NA
ATOM     11  C   UNL d   1     -43.905  12.934  21.760  0.00  0.00     0.287 C 
ATOM     12  O   UNL d   1     -44.274  13.679  21.772  0.00  0.00    -0.265 OA
BRANCH  11  13
ATOM     13  C   UNL d   1     -43.150  12.860  21.444  0.00  0.00     0.098 C 
BRANCH  13  14
ATOM     14  S   UNL d   1     -42.725  13.534  21.203  0.00  0.00    -0.076 SA
BRANCH  14  15
ATOM     15  C   UNL d   1     -41.910  13.484  21.069  0.00  0.00     0.098 C 
BRANCH  15  16
ATOM     16  C   UNL d   1     -41.499  14.123  20.745  0.00  0.00     0.286 C 
ATOM     17  N   UNL d   1     -40.947  13.998  20.145  0.00  0.00    -0.208 NA
ATOM     18  O   UNL d   1     -41.647  14.891  21.029  0.00  0.00    -0.265 OA
BRANCH  17  19
ATOM     19  C   UNL d   1     -40.536  14.645  19.823  0.00  0.00     0.085 A 
ATOM     20  C   UNL d   1     -40.086  15.124  20.311  0.00  0.00     0.019 A 
ATOM     21  C   UNL d   1     -39.681  15.765  19.990  0.00  0.00     0.002 A 
ATOM     22  C   UNL d   1     -39.731  15.921  19.173  0.00  0.00     0.000 A 
ATOM     23  C   UNL d   1     -40.190  15.429  18.691  0.00  0.00     0.002 A 
ATOM     24  C   UNL d   1     -40.595  14.789  19.013  0.00  0.00     0.019 A 
ENDBRANCH  17  19
ENDBRANCH  15  16
ENDBRANCH  14  15
ENDBRANCH  13  14
ENDBRANCH  11  13
ENDBRANCH   1  10
BRANCH   2  25
ATOM     25  C   UNL d   1     -45.262  11.634  23.441  0.00  0.00     0.108 C 
BRANCH  25  26
ATOM     26  C   UNL d   1     -45.334  10.860  23.172  0.00  0.00     0.135 C 
BRANCH  26  27
ATOM     27  O   UNL d   1     -45.221  10.232  23.698  0.00  0.00    -0.325 OA
ATOM     28  C   UNL d   1     -44.516   9.806  23.698  0.00  0.00     0.182 C 
ENDBRANCH  26  27
ENDBRANCH  25  26
ENDBRANCH   2  25
BRANCH   8  29
ATOM     29  O   UNL d   1     -48.037  14.336  22.821  0.00  0.00    -0.328 OA
ATOM     30  C   UNL d   1     -48.800  14.064  22.694  0.00  0.00     0.181 C 
ENDBRANCH   8  29
TORSDOF 10
ENDMDL
MODEL 4
REMARK VINA RESULT:      -3.6      1.787      7.031
REMARK  10 active torsions:
REMARK  status: ('A' for Active; 'I' for Inactive)
REMARK    1  A    between atoms: N_3  and  C_1 
REMARK    2  A    between atoms: C_16  and  N_2 
REMARK       I    between atoms: C_7  and  N_3 
REMARK    3  A    between atoms: C_18  and  C_7 
REMARK    4  A    between atoms: C_10  and  C_20 
REMARK       I    between atoms: N_11  and  C_10 
REMARK    5  A    between atoms: C_19  and  N_11 
REMARK    6  A    between atoms: S_14  and  C_18 
REMARK    7  A    between atoms: C_20  and  S_14 
REMARK    8  A    between atoms: O_21  and  C_15 
REMARK    9  A    between atoms: C_23  and  C_16 
REMARK   10  A    between atoms: O_22  and  C_23 
ROOT
ATOM      1  C   UNL d   1     -46.227  12.996  22.712  0.00  0.00     0.182 A 
ATOM      2  N   UNL d   1     -46.945  12.823  23.092  0.00  0.00    -0.283 N 
ATOM      3  S   UNL d   1     -46.292  13.757  22.380  0.00  0.00    -0.048 SA
ATOM      4  C   UNL d   1     -47.051  14.049  22.558  0.00  0.00     0.050 A 
ATOM      5  C   UNL d   1     -47.454  13.473  22.997  0.00  0.00     0.072 A 
ATOM      6  C   UNL d   1     -47.418  14.771  22.370  0.00  0.00     0.032 A 
ATOM      7  C   UNL d   1     -48.223  13.618  23.249  0.00  0.00     0.020 A 
ATOM      8  C   UNL d   1     -48.190  14.900  22.630  0.00  0.00     0.095 A 
ATOM      9  C   UNL d   1     -48.592  14.323  23.070  0.00  0.00     0.026 A 
ENDROOT
BRANCH   1  10
ATOM     10  N   UNL d   1     -45.564  12.500  22.670  0.00  0.00    -0.183 NA
ATOM     11  C   UNL d   1     -45.006  12.929  22.229  0.00  0.00     0.287 C 
ATOM     12  O   UNL d   1     -45.195  13.687  21.945  0.00  0.00    -0.265 OA
BRANCH  11  13
ATOM     13  C   UNL d   1     -44.265  12.610  22.070  0.00  0.00     0.098 C 
BRANCH  13  14
ATOM     14  S   UNL d   1     -43.744  12.992  21.546  0.00  0.00    -0.076 SA
BRANCH  14  15
ATOM     15  C   UNL d   1     -42.930  12.847  21.593  0.00  0.00     0.098 C 
BRANCH  15  16
ATOM     16  C   UNL d   1     -42.399  13.299  21.151  0.00  0.00     0.286 C 
ATOM     17  N   UNL d   1     -41.805  13.728  21.531  0.00  0.00    -0.208 NA
ATOM     18  O   UNL d   1     -42.468  13.319  20.322  0.00  0.00    -0.265 OA
BRANCH  17  19
ATOM     19  C   UNL d   1     -41.273  14.181  21.081  0.00  0.00     0.085 A 
ATOM     20  C   UNL d   1     -40.652  13.813  20.692  0.00  0.00     0.019 A 
ATOM     21  C   UNL d   1     -40.128  14.265  20.247  0.00  0.00     0.002 A 
ATOM     22  C   UNL d   1     -40.230  15.090  20.194  0.00  0.00     0.000 A 
ATOM     23  C   UNL d   1     -40.861  15.448  20.592  0.00  0.00     0.002 A 
ATOM     24  C   UNL d   1     -41.386  14.997  21.037  0.00  0.00     0.019 A 
ENDBRANCH  17  19
ENDBRANCH  15  16
ENDBRANCH  14  15
ENDBRANCH  13  14
ENDBRANCH  11  13
ENDBRANCH   1  10
BRANCH   2  25
ATOM     25  C   UNL d   1     -47.115  12.127  23.491  0.00  0.00     0.108 C 
BRANCH  25  26
ATOM     26  C   UNL d   1     -47.492  11.504  23.110  0.00  0.00     0.135 C 
BRANCH  26  27
ATOM     27  O   UNL d   1     -47.748  10.851  23.549  0.00  0.00    -0.325 OA
ATOM     28  C   UNL d   1     -48.551  10.734  23.697  0.00  0.00     0.182 C 
ENDBRANCH  26  27
ENDBRANCH  25  26
ENDBRANCH   2  25
BRANCH   8  29
ATOM     29  O   UNL d   1     -48.570  15.617  22.450  0.00  0.00    -0.328 OA
ATOM     30  C   UNL d   1     -49.334  15.755  22.712  0.00  0.00     0.181 C 
ENDBRANCH   8  29
TORSDOF 10
ENDMDL
MODEL 5
REMARK VINA RESULT:      -2.3      2.062      7.372
REMARK  10 active torsions:
REMARK  status: ('A' for Active; 'I' for Inactive)
REMARK    1  A    between atoms: N_3  and  C_1 
REMARK    2  A    between atoms: C_16  and  N_2 
REMARK       I    between atoms: C_7  and  N_3 
REMARK    3  A    between atoms: C_18  and  C_7 
REMARK    4  A    between atoms: C_10  and  C_20 
REMARK       I    between atoms: N_11  and  C_10 
REMARK    5  A    between atoms: C_19  and  N_11 
REMARK    6  A    between atoms: S_14  and  C_18 
REMARK    7  A    between atoms: C_20  and  S_14 
REMARK    8  A    between atoms: O_21  and  C_15 
REMARK    9  A    between atoms: C_23  and  C_16 
REMARK   10  A    between atoms: O_22  and  C_23 
ROOT
ATOM      1  C   UNL d   1     -46.643  12.984  23.032  0.00  0.00     0.182 A 
ATOM      2  N   UNL d   1     -47.308  13.479  23.088  0.00  0.00    -0.283 N 
ATOM      3  S   UNL d   1     -46.898  12.201  23.155  0.00  0.00    -0.048 SA
ATOM      4  C   UNL d   1     -47.720  12.218  23.286  0.00  0.00     0.050 A 
ATOM      5  C   UNL d   1     -47.973  13.006  23.245  0.00  0.00     0.072 A 
ATOM      6  C   UNL d   1     -48.263  11.607  23.437  0.00  0.00     0.032 A 
ATOM      7  C   UNL d   1     -48.768  13.184  23.355  0.00  0.00     0.020 A 
ATOM      8  C   UNL d   1     -49.057  11.803  23.546  0.00  0.00     0.095 A 
ATOM      9  C   UNL d   1     -49.309  12.592  23.504  0.00  0.00     0.026 A 
ENDROOT
BRANCH   1  10
ATOM     10  N   UNL d   1     -45.865  13.226  22.881  0.00  0.00    -0.183 NA
ATOM     11  C   UNL d   1     -45.454  12.525  22.707  0.00  0.00     0.287 C 
ATOM     12  O   UNL d   1     -45.855  11.796  22.716  0.00  0.00    -0.265 OA
BRANCH  11  13
ATOM     13  C   UNL d   1     -44.653  12.544  22.525  0.00  0.00     0.098 C 
BRANCH  13  14
ATOM     14  S   UNL d   1     -44.382  12.945  21.848  0.00  0.00    -0.076 SA
BRANCH  14  15
ATOM     15  C   UNL d   1     -43.677  12.711  21.482  0.00  0.00     0.098 C 
BRANCH  15  16
ATOM     16  C   UNL d   1     -43.089  13.266  21.317  0.00  0.00     0.286 C 
ATOM     17  N   UNL d   1     -42.358  13.017  21.023  0.00  0.00    -0.208 NA
ATOM     18  O   UNL d   1     -43.237  14.073  21.449  0.00  0.00    -0.265 OA
BRANCH  17  19
ATOM     19  C   UNL d   1     -41.769  13.581  20.858  0.00  0.00     0.085 A 
ATOM     20  C   UNL d   1     -41.303  13.870  21.466  0.00  0.00     0.019 A 
ATOM     21  C   UNL d   1     -40.720  14.428  21.300  0.00  0.00     0.002 A 
ATOM     22  C   UNL d   1     -40.609  14.693  20.519  0.00  0.00     0.000 A 
ATOM     23  C   UNL d   1     -41.087  14.391  19.914  0.00  0.00     0.002 A 
ATOM     24  C   UNL d   1     -41.670  13.834  20.080  0.00  0.00     0.019 A 
ENDBRANCH  17  19
ENDBRANCH  15  16
ENDBRANCH  14  15
ENDBRANCH  13  14
ENDBRANCH  11  13
ENDBRANCH   1  10
BRANCH   2  25
ATOM     25  C   UNL d   1     -47.301  14.295  23.002  0.00  0.00     0.108 C 
BRANCH  25  26
ATOM     26  C   UNL d   1     -47.723  14.658  22.397  0.00  0.00     0.135 C 
BRANCH  26  27
ATOM     27  O   UNL d   1     -47.829  15.479  22.409  0.00  0.00    -0.325 OA
ATOM     28  C   UNL d   1     -48.275  15.852  21.825  0.00  0.00     0.182 C 
ENDBRANCH  26  27
ENDBRANCH  25  26
ENDBRANCH   2  25
BRANCH   8  29
ATOM     29  O   UNL d   1     -49.611  11.202  23.698  0.00  0.00    -0.328 OA
ATOM     30  C   UNL d   1     -50.414  11.360  23.646  0.00  0.00     0.181 C 
ENDBRANCH   8  29
TORSDOF 10
ENDMDL
