MODEL 1
REMARK VINA RESULT:      -2.6      0.000      0.000
REMARK  3 active torsions:
REMARK  status: ('A' for Active; 'I' for Inactive)
REMARK    1  A    between atoms: N_7  and  C_3 
REMARK       I    between atoms: C_8  and  N_7 
REMARK    2  A    between atoms: C_14  and  C_8 
REMARK    3  A    between atoms: C_15  and  C_14 
ROOT
ATOM      1  C   UNL d   1      29.213  16.728 -24.106  0.00  0.00     0.343 A 
ATOM      2  N   UNL d   1      29.741  17.158 -24.558  0.00  0.00    -0.241 N 
ATOM      3  C   UNL d   1      30.549  17.026 -24.487  0.00  0.00     0.159 A 
ATOM      4  N   UNL d   1      29.490  16.160 -23.576  0.00  0.00    -0.224 N 
ATOM      5  C   UNL d   1      30.827  16.458 -23.957  0.00  0.00     0.099 A 
ATOM      6  C   UNL d   1      30.299  16.015 -23.493  0.00  0.00     0.271 A 
ATOM      7  O   UNL d   1      28.401  16.862 -24.178  0.00  0.00    -0.245 OA
ATOM      8  O   UNL d   1      30.574  15.452 -22.969  0.00  0.00    -0.266 OA
ATOM      9  C   UNL d   1      29.463  17.726 -25.087  0.00  0.00     0.105 C 
ATOM     10  C   UNL d   1      28.956  15.725 -23.119  0.00  0.00     0.107 C 
ENDROOT
BRANCH   3  11
ATOM     11  N   UNL d   1      31.084  17.461 -24.943  0.00  0.00    -0.190 NA
ATOM     12  C   UNL d   1      31.692  17.879 -24.579  0.00  0.00     0.281 C 
ATOM     13  O   UNL d   1      31.768  17.866 -23.758  0.00  0.00    -0.265 OA
BRANCH  12  14
ATOM     14  C   UNL d   1      32.224  18.311 -25.036  0.00  0.00     0.063 C 
BRANCH  14  15
ATOM     15  C   UNL d   1      32.744  18.836 -24.669  0.00  0.00     0.005 C 
ATOM     16  C   UNL d   1      33.168  19.375 -25.096  0.00  0.00     0.000 C 
ENDBRANCH  14  15
ENDBRANCH  12  14
ENDBRANCH   3  11
TORSDOF 3
ENDMDL
MODEL 2
REMARK VINA RESULT:      -2.3      4.462      5.982
REMARK  3 active torsions:
REMARK  status: ('A' for Active; 'I' for Inactive)
REMARK    1  A    between atoms: N_7  and  C_3 
REMARK       I    between atoms: C_8  and  N_7 
REMARK    2  A    between atoms: C_14  and  C_8 
REMARK    3  A    between atoms: C_15  and  C_14 
ROOT
ATOM      1  C   UNL d   1      32.332  22.406 -21.038  0.00  0.00     0.343 A 
ATOM      2  N   UNL d   1      32.475  21.601 -21.027  0.00  0.00    -0.241 N 
ATOM      3  C   UNL d   1      32.873  21.242 -21.649  0.00  0.00     0.159 A 
ATOM      4  N   UNL d   1      32.587  22.860 -21.678  0.00  0.00    -0.224 N 
ATOM      5  C   UNL d   1      33.128  21.697 -22.289  0.00  0.00     0.099 A 
ATOM      6  C   UNL d   1      32.988  22.515 -22.312  0.00  0.00     0.271 A 
ATOM      7  O   UNL d   1      31.932  22.765 -20.411  0.00  0.00    -0.245 OA
ATOM      8  O   UNL d   1      33.241  22.965 -22.945  0.00  0.00    -0.266 OA
ATOM      9  C   UNL d   1      32.220  21.147 -20.387  0.00  0.00     0.105 C 
ATOM     10  C   UNL d   1      32.442  23.674 -21.690  0.00  0.00     0.107 C 
ENDROOT
BRANCH   3  11
ATOM     11  N   UNL d   1      33.019  20.428 -21.638  0.00  0.00    -0.190 NA
ATOM     12  C   UNL d   1      33.096  20.014 -22.345  0.00  0.00     0.281 C 
ATOM     13  O   UNL d   1      33.028  20.410 -23.066  0.00  0.00    -0.265 OA
BRANCH  12  14
ATOM     14  C   UNL d   1      33.241  19.204 -22.332  0.00  0.00     0.063 C 
BRANCH  14  15
ATOM     15  C   UNL d   1      33.057  18.746 -22.993  0.00  0.00     0.005 C 
ATOM     16  C   UNL d   1      33.191  17.949 -23.002  0.00  0.00     0.000 C 
ENDBRANCH  14  15
ENDBRANCH  12  14
ENDBRANCH   3  11
TORSDOF 3
ENDMDL
MODEL 3
REMARK VINA RESULT:      -2.1      3.975      5.297
REMARK  3 active torsions:
REMARK  status: ('A' for Active; 'I' for Inactive)
REMARK    1  A    between atoms: N_7  and  C_3 
REMARK       I    between atoms: C_8  and  N_7 
REMARK    2  A    between atoms: C_14  and  C_8 
REMARK    3  A    between atoms: C_15  and  C_14 
ROOT
ATOM      1  C   UNL d   1      33.240  20.103 -23.555  0.00  0.00     0.343 A 
ATOM      2  N   UNL d   1      33.240  20.831 -23.184  0.00  0.00    -0.241 N 
ATOM      3  C   UNL d   1      33.240  20.877 -22.364  0.00  0.00     0.159 A 
ATOM      4  N   UNL d   1      33.240  19.411 -23.105  0.00  0.00    -0.224 N 
ATOM      5  C   UNL d   1      33.240  20.186 -21.914  0.00  0.00     0.099 A 
ATOM      6  C   UNL d   1      33.240  19.441 -22.280  0.00  0.00     0.271 A 
ATOM      7  O   UNL d   1      33.239  20.058 -24.380  0.00  0.00    -0.245 OA
ATOM      8  O   UNL d   1      33.241  18.756 -21.835  0.00  0.00    -0.266 OA
ATOM      9  C   UNL d   1      33.240  21.522 -23.634  0.00  0.00     0.105 C 
ATOM     10  C   UNL d   1      33.240  18.675 -23.480  0.00  0.00     0.107 C 
ENDROOT
BRANCH   3  11
ATOM     11  N   UNL d   1      33.240  21.614 -21.987  0.00  0.00    -0.190 NA
ATOM     12  C   UNL d   1      32.675  21.784 -21.415  0.00  0.00     0.281 C 
ATOM     13  O   UNL d   1      32.106  21.220 -21.215  0.00  0.00    -0.265 OA
BRANCH  12  14
ATOM     14  C   UNL d   1      32.677  22.518 -21.041  0.00  0.00     0.063 C 
BRANCH  14  15
ATOM     15  C   UNL d   1      32.492  22.567 -20.238  0.00  0.00     0.005 C 
ATOM     16  C   UNL d   1      32.400  23.281 -19.872  0.00  0.00     0.000 C 
ENDBRANCH  14  15
ENDBRANCH  12  14
ENDBRANCH   3  11
TORSDOF 3
ENDMDL
MODEL 4
REMARK VINA RESULT:      -2.0      6.622      7.820
REMARK  3 active torsions:
REMARK  status: ('A' for Active; 'I' for Inactive)
REMARK    1  A    between atoms: N_7  and  C_3 
REMARK       I    between atoms: C_8  and  N_7 
REMARK    2  A    between atoms: C_14  and  C_8 
REMARK    3  A    between atoms: C_15  and  C_14 
ROOT
ATOM      1  C   UNL d   1      32.928  21.622 -21.005  0.00  0.00     0.343 A 
ATOM      2  N   UNL d   1      33.082  21.843 -20.234  0.00  0.00    -0.241 N 
ATOM      3  C   UNL d   1      33.084  22.636 -20.022  0.00  0.00     0.159 A 
ATOM      4  N   UNL d   1      32.772  22.199 -21.575  0.00  0.00    -0.224 N 
ATOM      5  C   UNL d   1      32.928  23.213 -20.591  0.00  0.00     0.099 A 
ATOM      6  C   UNL d   1      32.770  23.001 -21.378  0.00  0.00     0.271 A 
ATOM      7  O   UNL d   1      32.927  20.824 -21.216  0.00  0.00    -0.245 OA
ATOM      8  O   UNL d   1      32.616  23.571 -21.942  0.00  0.00    -0.266 OA
ATOM      9  C   UNL d   1      33.238  21.266 -19.664  0.00  0.00     0.105 C 
ATOM     10  C   UNL d   1      32.616  21.976 -22.355  0.00  0.00     0.107 C 
ENDROOT
BRANCH   3  11
ATOM     11  N   UNL d   1      33.240  22.860 -19.241  0.00  0.00    -0.190 NA
ATOM     12  C   UNL d   1      32.726  23.367 -18.847  0.00  0.00     0.281 C 
ATOM     13  O   UNL d   1      32.053  23.652 -19.229  0.00  0.00    -0.265 OA
BRANCH  12  14
ATOM     14  C   UNL d   1      32.883  23.588 -18.070  0.00  0.00     0.063 C 
BRANCH  14  15
ATOM     15  C   UNL d   1      32.259  23.687 -17.539  0.00  0.00     0.005 C 
ATOM     16  C   UNL d   1      32.365  23.595 -16.744  0.00  0.00     0.000 C 
ENDBRANCH  14  15
ENDBRANCH  12  14
ENDBRANCH   3  11
TORSDOF 3
ENDMDL
MODEL 5
REMARK VINA RESULT:      -2.0      1.704      1.913
REMARK  3 active torsions:
REMARK  status: ('A' for Active; 'I' for Inactive)
REMARK    1  A    between atoms: N_7  and  C_3 
REMARK       I    between atoms: C_8  and  N_7 
REMARK    2  A    between atoms: C_14  and  C_8 
REMARK    3  A    between atoms: C_15  and  C_14 
ROOT
ATOM      1  C   UNL d   1      28.834  17.413 -24.192  0.00  0.00     0.343 A 
ATOM      2  N   UNL d   1      29.515  17.259 -24.616  0.00  0.00    -0.241 N 
ATOM      3  C   UNL d   1      29.846  16.507 -24.609  0.00  0.00     0.159 A 
ATOM      4  N   UNL d   1      28.476  16.812 -23.754  0.00  0.00    -0.224 N 
ATOM      5  C   UNL d   1      29.489  15.906 -24.171  0.00  0.00     0.099 A 
ATOM      6  C   UNL d   1      28.797  16.051 -23.736  0.00  0.00     0.271 A 
ATOM      7  O   UNL d   1      28.502  18.170 -24.201  0.00  0.00    -0.245 OA
ATOM      8  O   UNL d   1      28.442  15.456 -23.303  0.00  0.00    -0.266 OA
ATOM      9  C   UNL d   1      29.873  17.860 -25.054  0.00  0.00     0.105 C 
ATOM     10  C   UNL d   1      27.787  16.968 -23.325  0.00  0.00     0.107 C 
ENDROOT
BRANCH   3  11
ATOM     11  N   UNL d   1      30.536  16.350 -25.038  0.00  0.00    -0.190 NA
ATOM     12  C   UNL d   1      31.186  16.012 -24.664  0.00  0.00     0.281 C 
ATOM     13  O   UNL d   1      31.151  15.828 -23.860  0.00  0.00    -0.265 OA
BRANCH  12  14
ATOM     14  C   UNL d   1      31.871  15.856 -25.092  0.00  0.00     0.063 C 
BRANCH  14  15
ATOM     15  C   UNL d   1      32.561  15.640 -24.694  0.00  0.00     0.005 C 
ATOM     16  C   UNL d   1      33.236  15.453 -25.097  0.00  0.00     0.000 C 
ENDBRANCH  14  15
ENDBRANCH  12  14
ENDBRANCH   3  11
TORSDOF 3
ENDMDL
MODEL 6
REMARK VINA RESULT:      -1.9      3.674      5.394
REMARK  3 active torsions:
REMARK  status: ('A' for Active; 'I' for Inactive)
REMARK    1  A    between atoms: N_7  and  C_3 
REMARK       I    between atoms: C_8  and  N_7 
REMARK    2  A    between atoms: C_14  and  C_8 
REMARK    3  A    between atoms: C_15  and  C_14 
ROOT
ATOM      1  C   UNL d   1      33.216  21.212 -21.197  0.00  0.00     0.343 A 
ATOM      2  N   UNL d   1      33.223  20.406 -21.335  0.00  0.00    -0.241 N 
ATOM      3  C   UNL d   1      33.234  20.118 -22.104  0.00  0.00     0.159 A 
ATOM      4  N   UNL d   1      33.219  21.738 -21.832  0.00  0.00    -0.224 N 
ATOM      5  C   UNL d   1      33.237  20.645 -22.739  0.00  0.00     0.099 A 
ATOM      6  C   UNL d   1      33.230  21.465 -22.611  0.00  0.00     0.271 A 
ATOM      7  O   UNL d   1      33.205  21.500 -20.423  0.00  0.00    -0.245 OA
ATOM      8  O   UNL d   1      33.233  21.986 -23.240  0.00  0.00    -0.266 OA
ATOM      9  C   UNL d   1      33.220  19.880 -20.700  0.00  0.00     0.105 C 
ATOM     10  C   UNL d   1      33.212  22.553 -21.693  0.00  0.00     0.107 C 
ENDROOT
BRANCH   3  11
ATOM     11  N   UNL d   1      33.241  19.303 -22.245  0.00  0.00    -0.190 NA
ATOM     12  C   UNL d   1      32.852  18.995 -22.901  0.00  0.00     0.281 C 
ATOM     13  O   UNL d   1      32.454  19.498 -23.419  0.00  0.00    -0.265 OA
BRANCH  12  14
ATOM     14  C   UNL d   1      32.860  18.183 -23.039  0.00  0.00     0.063 C 
BRANCH  14  15
ATOM     15  C   UNL d   1      32.228  17.830 -23.433  0.00  0.00     0.005 C 
ATOM     16  C   UNL d   1      32.171  17.027 -23.501  0.00  0.00     0.000 C 
ENDBRANCH  14  15
ENDBRANCH  12  14
ENDBRANCH   3  11
TORSDOF 3
ENDMDL
MODEL 7
REMARK VINA RESULT:      -1.6      2.463      4.125
REMARK  3 active torsions:
REMARK  status: ('A' for Active; 'I' for Inactive)
REMARK    1  A    between atoms: N_7  and  C_3 
REMARK       I    between atoms: C_8  and  N_7 
REMARK    2  A    between atoms: C_14  and  C_8 
REMARK    3  A    between atoms: C_15  and  C_14 
ROOT
ATOM      1  C   UNL d   1      33.237  19.765 -23.510  0.00  0.00     0.343 A 
ATOM      2  N   UNL d   1      33.238  19.029 -23.865  0.00  0.00    -0.241 N 
ATOM      3  C   UNL d   1      33.238  18.348 -23.405  0.00  0.00     0.159 A 
ATOM      4  N   UNL d   1      33.235  19.826 -22.688  0.00  0.00    -0.224 N 
ATOM      5  C   UNL d   1      33.236  18.409 -22.583  0.00  0.00     0.099 A 
ATOM      6  C   UNL d   1      33.235  19.151 -22.212  0.00  0.00     0.271 A 
ATOM      7  O   UNL d   1      33.237  20.449 -23.974  0.00  0.00    -0.245 OA
ATOM      8  O   UNL d   1      33.233  19.212 -21.397  0.00  0.00    -0.266 OA
ATOM      9  C   UNL d   1      33.240  18.968 -24.688  0.00  0.00     0.105 C 
ATOM     10  C   UNL d   1      33.233  20.570 -22.329  0.00  0.00     0.107 C 
ENDROOT
BRANCH   3  11
ATOM     11  N   UNL d   1      33.240  17.602 -23.763  0.00  0.00    -0.190 NA
ATOM     12  C   UNL d   1      32.633  17.069 -23.608  0.00  0.00     0.281 C 
ATOM     13  O   UNL d   1      32.022  17.277 -23.094  0.00  0.00    -0.265 OA
BRANCH  12  14
ATOM     14  C   UNL d   1      32.636  16.327 -23.965  0.00  0.00     0.063 C 
BRANCH  14  15
ATOM     15  C   UNL d   1      31.938  15.890 -24.003  0.00  0.00     0.005 C 
ATOM     16  C   UNL d   1      31.748  15.459 -24.660  0.00  0.00     0.000 C 
ENDBRANCH  14  15
ENDBRANCH  12  14
ENDBRANCH   3  11
TORSDOF 3
ENDMDL
MODEL 8
REMARK VINA RESULT:      -1.6      2.443      3.582
REMARK  3 active torsions:
REMARK  status: ('A' for Active; 'I' for Inactive)
REMARK    1  A    between atoms: N_7  and  C_3 
REMARK       I    between atoms: C_8  and  N_7 
REMARK    2  A    between atoms: C_14  and  C_8 
REMARK    3  A    between atoms: C_15  and  C_14 
ROOT
ATOM      1  C   UNL d   1      32.401  17.192 -23.716  0.00  0.00     0.343 A 
ATOM      2  N   UNL d   1      32.776  17.602 -23.116  0.00  0.00    -0.241 N 
ATOM      3  C   UNL d   1      32.862  18.417 -23.162  0.00  0.00     0.159 A 
ATOM      4  N   UNL d   1      32.108  17.599 -24.371  0.00  0.00    -0.224 N 
ATOM      5  C   UNL d   1      32.569  18.824 -23.818  0.00  0.00     0.099 A 
ATOM      6  C   UNL d   1      32.187  18.419 -24.433  0.00  0.00     0.271 A 
ATOM      7  O   UNL d   1      32.315  16.372 -23.668  0.00  0.00    -0.245 OA
ATOM      8  O   UNL d   1      31.896  18.821 -25.082  0.00  0.00    -0.266 OA
ATOM      9  C   UNL d   1      33.069  17.195 -22.461  0.00  0.00     0.105 C 
ATOM     10  C   UNL d   1      31.729  17.185 -24.978  0.00  0.00     0.107 C 
ENDROOT
BRANCH   3  11
ATOM     11  N   UNL d   1      33.241  18.833 -22.556  0.00  0.00    -0.190 NA
ATOM     12  C   UNL d   1      32.858  19.457 -22.183  0.00  0.00     0.281 C 
ATOM     13  O   UNL d   1      32.095  19.671 -22.413  0.00  0.00    -0.265 OA
BRANCH  12  14
ATOM     14  C   UNL d   1      33.237  19.870 -21.579  0.00  0.00     0.063 C 
BRANCH  14  15
ATOM     15  C   UNL d   1      32.949  20.607 -21.345  0.00  0.00     0.005 C 
ATOM     16  C   UNL d   1      33.168  20.939 -20.642  0.00  0.00     0.000 C 
ENDBRANCH  14  15
ENDBRANCH  12  14
ENDBRANCH   3  11
TORSDOF 3
ENDMDL
