MODEL 1
REMARK VINA RESULT:      -8.9      0.000      0.000
REMARK  1 active torsions:
REMARK  status: ('A' for Active; 'I' for Inactive)
REMARK    1  A    between atoms: C_7  and  C_1 
ROOT
ATOM      1  C   UNL d   1      52.989  31.833  53.261  0.00  0.00     0.122 A 
ATOM      2  C   UNL d   1      52.669  32.557  52.989  0.00  0.00     0.285 A 
ATOM      3  C   UNL d   1      53.528  31.847  53.882  0.00  0.00     0.012 A 
ATOM      4  N   UNL d   1      52.884  33.274  53.335  0.00  0.00    -0.208 NA
ATOM      5  C   UNL d   1      53.430  33.274  53.962  0.00  0.00     0.085 A 
ATOM      6  C   UNL d   1      53.754  32.562  54.239  0.00  0.00     0.018 A 
ATOM      7  O   UNL d   1      52.127  32.551  52.365  0.00  0.00    -0.265 OA
ATOM      8  C   UNL d   1      53.649  33.987  54.311  0.00  0.00     0.019 A 
ATOM      9  C   UNL d   1      54.290  32.560  54.857  0.00  0.00     0.002 A 
ATOM     10  C   UNL d   1      54.509  33.278  55.205  0.00  0.00     0.000 A 
ATOM     11  C   UNL d   1      54.190  33.983  54.934  0.00  0.00     0.002 A 
ENDROOT
BRANCH   1  12
ATOM     12  C   UNL d   1      52.772  31.126  52.915  0.00  0.00     0.216 C 
ATOM     13  O   UNL d   1      52.161  30.670  53.260  0.00  0.00    -0.644 OA
ATOM     14  O   UNL d   1      53.148  30.860  52.233  0.00  0.00    -0.644 OA
ENDBRANCH   1  12
TORSDOF 1
ENDMDL
MODEL 2
REMARK VINA RESULT:      -8.8      2.097      2.989
REMARK  1 active torsions:
REMARK  status: ('A' for Active; 'I' for Inactive)
REMARK    1  A    between atoms: C_7  and  C_1 
ROOT
ATOM      1  C   UNL d   1      54.345  33.512  54.756  0.00  0.00     0.122 A 
ATOM      2  C   UNL d   1      53.712  34.029  54.574  0.00  0.00     0.285 A 
ATOM      3  C   UNL d   1      54.343  32.756  54.433  0.00  0.00     0.012 A 
ATOM      4  N   UNL d   1      53.097  33.791  54.081  0.00  0.00    -0.208 NA
ATOM      5  C   UNL d   1      53.108  33.023  53.761  0.00  0.00     0.085 A 
ATOM      6  C   UNL d   1      53.729  32.503  53.934  0.00  0.00     0.018 A 
ATOM      7  O   UNL d   1      53.707  34.791  54.896  0.00  0.00    -0.265 OA
ATOM      8  C   UNL d   1      52.495  32.780  53.267  0.00  0.00     0.019 A 
ATOM      9  C   UNL d   1      53.742  31.748  53.621  0.00  0.00     0.002 A 
ATOM     10  C   UNL d   1      53.126  31.506  53.125  0.00  0.00     0.000 A 
ATOM     11  C   UNL d   1      52.509  32.018  52.951  0.00  0.00     0.002 A 
ENDROOT
BRANCH   1  12
ATOM     12  C   UNL d   1      54.952  33.754  55.246  0.00  0.00     0.216 C 
ATOM     13  O   UNL d   1      55.625  34.125  54.915  0.00  0.00    -0.644 OA
ATOM     14  O   UNL d   1      54.907  33.635  56.059  0.00  0.00    -0.644 OA
ENDBRANCH   1  12
TORSDOF 1
ENDMDL
MODEL 3
REMARK VINA RESULT:      -8.8      0.976      1.882
REMARK  1 active torsions:
REMARK  status: ('A' for Active; 'I' for Inactive)
REMARK    1  A    between atoms: C_7  and  C_1 
ROOT
ATOM      1  C   UNL d   1      52.257  33.390  53.294  0.00  0.00     0.122 A 
ATOM      2  C   UNL d   1      52.683  32.727  53.010  0.00  0.00     0.285 A 
ATOM      3  C   UNL d   1      52.590  33.847  53.891  0.00  0.00     0.012 A 
ATOM      4  N   UNL d   1      53.421  32.532  53.318  0.00  0.00    -0.208 NA
ATOM      5  C   UNL d   1      53.746  33.002  53.922  0.00  0.00     0.085 A 
ATOM      6  C   UNL d   1      53.334  33.661  54.211  0.00  0.00     0.018 A 
ATOM      7  O   UNL d   1      52.354  32.263  52.410  0.00  0.00    -0.265 OA
ATOM      8  C   UNL d   1      54.485  32.812  54.234  0.00  0.00     0.019 A 
ATOM      9  C   UNL d   1      53.652  34.125  54.805  0.00  0.00     0.002 A 
ATOM     10  C   UNL d   1      54.393  33.931  55.116  0.00  0.00     0.000 A 
ATOM     11  C   UNL d   1      54.804  33.281  54.832  0.00  0.00     0.002 A 
ENDROOT
BRANCH   1  12
ATOM     12  C   UNL d   1      51.526  33.579  52.985  0.00  0.00     0.216 C 
ATOM     13  O   UNL d   1      51.477  34.098  52.331  0.00  0.00    -0.644 OA
ATOM     14  O   UNL d   1      50.839  33.264  53.312  0.00  0.00    -0.644 OA
ENDBRANCH   1  12
TORSDOF 1
ENDMDL
MODEL 4
REMARK VINA RESULT:      -8.6      1.868      2.772
REMARK  1 active torsions:
REMARK  status: ('A' for Active; 'I' for Inactive)
REMARK    1  A    between atoms: C_7  and  C_1 
ROOT
ATOM      1  C   UNL d   1      53.782  33.127  54.303  0.00  0.00     0.122 A 
ATOM      2  C   UNL d   1      53.590  32.475  53.814  0.00  0.00     0.285 A 
ATOM      3  C   UNL d   1      53.353  33.823  54.221  0.00  0.00     0.012 A 
ATOM      4  N   UNL d   1      52.984  32.525  53.258  0.00  0.00    -0.208 NA
ATOM      5  C   UNL d   1      52.558  33.236  53.186  0.00  0.00     0.085 A 
ATOM      6  C   UNL d   1      52.739  33.887  53.665  0.00  0.00     0.018 A 
ATOM      7  O   UNL d   1      54.017  31.772  53.891  0.00  0.00    -0.265 OA
ATOM      8  C   UNL d   1      51.950  33.291  52.631  0.00  0.00     0.019 A 
ATOM      9  C   UNL d   1      52.322  34.587  53.595  0.00  0.00     0.002 A 
ATOM     10  C   UNL d   1      51.713  34.640  53.038  0.00  0.00     0.000 A 
ATOM     11  C   UNL d   1      51.530  33.998  52.562  0.00  0.00     0.002 A 
ENDROOT
BRANCH   1  12
ATOM     12  C   UNL d   1      54.384  33.072  54.852  0.00  0.00     0.216 C 
ATOM     13  O   UNL d   1      55.145  33.364  54.660  0.00  0.00    -0.644 OA
ATOM     14  O   UNL d   1      54.249  32.732  55.589  0.00  0.00    -0.644 OA
ENDBRANCH   1  12
TORSDOF 1
ENDMDL
MODEL 5
REMARK VINA RESULT:      -8.5      2.149      3.200
REMARK  1 active torsions:
REMARK  status: ('A' for Active; 'I' for Inactive)
REMARK    1  A    between atoms: C_7  and  C_1 
ROOT
ATOM      1  C   UNL d   1      53.528  34.106  54.501  0.00  0.00     0.122 A 
ATOM      2  C   UNL d   1      54.208  33.690  54.755  0.00  0.00     0.285 A 
ATOM      3  C   UNL d   1      52.996  33.727  54.001  0.00  0.00     0.012 A 
ATOM      4  N   UNL d   1      54.347  32.915  54.513  0.00  0.00    -0.208 NA
ATOM      5  C   UNL d   1      53.801  32.543  54.008  0.00  0.00     0.085 A 
ATOM      6  C   UNL d   1      53.125  32.946  53.749  0.00  0.00     0.018 A 
ATOM      7  O   UNL d   1      54.747  34.064  55.258  0.00  0.00    -0.265 OA
ATOM      8  C   UNL d   1      53.936  31.768  53.762  0.00  0.00     0.019 A 
ATOM      9  C   UNL d   1      52.586  32.582  53.252  0.00  0.00     0.002 A 
ATOM     10  C   UNL d   1      52.724  31.804  53.008  0.00  0.00     0.000 A 
ATOM     11  C   UNL d   1      53.392  31.403  53.261  0.00  0.00     0.002 A 
ENDROOT
BRANCH   1  12
ATOM     12  C   UNL d   1      53.395  34.874  54.744  0.00  0.00     0.216 C 
ATOM     13  O   UNL d   1      53.516  35.503  54.205  0.00  0.00    -0.644 OA
ATOM     14  O   UNL d   1      53.143  35.033  55.511  0.00  0.00    -0.644 OA
ENDBRANCH   1  12
TORSDOF 1
ENDMDL
MODEL 6
REMARK VINA RESULT:      -8.3      1.876      2.868
REMARK  1 active torsions:
REMARK  status: ('A' for Active; 'I' for Inactive)
REMARK    1  A    between atoms: C_7  and  C_1 
ROOT
ATOM      1  C   UNL d   1      53.089  34.313  54.176  0.00  0.00     0.122 A 
ATOM      2  C   UNL d   1      52.447  34.242  53.645  0.00  0.00     0.285 A 
ATOM      3  C   UNL d   1      53.571  33.659  54.304  0.00  0.00     0.012 A 
ATOM      4  N   UNL d   1      52.295  33.532  53.254  0.00  0.00    -0.208 NA
ATOM      5  C   UNL d   1      52.790  32.878  53.393  0.00  0.00     0.085 A 
ATOM      6  C   UNL d   1      53.429  32.938  53.917  0.00  0.00     0.018 A 
ATOM      7  O   UNL d   1      51.958  34.895  53.511  0.00  0.00    -0.265 OA
ATOM      8  C   UNL d   1      52.642  32.166  53.005  0.00  0.00     0.019 A 
ATOM      9  C   UNL d   1      53.917  32.296  54.055  0.00  0.00     0.002 A 
ATOM     10  C   UNL d   1      53.767  31.583  53.665  0.00  0.00     0.000 A 
ATOM     11  C   UNL d   1      53.136  31.520  53.145  0.00  0.00     0.002 A 
ENDROOT
BRANCH   1  12
ATOM     12  C   UNL d   1      53.235  35.018  54.560  0.00  0.00     0.216 C 
ATOM     13  O   UNL d   1      53.097  35.075  55.384  0.00  0.00    -0.644 OA
ATOM     14  O   UNL d   1      53.517  35.671  54.145  0.00  0.00    -0.644 OA
ENDBRANCH   1  12
TORSDOF 1
ENDMDL
