MODEL 1
REMARK VINA RESULT:      44.1      0.000      0.000
REMARK  8 active torsions:
REMARK  status: ('A' for Active; 'I' for Inactive)
REMARK    1  A    between atoms: C_3  and  C_1 
REMARK    2  A    between atoms: N_5  and  C_2 
REMARK    3  A    between atoms: N_4  and  C_3 
REMARK    4  A    between atoms: C_10  and  C_3 
REMARK    5  A    between atoms: C_13  and  N_4 
REMARK       I    between atoms: C_6  and  N_5 
REMARK    6  A    between atoms: C_8  and  C_13 
REMARK    7  A    between atoms: O_16  and  C_8 
REMARK    8  A    between atoms: C_21  and  O_16 
ROOT
ATOM      1  C   UNL d   1      46.185 -18.062  43.267  0.00  0.00     0.083 C 
ENDROOT
BRANCH   1   2
ATOM      2  C   UNL d   1      45.952 -18.808  43.531  0.00  0.00     0.036 A 
ATOM      3  C   UNL d   1      45.284 -19.167  43.238  0.00  0.00     0.086 A 
ATOM      4  C   UNL d   1      45.051 -19.913  43.502  0.00  0.00     0.020 A 
ATOM      5  C   UNL d   1      45.485 -20.300  44.059  0.00  0.00     0.008 A 
ATOM      6  C   UNL d   1      46.183 -19.938  44.373  0.00  0.00     0.035 A 
ATOM      7  C   UNL d   1      46.402 -19.192  44.098  0.00  0.00     0.010 A 
ATOM      8 BR   UNL d   1      46.646 -20.330  44.954  0.00  0.00    -0.049 Br
BRANCH   3   9
ATOM      9  N   UNL d   1      44.824 -18.766  42.654  0.00  0.00    -0.208 NA
ATOM     10  C   UNL d   1      44.335 -19.200  42.146  0.00  0.00     0.279 C 
ATOM     11  O   UNL d   1      43.897 -18.817  41.589  0.00  0.00    -0.265 OA
ATOM     12  C   UNL d   1      44.287 -20.014  42.198  0.00  0.00     0.068 C 
ENDBRANCH   3   9
ENDBRANCH   1   2
BRANCH   1  13
ATOM     13  N   UNL d   1      46.270 -17.437  43.784  0.00  0.00    -0.238 NA
BRANCH  13  14
ATOM     14  C   UNL d   1      45.586 -17.135  44.146  0.00  0.00     0.167 C 
BRANCH  14  15
ATOM     15  C   UNL d   1      45.543 -16.305  44.273  0.00  0.00     0.320 C 
ATOM     16  O   UNL d   1      45.114 -16.021  44.946  0.00  0.00    -0.257 OA
BRANCH  15  17
ATOM     17  O   UNL d   1      45.906 -15.771  43.760  0.00  0.00    -0.270 OA
BRANCH  17  18
ATOM     18  C   UNL d   1      45.585 -15.050  43.638  0.00  0.00     0.126 C 
ATOM     19  C   UNL d   1      45.881 -14.366  43.996  0.00  0.00     0.029 C 
ENDBRANCH  17  18
ENDBRANCH  15  17
ENDBRANCH  14  15
ENDBRANCH  13  14
ENDBRANCH   1  13
BRANCH   1  20
ATOM     20  C   UNL d   1      46.335 -17.943  42.469  0.00  0.00     0.018 A 
ATOM     21  C   UNL d   1      46.367 -18.580  41.945  0.00  0.00     0.002 A 
ATOM     22  C   UNL d   1      46.515 -18.482  41.149  0.00  0.00     0.000 A 
ATOM     23  C   UNL d   1      46.640 -17.686  40.860  0.00  0.00     0.000 A 
ATOM     24  C   UNL d   1      46.610 -17.045  41.379  0.00  0.00     0.000 A 
ATOM     25  C   UNL d   1      46.459 -17.171  42.180  0.00  0.00     0.002 A 
ENDBRANCH   1  20
TORSDOF 8
ENDMDL
MODEL 2
REMARK VINA RESULT:      44.8      5.146      6.640
REMARK  8 active torsions:
REMARK  status: ('A' for Active; 'I' for Inactive)
REMARK    1  A    between atoms: C_3  and  C_1 
REMARK    2  A    between atoms: N_5  and  C_2 
REMARK    3  A    between atoms: N_4  and  C_3 
REMARK    4  A    between atoms: C_10  and  C_3 
REMARK    5  A    between atoms: C_13  and  N_4 
REMARK       I    between atoms: C_6  and  N_5 
REMARK    6  A    between atoms: C_8  and  C_13 
REMARK    7  A    between atoms: O_16  and  C_8 
REMARK    8  A    between atoms: C_21  and  O_16 
ROOT
ATOM      1  C   UNL d   1      44.597 -15.508  37.753  0.00  0.00     0.083 C 
ENDROOT
BRANCH   1   2
ATOM      2  C   UNL d   1      43.956 -14.994  37.820  0.00  0.00     0.036 A 
ATOM      3  C   UNL d   1      43.230 -15.186  37.508  0.00  0.00     0.086 A 
ATOM      4  C   UNL d   1      42.588 -14.672  37.574  0.00  0.00     0.020 A 
ATOM      5  C   UNL d   1      42.672 -13.966  37.952  0.00  0.00     0.008 A 
ATOM      6  C   UNL d   1      43.422 -13.752  38.281  0.00  0.00     0.035 A 
ATOM      7  C   UNL d   1      44.053 -14.279  38.206  0.00  0.00     0.010 A 
ATOM      8 BR   UNL d   1      43.524 -13.019  38.677  0.00  0.00    -0.049 Br
BRANCH   3   9
ATOM      9  N   UNL d   1      43.136 -15.926  37.111  0.00  0.00    -0.208 NA
ATOM     10  C   UNL d   1      42.428 -16.093  36.715  0.00  0.00     0.279 C 
ATOM     11  O   UNL d   1      42.339 -16.799  36.336  0.00  0.00    -0.265 OA
ATOM     12  C   UNL d   1      41.814 -15.554  36.699  0.00  0.00     0.068 C 
ENDBRANCH   3   9
ENDBRANCH   1   2
BRANCH   1  13
ATOM     13  N   UNL d   1      44.577 -16.255  38.079  0.00  0.00    -0.238 NA
BRANCH  13  14
ATOM     14  C   UNL d   1      45.005 -16.386  38.779  0.00  0.00     0.167 C 
BRANCH  14  15
ATOM     15  C   UNL d   1      44.870 -17.106  39.193  0.00  0.00     0.320 C 
ATOM     16  O   UNL d   1      44.111 -17.233  39.547  0.00  0.00    -0.257 OA
BRANCH  15  17
ATOM     17  O   UNL d   1      45.457 -17.682  39.258  0.00  0.00    -0.270 OA
BRANCH  17  18
ATOM     18  C   UNL d   1      45.961 -17.672  39.878  0.00  0.00     0.126 C 
ATOM     19  C   UNL d   1      45.833 -18.122  40.560  0.00  0.00     0.029 C 
ENDBRANCH  17  18
ENDBRANCH  15  17
ENDBRANCH  14  15
ENDBRANCH  13  14
ENDBRANCH   1  13
BRANCH   1  20
ATOM     20  C   UNL d   1      45.271 -15.266  37.352  0.00  0.00     0.018 A 
ATOM     21  C   UNL d   1      45.591 -15.725  36.746  0.00  0.00     0.002 A 
ATOM     22  C   UNL d   1      46.260 -15.500  36.336  0.00  0.00     0.000 A 
ATOM     23  C   UNL d   1      46.632 -14.761  36.552  0.00  0.00     0.000 A 
ATOM     24  C   UNL d   1      46.317 -14.297  37.158  0.00  0.00     0.000 A 
ATOM     25  C   UNL d   1      45.640 -14.547  37.557  0.00  0.00     0.002 A 
ENDBRANCH   1  20
TORSDOF 8
ENDMDL
