MODEL 1
REMARK VINA RESULT:      60.1      0.000      0.000
REMARK  4 active torsions:
REMARK  status: ('A' for Active; 'I' for Inactive)
REMARK    1  A    between atoms: C_2  and  S_1 
REMARK    2  A    between atoms: N_7  and  S_1 
REMARK    3  A    between atoms: C_3  and  C_12 
REMARK    4  A    between atoms: C_15  and  N_7 
ROOT
ATOM      1  C   UNL d   1      13.588  14.713  -4.666  0.00  0.00     0.024 A 
ATOM      2  C   UNL d   1      13.354  13.213  -3.998  0.00  0.00     0.094 A 
ATOM      3  C   UNL d   1      13.870  14.035  -5.037  0.00  0.00     0.004 A 
ATOM      4  C   UNL d   1      13.181  14.643  -3.949  0.00  0.00     0.004 A 
ATOM      5  C   UNL d   1      13.755  13.296  -4.708  0.00  0.00     0.020 A 
ATOM      6  C   UNL d   1      13.063  13.903  -3.615  0.00  0.00     0.020 A 
ENDROOT
BRANCH   2   7
ATOM      7  N   UNL d   1      13.236  12.477  -3.666  0.00  0.00    -0.158 NA
BRANCH   7   8
ATOM      8  S   UNL d   1      13.499  12.326  -2.893  0.00  0.00     0.287 S 
ATOM      9  O   UNL d   1      14.108  12.872  -2.989  0.00  0.00    -0.198 OA
ATOM     10  O   UNL d   1      12.890  11.779  -2.796  0.00  0.00    -0.198 OA
BRANCH   8  11
ATOM     11  C   UNL d   1      13.763  12.180  -2.127  0.00  0.00     0.135 A 
ATOM     12  C   UNL d   1      13.267  12.279  -1.483  0.00  0.00     0.045 A 
ATOM     13  C   UNL d   1      13.532  12.133  -0.722  0.00  0.00     0.141 A 
ATOM     14  F   UNL d   1      13.029  12.235  -0.078  0.00  0.00    -0.204 F 
ATOM     15  C   UNL d   1      14.310  11.884  -0.603  0.00  0.00     0.032 A 
ATOM     16  C   UNL d   1      14.821  11.780  -1.244  0.00  0.00     0.033 A 
ATOM     17  C   UNL d   1      14.540  11.930  -2.008  0.00  0.00     0.152 A 
ATOM     18  F   UNL d   1      15.053  11.826  -2.654  0.00  0.00    -0.203 F 
ENDBRANCH   8  11
ENDBRANCH   7   8
ENDBRANCH   2   7
BRANCH   1  19
ATOM     19  C   UNL d   1      13.704  15.460  -4.998  0.00  0.00     0.112 A 
ATOM     20  S   UNL d   1      13.225  15.807  -5.566  0.00  0.00    -0.047 SA
ATOM     21  C   UNL d   1      13.543  16.563  -5.748  0.00  0.00     0.130 A 
ATOM     22  N   UNL d   1      13.303  17.153  -6.269  0.00  0.00    -0.236 NA
ATOM     23  C   UNL d   1      14.223  16.665  -5.278  0.00  0.00     0.106 A 
ATOM     24  C   UNL d   1      13.744  17.852  -6.321  0.00  0.00     0.100 A 
ATOM     25  C   UNL d   1      14.422  17.958  -5.856  0.00  0.00     0.022 A 
ATOM     26  C   UNL d   1      14.659  17.366  -5.337  0.00  0.00     0.023 A 
ATOM     27  N   UNL d   1      14.321  15.979  -4.813  0.00  0.00    -0.237 NA
ENDBRANCH   1  19
TORSDOF 4
ENDMDL
MODEL 2
REMARK VINA RESULT:      62.6      2.580      2.890
REMARK  4 active torsions:
REMARK  status: ('A' for Active; 'I' for Inactive)
REMARK    1  A    between atoms: C_2  and  S_1 
REMARK    2  A    between atoms: N_7  and  S_1 
REMARK    3  A    between atoms: C_3  and  C_12 
REMARK    4  A    between atoms: C_15  and  N_7 
ROOT
ATOM      1  C   UNL d   1      15.047  16.322  -2.285  0.00  0.00     0.024 A 
ATOM      2  C   UNL d   1      14.959  15.532  -0.829  0.00  0.00     0.094 A 
ATOM      3  C   UNL d   1      14.563  15.663  -2.188  0.00  0.00     0.004 A 
ATOM      4  C   UNL d   1      15.495  16.593  -1.644  0.00  0.00     0.004 A 
ATOM      5  C   UNL d   1      14.519  15.274  -1.471  0.00  0.00     0.020 A 
ATOM      6  C   UNL d   1      15.455  16.204  -0.922  0.00  0.00     0.020 A 
ENDROOT
BRANCH   2   7
ATOM      7  N   UNL d   1      14.918  15.146  -0.111  0.00  0.00    -0.158 NA
BRANCH   7   8
ATOM      8  S   UNL d   1      14.848  14.319  -0.090  0.00  0.00     0.287 S 
ATOM      9  O   UNL d   1      14.030  14.383  -0.166  0.00  0.00    -0.198 OA
ATOM     10  O   UNL d   1      15.665  14.254  -0.015  0.00  0.00    -0.198 OA
BRANCH   8  11
ATOM     11  C   UNL d   1      14.771  13.500  -0.070  0.00  0.00     0.135 A 
ATOM     12  C   UNL d   1      14.033  13.144  -0.054  0.00  0.00     0.045 A 
ATOM     13  C   UNL d   1      13.960  12.329  -0.035  0.00  0.00     0.141 A 
ATOM     14  F   UNL d   1      13.215  11.978  -0.019  0.00  0.00    -0.204 F 
ATOM     15  C   UNL d   1      14.638  11.859  -0.031  0.00  0.00     0.032 A 
ATOM     16  C   UNL d   1      15.389  12.204  -0.046  0.00  0.00     0.033 A 
ATOM     17  C   UNL d   1      15.449  13.030  -0.066  0.00  0.00     0.152 A 
ATOM     18  F   UNL d   1      16.204  13.379  -0.082  0.00  0.00    -0.203 F 
ENDBRANCH   8  11
ENDBRANCH   7   8
ENDBRANCH   2   7
BRANCH   1  19
ATOM     19  C   UNL d   1      15.091  16.715  -3.009  0.00  0.00     0.112 A 
ATOM     20  S   UNL d   1      14.618  17.345  -3.237  0.00  0.00    -0.047 SA
ATOM     21  C   UNL d   1      14.847  17.576  -4.011  0.00  0.00     0.130 A 
ATOM     22  N   UNL d   1      14.574  18.166  -4.517  0.00  0.00    -0.236 NA
ATOM     23  C   UNL d   1      15.468  17.073  -4.246  0.00  0.00     0.106 A 
ATOM     24  C   UNL d   1      14.923  18.254  -5.262  0.00  0.00     0.100 A 
ATOM     25  C   UNL d   1      15.541  17.756  -5.500  0.00  0.00     0.022 A 
ATOM     26  C   UNL d   1      15.811  17.168  -4.992  0.00  0.00     0.023 A 
ATOM     27  N   UNL d   1      15.618  16.539  -3.622  0.00  0.00    -0.237 NA
ENDBRANCH   1  19
TORSDOF 4
ENDMDL
