MODEL 1
REMARK VINA RESULT:      50.1      0.000      0.000
REMARK  2 active torsions:
REMARK  status: ('A' for Active; 'I' for Inactive)
REMARK    1  A    between atoms: N_2  and  C_1 
REMARK    2  A    between atoms: N_11  and  C_3 
ROOT
ATOM      1  C   UNL d   1      14.426  13.803  -2.184  0.00  0.00     0.142 A 
ATOM      2  C   UNL d   1      14.533  13.835  -1.367  0.00  0.00     0.124 A 
ATOM      3  C   UNL d   1      14.509  14.486  -2.632  0.00  0.00     0.215 A 
ATOM      4  C   UNL d   1      14.722  14.546  -0.996  0.00  0.00     0.213 A 
ATOM      5  C   UNL d   1      14.698  15.205  -2.271  0.00  0.00     0.044 A 
ATOM      6  C   UNL d   1      14.804  15.229  -1.449  0.00  0.00     0.044 A 
ATOM      7  O   UNL d   1      14.404  14.462  -3.450  0.00  0.00    -0.285 OA
ATOM      8  O   UNL d   1      14.829  14.578  -0.179  0.00  0.00    -0.285 OA
ATOM      9  C   UNL d   1      14.781  15.884  -2.714  0.00  0.00     0.003 A 
ATOM     10  C   UNL d   1      14.994  15.948  -1.083  0.00  0.00     0.003 A 
ATOM     11  C   UNL d   1      15.075  16.627  -1.539  0.00  0.00     0.000 A 
ATOM     12  C   UNL d   1      14.967  16.594  -2.360  0.00  0.00     0.000 A 
ENDROOT
BRANCH   1  13
ATOM     13  N   UNL d   1      14.239  13.092  -2.546  0.00  0.00    -0.206 N 
ATOM     14  N   UNL d   1      14.534  12.350  -2.338  0.00  0.00    -0.059 NA
ATOM     15  N   UNL d   1      14.197  11.791  -2.849  0.00  0.00    -0.129 NA
ATOM     16  C   UNL d   1      13.695  12.198  -3.368  0.00  0.00     0.122 A 
ATOM     17  C   UNL d   1      13.724  13.004  -3.177  0.00  0.00     0.104 A 
ATOM     18  C   UNL d   1      13.221  11.929  -3.986  0.00  0.00     0.022 A 
ATOM     19  C   UNL d   1      13.279  13.540  -3.603  0.00  0.00     0.021 A 
ATOM     20  C   UNL d   1      12.794  13.288  -4.230  0.00  0.00     0.002 A 
ATOM     21  C   UNL d   1      12.769  12.482  -4.417  0.00  0.00     0.002 A 
ENDBRANCH   1  13
BRANCH   2  22
ATOM     22  N   UNL d   1      14.450  13.148  -0.915  0.00  0.00    -0.296 N 
ATOM     23  C   UNL d   1      13.763  13.021  -0.478  0.00  0.00     0.107 A 
ATOM     24  C   UNL d   1      13.678  12.345  -0.032  0.00  0.00     0.142 A 
ATOM     25  O   UNL d   1      14.285  11.780  -0.014  0.00  0.00    -0.300 OA
ATOM     26  C   UNL d   1      14.972  11.912  -0.454  0.00  0.00     0.142 A 
ATOM     27  C   UNL d   1      15.052  12.596  -0.903  0.00  0.00     0.107 A 
ENDBRANCH   2  22
TORSDOF 2
ENDMDL
