MODEL 1
REMARK VINA RESULT:      -8.2      0.000      0.000
REMARK  3 active torsions:
REMARK  status: ('A' for Active; 'I' for Inactive)
REMARK    1  A    between atoms: C_16  and  C_4 
REMARK    2  A    between atoms: C_10  and  O_14 
REMARK    3  A    between atoms: O_14  and  C_16 
ROOT
ATOM      1  C   UNL d   1      53.579  32.337  54.060  0.00  0.00     0.030 A 
ATOM      2  C   UNL d   1      53.195  33.035  53.910  0.00  0.00     0.105 A 
ATOM      3  C   UNL d   1      52.622  33.057  53.315  0.00  0.00     0.118 A 
ATOM      4  N   UNL d   1      53.359  33.717  54.334  0.00  0.00    -0.242 NA
ATOM      5  C   UNL d   1      53.415  31.658  53.638  0.00  0.00     0.059 A 
ATOM      6  C   UNL d   1      52.441  32.392  52.881  0.00  0.00     0.027 A 
ATOM      7  C   UNL d   1      52.838  31.681  53.040  0.00  0.00     0.013 A 
ATOM      8 CL   UNL d   1      53.813  30.949  53.797  0.00  0.00    -0.082 Cl
ATOM      9  C   UNL d   1      54.151  32.310  54.652  0.00  0.00     0.004 A 
ATOM     10  C   UNL d   1      53.936  33.694  54.932  0.00  0.00     0.099 A 
ATOM     11  C   UNL d   1      54.333  32.984  55.091  0.00  0.00     0.021 A 
ENDROOT
BRANCH   3  12
ATOM     12  O   UNL d   1      52.223  33.767  53.156  0.00  0.00    -0.302 OA
BRANCH  12  13
ATOM     13  C   UNL d   1      51.831  34.482  53.001  0.00  0.00     0.144 C 
BRANCH  13  14
ATOM     14  C   UNL d   1      51.114  34.478  52.584  0.00  0.00     0.142 A 
ATOM     15  N   UNL d   1      51.025  34.352  51.797  0.00  0.00    -0.057 NA
ATOM     16  C   UNL d   1      50.240  34.396  51.622  0.00  0.00     0.735 A 
ATOM     17  N   UNL d   1      49.833  34.554  52.333  0.00  0.00    -0.136 N 
ATOM     18  N   UNL d   1      49.812  34.316  50.919  0.00  0.00    -0.059 NA
ATOM     19  C   UNL d   1      50.376  34.603  52.915  0.00  0.00     0.120 A 
ATOM     20  C   UNL d   1      49.015  34.629  52.326  0.00  0.00     0.100 A 
ATOM     21  C   UNL d   1      48.595  34.550  51.629  0.00  0.00     0.041 A 
ATOM     22  C   UNL d   1      48.999  34.391  50.915  0.00  0.00     0.119 A 
ENDBRANCH  13  14
ENDBRANCH  12  13
ENDBRANCH   3  12
TORSDOF 3
ENDMDL
MODEL 2
REMARK VINA RESULT:      -7.7      2.225      4.625
REMARK  3 active torsions:
REMARK  status: ('A' for Active; 'I' for Inactive)
REMARK    1  A    between atoms: C_16  and  C_4 
REMARK    2  A    between atoms: C_10  and  O_14 
REMARK    3  A    between atoms: O_14  and  C_16 
ROOT
ATOM      1  C   UNL d   1      52.293  34.352  53.493  0.00  0.00     0.030 A 
ATOM      2  C   UNL d   1      52.277  33.617  53.153  0.00  0.00     0.105 A 
ATOM      3  C   UNL d   1      52.915  33.105  53.271  0.00  0.00     0.118 A 
ATOM      4  N   UNL d   1      51.644  33.368  52.695  0.00  0.00    -0.242 NA
ATOM      5  C   UNL d   1      52.924  34.599  53.949  0.00  0.00     0.059 A 
ATOM      6  C   UNL d   1      53.555  33.330  53.722  0.00  0.00     0.027 A 
ATOM      7  C   UNL d   1      53.565  34.084  54.068  0.00  0.00     0.013 A 
ATOM      8 CL   UNL d   1      52.933  35.353  54.293  0.00  0.00    -0.082 Cl
ATOM      9  C   UNL d   1      51.660  34.865  53.378  0.00  0.00     0.004 A 
ATOM     10  C   UNL d   1      51.002  33.882  52.576  0.00  0.00     0.099 A 
ATOM     11  C   UNL d   1      51.012  34.636  52.921  0.00  0.00     0.021 A 
ENDROOT
BRANCH   3  12
ATOM     12  O   UNL d   1      52.906  32.351  52.927  0.00  0.00    -0.302 OA
BRANCH  12  13
ATOM     13  C   UNL d   1      52.899  31.600  52.574  0.00  0.00     0.144 C 
BRANCH  13  14
ATOM     14  C   UNL d   1      52.988  30.922  53.044  0.00  0.00     0.142 A 
ATOM     15  N   UNL d   1      52.396  30.455  53.317  0.00  0.00    -0.057 NA
ATOM     16  C   UNL d   1      52.724  29.859  53.749  0.00  0.00     0.735 A 
ATOM     17  N   UNL d   1      53.551  29.968  53.738  0.00  0.00    -0.136 N 
ATOM     18  N   UNL d   1      52.405  29.218  54.162  0.00  0.00    -0.059 NA
ATOM     19  C   UNL d   1      53.703  30.620  53.305  0.00  0.00     0.120 A 
ATOM     20  C   UNL d   1      54.037  29.439  54.137  0.00  0.00     0.100 A 
ATOM     21  C   UNL d   1      53.718  28.806  54.545  0.00  0.00     0.041 A 
ATOM     22  C   UNL d   1      52.890  28.693  54.558  0.00  0.00     0.119 A 
ENDBRANCH  13  14
ENDBRANCH  12  13
ENDBRANCH   3  12
TORSDOF 3
ENDMDL
MODEL 3
REMARK VINA RESULT:      -7.3      1.124      1.824
REMARK  3 active torsions:
REMARK  status: ('A' for Active; 'I' for Inactive)
REMARK    1  A    between atoms: C_16  and  C_4 
REMARK    2  A    between atoms: C_10  and  O_14 
REMARK    3  A    between atoms: O_14  and  C_16 
ROOT
ATOM      1  C   UNL d   1      53.455  33.053  53.966  0.00  0.00     0.030 A 
ATOM      2  C   UNL d   1      52.831  33.037  53.450  0.00  0.00     0.105 A 
ATOM      3  C   UNL d   1      52.412  33.734  53.305  0.00  0.00     0.118 A 
ATOM      4  N   UNL d   1      52.605  32.348  53.067  0.00  0.00    -0.242 NA
ATOM      5  C   UNL d   1      53.679  33.739  54.347  0.00  0.00     0.059 A 
ATOM      6  C   UNL d   1      52.617  34.432  53.673  0.00  0.00     0.027 A 
ATOM      7  C   UNL d   1      53.257  34.441  54.201  0.00  0.00     0.013 A 
ATOM      8 CL   UNL d   1      54.319  33.747  54.874  0.00  0.00    -0.082 Cl
ATOM      9  C   UNL d   1      53.875  32.361  54.114  0.00  0.00     0.004 A 
ATOM     10  C   UNL d   1      53.027  31.646  53.213  0.00  0.00     0.099 A 
ATOM     11  C   UNL d   1      53.666  31.655  53.740  0.00  0.00     0.021 A 
ENDROOT
BRANCH   3  12
ATOM     12  O   UNL d   1      51.772  33.727  52.777  0.00  0.00    -0.302 OA
BRANCH  12  13
ATOM     13  C   UNL d   1      51.137  33.716  52.243  0.00  0.00     0.144 C 
BRANCH  13  14
ATOM     14  C   UNL d   1      50.471  34.189  52.383  0.00  0.00     0.142 A 
ATOM     15  N   UNL d   1      50.279  34.542  53.077  0.00  0.00    -0.057 NA
ATOM     16  C   UNL d   1      49.591  34.948  52.971  0.00  0.00     0.735 A 
ATOM     17  N   UNL d   1      49.354  34.838  52.178  0.00  0.00    -0.136 N 
ATOM     18  N   UNL d   1      49.125  35.412  53.472  0.00  0.00    -0.059 NA
ATOM     19  C   UNL d   1      49.899  34.373  51.827  0.00  0.00     0.120 A 
ATOM     20  C   UNL d   1      48.664  35.191  51.906  0.00  0.00     0.100 A 
ATOM     21  C   UNL d   1      48.206  35.650  52.405  0.00  0.00     0.041 A 
ATOM     22  C   UNL d   1      48.440  35.762  53.199  0.00  0.00     0.119 A 
ENDBRANCH  13  14
ENDBRANCH  12  13
ENDBRANCH   3  12
TORSDOF 3
ENDMDL
MODEL 4
REMARK VINA RESULT:      -6.6      2.242      5.010
REMARK  3 active torsions:
REMARK  status: ('A' for Active; 'I' for Inactive)
REMARK    1  A    between atoms: C_16  and  C_4 
REMARK    2  A    between atoms: C_10  and  O_14 
REMARK    3  A    between atoms: O_14  and  C_16 
ROOT
ATOM      1  C   UNL d   1      48.137  35.407  51.972  0.00  0.00     0.030 A 
ATOM      2  C   UNL d   1      48.734  35.321  52.514  0.00  0.00     0.105 A 
ATOM      3  C   UNL d   1      49.379  34.841  52.326  0.00  0.00     0.118 A 
ATOM      4  N   UNL d   1      48.712  35.698  53.242  0.00  0.00    -0.242 NA
ATOM      5  C   UNL d   1      48.159  35.032  51.247  0.00  0.00     0.059 A 
ATOM      6  C   UNL d   1      49.423  34.457  51.609  0.00  0.00     0.027 A 
ATOM      7  C   UNL d   1      48.808  34.550  51.059  0.00  0.00     0.013 A 
ATOM      8 CL   UNL d   1      47.544  35.126  50.699  0.00  0.00    -0.082 Cl
ATOM      9  C   UNL d   1      47.491  35.884  52.154  0.00  0.00     0.004 A 
ATOM     10  C   UNL d   1      48.063  36.180  53.430  0.00  0.00     0.099 A 
ATOM     11  C   UNL d   1      47.448  36.273  52.881  0.00  0.00     0.021 A 
ENDROOT
BRANCH   3  12
ATOM     12  O   UNL d   1      49.994  34.748  52.875  0.00  0.00    -0.302 OA
BRANCH  12  13
ATOM     13  C   UNL d   1      50.604  34.657  53.430  0.00  0.00     0.144 C 
BRANCH  13  14
ATOM     14  C   UNL d   1      51.172  34.062  53.327  0.00  0.00     0.142 A 
ATOM     15  N   UNL d   1      51.035  33.272  53.326  0.00  0.00    -0.057 NA
ATOM     16  C   UNL d   1      51.737  32.894  53.208  0.00  0.00     0.735 A 
ATOM     17  N   UNL d   1      52.327  33.479  53.134  0.00  0.00    -0.136 N 
ATOM     18  N   UNL d   1      51.948  32.096  53.153  0.00  0.00    -0.059 NA
ATOM     19  C   UNL d   1      51.972  34.190  53.208  0.00  0.00     0.120 A 
ATOM     20  C   UNL d   1      53.108  33.256  53.008  0.00  0.00     0.100 A 
ATOM     21  C   UNL d   1      53.312  32.466  52.955  0.00  0.00     0.041 A 
ATOM     22  C   UNL d   1      52.724  31.878  53.028  0.00  0.00     0.119 A 
ENDBRANCH  13  14
ENDBRANCH  12  13
ENDBRANCH   3  12
TORSDOF 3
ENDMDL
MODEL 5
REMARK VINA RESULT:      -6.5      2.055      5.113
REMARK  3 active torsions:
REMARK  status: ('A' for Active; 'I' for Inactive)
REMARK    1  A    between atoms: C_16  and  C_4 
REMARK    2  A    between atoms: C_10  and  O_14 
REMARK    3  A    between atoms: O_14  and  C_16 
ROOT
ATOM      1  C   UNL d   1      48.400  35.211  52.116  0.00  0.00     0.030 A 
ATOM      2  C   UNL d   1      49.103  34.829  51.986  0.00  0.00     0.105 A 
ATOM      3  C   UNL d   1      49.670  34.818  52.586  0.00  0.00     0.118 A 
ATOM      4  N   UNL d   1      49.264  34.454  51.275  0.00  0.00    -0.242 NA
ATOM      5  C   UNL d   1      48.240  35.583  52.825  0.00  0.00     0.059 A 
ATOM      6  C   UNL d   1      49.533  35.183  53.302  0.00  0.00     0.027 A 
ATOM      7  C   UNL d   1      48.811  35.572  53.428  0.00  0.00     0.013 A 
ATOM      8 CL   UNL d   1      47.518  35.972  52.950  0.00  0.00    -0.082 Cl
ATOM      9  C   UNL d   1      47.831  35.224  51.522  0.00  0.00     0.004 A 
ATOM     10  C   UNL d   1      48.693  34.465  50.672  0.00  0.00     0.099 A 
ATOM     11  C   UNL d   1      47.972  34.854  50.797  0.00  0.00     0.021 A 
ENDROOT
BRANCH   3  12
ATOM     12  O   UNL d   1      50.392  34.429  52.461  0.00  0.00    -0.302 OA
BRANCH  12  13
ATOM     13  C   UNL d   1      51.111  34.033  52.332  0.00  0.00     0.144 C 
BRANCH  13  14
ATOM     14  C   UNL d   1      51.701  34.049  52.915  0.00  0.00     0.142 A 
ATOM     15  N   UNL d   1      52.082  34.701  53.185  0.00  0.00    -0.057 NA
ATOM     16  C   UNL d   1      52.611  34.468  53.746  0.00  0.00     0.735 A 
ATOM     17  N   UNL d   1      52.550  33.640  53.821  0.00  0.00    -0.136 N 
ATOM     18  N   UNL d   1      53.154  34.879  54.216  0.00  0.00    -0.059 NA
ATOM     19  C   UNL d   1      51.991  33.392  53.309  0.00  0.00     0.120 A 
ATOM     20  C   UNL d   1      53.028  33.243  54.359  0.00  0.00     0.100 A 
ATOM     21  C   UNL d   1      53.563  33.652  54.822  0.00  0.00     0.041 A 
ATOM     22  C   UNL d   1      53.627  34.482  54.750  0.00  0.00     0.119 A 
ENDBRANCH  13  14
ENDBRANCH  12  13
ENDBRANCH   3  12
TORSDOF 3
ENDMDL
MODEL 6
REMARK VINA RESULT:      -6.3      2.756      3.695
REMARK  3 active torsions:
REMARK  status: ('A' for Active; 'I' for Inactive)
REMARK    1  A    between atoms: C_16  and  C_4 
REMARK    2  A    between atoms: C_10  and  O_14 
REMARK    3  A    between atoms: O_14  and  C_16 
ROOT
ATOM      1  C   UNL d   1      53.022  29.759  53.675  0.00  0.00     0.030 A 
ATOM      2  C   UNL d   1      53.395  30.366  54.062  0.00  0.00     0.105 A 
ATOM      3  C   UNL d   1      53.480  31.093  53.680  0.00  0.00     0.118 A 
ATOM      4  N   UNL d   1      53.689  30.276  54.822  0.00  0.00    -0.242 NA
ATOM      5  C   UNL d   1      52.729  29.849  52.919  0.00  0.00     0.059 A 
ATOM      6  C   UNL d   1      53.196  31.206  52.924  0.00  0.00     0.027 A 
ATOM      7  C   UNL d   1      52.815  30.580  52.534  0.00  0.00     0.013 A 
ATOM      8 CL   UNL d   1      52.349  29.222  52.530  0.00  0.00    -0.082 Cl
ATOM      9  C   UNL d   1      52.935  29.032  54.052  0.00  0.00     0.004 A 
ATOM     10  C   UNL d   1      53.603  29.544  55.207  0.00  0.00     0.099 A 
ATOM     11  C   UNL d   1      53.223  28.919  54.818  0.00  0.00     0.021 A 
ENDROOT
BRANCH   3  12
ATOM     12  O   UNL d   1      53.860  31.719  54.068  0.00  0.00    -0.302 OA
BRANCH  12  13
ATOM     13  C   UNL d   1      54.244  32.340  54.463  0.00  0.00     0.144 C 
BRANCH  13  14
ATOM     14  C   UNL d   1      53.913  33.101  54.458  0.00  0.00     0.142 A 
ATOM     15  N   UNL d   1      53.714  33.534  55.102  0.00  0.00    -0.057 NA
ATOM     16  C   UNL d   1      53.412  34.237  54.850  0.00  0.00     0.735 A 
ATOM     17  N   UNL d   1      53.428  34.232  54.016  0.00  0.00    -0.136 N 
ATOM     18  N   UNL d   1      53.116  34.900  55.245  0.00  0.00    -0.059 NA
ATOM     19  C   UNL d   1      53.737  33.533  53.785  0.00  0.00     0.120 A 
ATOM     20  C   UNL d   1      53.152  34.883  53.598  0.00  0.00     0.100 A 
ATOM     21  C   UNL d   1      52.860  35.537  53.993  0.00  0.00     0.041 A 
ATOM     22  C   UNL d   1      52.842  35.547  54.828  0.00  0.00     0.119 A 
ENDBRANCH  13  14
ENDBRANCH  12  13
ENDBRANCH   3  12
TORSDOF 3
ENDMDL
MODEL 7
REMARK VINA RESULT:      -6.1      1.874      4.729
REMARK  3 active torsions:
REMARK  status: ('A' for Active; 'I' for Inactive)
REMARK    1  A    between atoms: C_16  and  C_4 
REMARK    2  A    between atoms: C_10  and  O_14 
REMARK    3  A    between atoms: O_14  and  C_16 
ROOT
ATOM      1  C   UNL d   1      49.056  34.879  51.988  0.00  0.00     0.030 A 
ATOM      2  C   UNL d   1      49.606  34.881  52.584  0.00  0.00     0.105 A 
ATOM      3  C   UNL d   1      50.328  34.499  52.464  0.00  0.00     0.118 A 
ATOM      4  N   UNL d   1      49.464  35.254  53.300  0.00  0.00    -0.242 NA
ATOM      5  C   UNL d   1      49.198  34.508  51.275  0.00  0.00     0.059 A 
ATOM      6  C   UNL d   1      50.493  34.122  51.760  0.00  0.00     0.027 A 
ATOM      7  C   UNL d   1      49.925  34.123  51.155  0.00  0.00     0.013 A 
ATOM      8 CL   UNL d   1      48.630  34.510  50.672  0.00  0.00    -0.082 Cl
ATOM      9  C   UNL d   1      48.334  35.259  52.103  0.00  0.00     0.004 A 
ATOM     10  C   UNL d   1      48.737  35.639  53.420  0.00  0.00     0.099 A 
ATOM     11  C   UNL d   1      48.169  35.640  52.816  0.00  0.00     0.021 A 
ENDROOT
BRANCH   3  12
ATOM     12  O   UNL d   1      50.896  34.497  53.068  0.00  0.00    -0.302 OA
BRANCH  12  13
ATOM     13  C   UNL d   1      51.461  34.501  53.677  0.00  0.00     0.144 C 
BRANCH  13  14
ATOM     14  C   UNL d   1      52.087  33.958  53.663  0.00  0.00     0.142 A 
ATOM     15  N   UNL d   1      52.021  33.159  53.668  0.00  0.00    -0.057 NA
ATOM     16  C   UNL d   1      52.763  32.844  53.651  0.00  0.00     0.735 A 
ATOM     17  N   UNL d   1      53.304  33.479  53.635  0.00  0.00    -0.136 N 
ATOM     18  N   UNL d   1      53.048  32.068  53.646  0.00  0.00    -0.059 NA
ATOM     19  C   UNL d   1      52.881  34.156  53.643  0.00  0.00     0.120 A 
ATOM     20  C   UNL d   1      54.111  33.326  53.616  0.00  0.00     0.100 A 
ATOM     21  C   UNL d   1      54.389  32.557  53.612  0.00  0.00     0.041 A 
ATOM     22  C   UNL d   1      53.850  31.919  53.627  0.00  0.00     0.119 A 
ENDBRANCH  13  14
ENDBRANCH  12  13
ENDBRANCH   3  12
TORSDOF 3
ENDMDL
MODEL 8
REMARK VINA RESULT:      -5.5     11.223     11.730
REMARK  3 active torsions:
REMARK  status: ('A' for Active; 'I' for Inactive)
REMARK    1  A    between atoms: C_16  and  C_4 
REMARK    2  A    between atoms: C_10  and  O_14 
REMARK    3  A    between atoms: O_14  and  C_16 
ROOT
ATOM      1  C   UNL d   1      44.470  29.984  62.232  0.00  0.00     0.030 A 
ATOM      2  C   UNL d   1      44.412  29.273  61.847  0.00  0.00     0.105 A 
ATOM      3  C   UNL d   1      44.432  29.260  61.021  0.00  0.00     0.118 A 
ATOM      4  N   UNL d   1      44.334  28.566  62.256  0.00  0.00    -0.242 NA
ATOM      5  C   UNL d   1      44.547  30.686  61.824  0.00  0.00     0.059 A 
ATOM      6  C   UNL d   1      44.508  29.949  60.592  0.00  0.00     0.027 A 
ATOM      7  C   UNL d   1      44.567  30.673  60.993  0.00  0.00     0.013 A 
ATOM      8 CL   UNL d   1      44.606  31.410  62.225  0.00  0.00    -0.082 Cl
ATOM      9  C   UNL d   1      44.451  30.001  63.054  0.00  0.00     0.004 A 
ATOM     10  C   UNL d   1      44.314  28.579  63.087  0.00  0.00     0.099 A 
ATOM     11  C   UNL d   1      44.373  29.302  63.487  0.00  0.00     0.021 A 
ENDROOT
BRANCH   3  12
ATOM     12  O   UNL d   1      44.373  28.537  60.620  0.00  0.00    -0.302 OA
BRANCH  12  13
ATOM     13  C   UNL d   1      44.314  27.808  60.226  0.00  0.00     0.144 C 
BRANCH  13  14
ATOM     14  C   UNL d   1      44.551  27.747  59.434  0.00  0.00     0.142 A 
ATOM     15  N   UNL d   1      44.314  28.220  58.831  0.00  0.00    -0.057 NA
ATOM     16  C   UNL d   1      44.675  27.968  58.156  0.00  0.00     0.735 A 
ATOM     17  N   UNL d   1      45.152  27.314  58.357  0.00  0.00    -0.136 N 
ATOM     18  N   UNL d   1      44.652  28.228  57.372  0.00  0.00    -0.059 NA
ATOM     19  C   UNL d   1      45.070  27.186  59.140  0.00  0.00     0.120 A 
ATOM     20  C   UNL d   1      45.592  26.936  57.774  0.00  0.00     0.100 A 
ATOM     21  C   UNL d   1      45.567  27.197  56.999  0.00  0.00     0.041 A 
ATOM     22  C   UNL d   1      45.091  27.852  56.795  0.00  0.00     0.119 A 
ENDBRANCH  13  14
ENDBRANCH  12  13
ENDBRANCH   3  12
TORSDOF 3
ENDMDL
