MODEL 1
REMARK VINA RESULT:      13.9      0.000      0.000
REMARK  1 active torsions:
REMARK  status: ('A' for Active; 'I' for Inactive)
REMARK    1  A    between atoms: C_5  and  C_1 
ROOT
ATOM      1  C   UNL d   1     -57.456 -98.766 -44.247  0.00  0.00     0.005 A 
ATOM      2  C   UNL d   1     -57.172 -98.755 -45.021  0.00  0.00     0.001 A 
ATOM      3  C   UNL d   1     -56.932 -98.776 -43.613  0.00  0.00     0.001 A 
ATOM      4  C   UNL d   1     -55.833 -98.765 -44.524  0.00  0.00     0.058 A 
ATOM      5  C   UNL d   1     -56.117 -98.776 -43.750  0.00  0.00     0.011 A 
ATOM      6  C   UNL d   1     -56.364 -98.755 -45.162  0.00  0.00     0.011 A 
ATOM      7 CL   UNL d   1     -55.013 -98.765 -44.667  0.00  0.00    -0.082 Cl
ENDROOT
BRANCH   1   8
ATOM      8  C   UNL d   1     -58.268 -98.766 -44.109  0.00  0.00     0.060 A 
ATOM      9  C   UNL d   1     -58.922 -98.772 -44.572  0.00  0.00     0.206 A 
ATOM     10  N   UNL d   1     -59.646 -98.770 -44.249  0.00  0.00    -0.127 NA
ATOM     11  N   UNL d   1     -58.840 -98.780 -45.396  0.00  0.00    -0.125 N 
ATOM     12  N   UNL d   1     -59.712 -98.762 -43.460  0.00  0.00    -0.145 NA
ATOM     13  C   UNL d   1     -59.064 -98.756 -42.996  0.00  0.00     0.125 A 
ENDBRANCH   1   8
TORSDOF 1
ENDMDL
