MODEL 1
REMARK VINA RESULT:      -4.9      0.000      0.000
REMARK  6 active torsions:
REMARK  status: ('A' for Active; 'I' for Inactive)
REMARK    1  A    between atoms: N_3  and  S_1 
REMARK    2  A    between atoms: C_9  and  S_1 
REMARK    3  A    between atoms: C_2  and  N_3 
REMARK    4  A    between atoms: N_5  and  C_10 
REMARK    5  A    between atoms: C_19  and  C_8 
REMARK    6  A    between atoms: O_20  and  C_19 
ROOT
ATOM      1  S   UNL d   1      57.619   0.413  30.886  0.00  0.00     0.287 S 
ATOM      2  O   UNL d   1      56.983   0.458  30.336  0.00  0.00    -0.198 OA
ATOM      3  O   UNL d   1      58.262   0.371  31.430  0.00  0.00    -0.198 OA
ENDROOT
BRANCH   1   4
ATOM      4  N   UNL d   1      58.147   0.682  30.275  0.00  0.00    -0.130 NA
BRANCH   4   5
ATOM      5  C   UNL d   1      58.401   0.156  29.697  0.00  0.00     0.227 A 
ATOM      6  S   UNL d   1      58.984  -0.442  29.704  0.00  0.00    -0.023 SA
ATOM      7  C   UNL d   1      58.988  -0.795  28.940  0.00  0.00     0.159 A 
ATOM      8  N   UNL d   1      58.425  -0.420  28.489  0.00  0.00    -0.137 NA
ATOM      9  N   UNL d   1      58.063   0.168  28.960  0.00  0.00    -0.120 NA
BRANCH   7  10
ATOM     10  C   UNL d   1      59.486  -1.418  28.698  0.00  0.00     0.144 C 
BRANCH  10  11
ATOM     11  O   UNL d   1      59.148  -2.195  28.593  0.00  0.00    -0.324 OA
ATOM     12  C   UNL d   1      59.646  -2.866  28.455  0.00  0.00     0.182 C 
ENDBRANCH  10  11
ENDBRANCH   7  10
ENDBRANCH   4   5
ENDBRANCH   1   4
BRANCH   1  13
ATOM     13  C   UNL d   1      57.097   0.146  31.495  0.00  0.00     0.105 A 
ATOM     14  C   UNL d   1      56.710   0.680  31.940  0.00  0.00     0.015 A 
ATOM     15  C   UNL d   1      56.195   0.440  32.539  0.00  0.00     0.024 A 
ATOM     16  C   UNL d   1      56.087  -0.366  32.672  0.00  0.00     0.127 A 
ATOM     17  C   UNL d   1      56.488  -0.931  32.212  0.00  0.00     0.024 A 
ATOM     18  C   UNL d   1      56.987  -0.660  31.630  0.00  0.00     0.015 A 
BRANCH  16  19
ATOM     19  N   UNL d   1      55.564  -0.633  33.282  0.00  0.00    -0.114 N 
ATOM     20  O   UNL d   1      55.332  -0.121  33.875  0.00  0.00    -0.532 OA
ATOM     21  O   UNL d   1      55.282  -1.409  33.287  0.00  0.00    -0.532 OA
ENDBRANCH  16  19
ENDBRANCH   1  13
TORSDOF 6
ENDMDL
MODEL 2
REMARK VINA RESULT:      -3.5      1.446      4.568
REMARK  6 active torsions:
REMARK  status: ('A' for Active; 'I' for Inactive)
REMARK    1  A    between atoms: N_3  and  S_1 
REMARK    2  A    between atoms: C_9  and  S_1 
REMARK    3  A    between atoms: C_2  and  N_3 
REMARK    4  A    between atoms: N_5  and  C_10 
REMARK    5  A    between atoms: C_19  and  C_8 
REMARK    6  A    between atoms: O_20  and  C_19 
ROOT
ATOM      1  S   UNL d   1      59.001  -0.577  29.263  0.00  0.00     0.287 S 
ATOM      2  O   UNL d   1      59.744  -0.409  29.624  0.00  0.00    -0.198 OA
ATOM      3  O   UNL d   1      58.256  -0.737  28.904  0.00  0.00    -0.198 OA
ENDROOT
BRANCH   1   4
ATOM      4  N   UNL d   1      58.761   0.224  29.420  0.00  0.00    -0.130 NA
BRANCH   4   5
ATOM      5  C   UNL d   1      58.237   0.379  30.034  0.00  0.00     0.227 A 
ATOM      6  S   UNL d   1      58.338   0.400  30.862  0.00  0.00    -0.023 SA
ATOM      7  C   UNL d   1      57.591   0.591  31.199  0.00  0.00     0.159 A 
ATOM      8  N   UNL d   1      57.058   0.682  30.591  0.00  0.00    -0.137 NA
ATOM      9  N   UNL d   1      57.461   0.550  29.871  0.00  0.00    -0.120 NA
BRANCH   7  10
ATOM     10  C   UNL d   1      57.435   0.672  32.014  0.00  0.00     0.144 C 
BRANCH  10  11
ATOM     11  O   UNL d   1      56.929   0.098  32.393  0.00  0.00    -0.324 OA
ATOM     12  C   UNL d   1      56.835   0.095  33.235  0.00  0.00     0.182 C 
ENDBRANCH  10  11
ENDBRANCH   7  10
ENDBRANCH   4   5
ENDBRANCH   1   4
BRANCH   1  13
ATOM     13  C   UNL d   1      59.238  -1.373  29.107  0.00  0.00     0.105 A 
ATOM     14  C   UNL d   1      60.012  -1.559  29.108  0.00  0.00     0.015 A 
ATOM     15  C   UNL d   1      60.264  -2.330  28.957  0.00  0.00     0.024 A 
ATOM     16  C   UNL d   1      59.700  -2.911  28.805  0.00  0.00     0.127 A 
ATOM     17  C   UNL d   1      58.889  -2.727  28.802  0.00  0.00     0.024 A 
ATOM     18  C   UNL d   1      58.675  -1.957  28.954  0.00  0.00     0.015 A 
BRANCH  16  19
ATOM     19  N   UNL d   1      59.938  -3.709  28.648  0.00  0.00    -0.114 N 
ATOM     20  O   UNL d   1      59.375  -4.283  28.506  0.00  0.00    -0.532 OA
ATOM     21  O   UNL d   1      60.737  -3.916  28.636  0.00  0.00    -0.532 OA
ENDBRANCH  16  19
ENDBRANCH   1  13
TORSDOF 6
ENDMDL
MODEL 3
REMARK VINA RESULT:      -3.2      1.235      4.541
REMARK  6 active torsions:
REMARK  status: ('A' for Active; 'I' for Inactive)
REMARK    1  A    between atoms: N_3  and  S_1 
REMARK    2  A    between atoms: C_9  and  S_1 
REMARK    3  A    between atoms: C_2  and  N_3 
REMARK    4  A    between atoms: N_5  and  C_10 
REMARK    5  A    between atoms: C_19  and  C_8 
REMARK    6  A    between atoms: O_20  and  C_19 
ROOT
ATOM      1  S   UNL d   1      58.443   0.024  29.935  0.00  0.00     0.287 S 
ATOM      2  O   UNL d   1      59.120   0.284  30.362  0.00  0.00    -0.198 OA
ATOM      3  O   UNL d   1      57.760  -0.231  29.511  0.00  0.00    -0.198 OA
ENDROOT
BRANCH   1   4
ATOM      4  N   UNL d   1      58.007   0.682  30.254  0.00  0.00    -0.130 NA
BRANCH   4   5
ATOM      5  C   UNL d   1      57.706   0.639  31.017  0.00  0.00     0.227 A 
ATOM      6  S   UNL d   1      56.928   0.555  31.306  0.00  0.00    -0.023 SA
ATOM      7  C   UNL d   1      56.973   0.547  32.146  0.00  0.00     0.159 A 
ATOM      8  N   UNL d   1      57.756   0.625  32.355  0.00  0.00    -0.137 NA
ATOM      9  N   UNL d   1      58.207   0.682  31.654  0.00  0.00    -0.120 NA
BRANCH   7  10
ATOM     10  C   UNL d   1      56.325   0.472  32.665  0.00  0.00     0.144 C 
BRANCH  10  11
ATOM     11  O   UNL d   1      56.064  -0.310  32.885  0.00  0.00    -0.324 OA
ATOM     12  C   UNL d   1      55.399  -0.414  33.399  0.00  0.00     0.182 C 
ENDBRANCH  10  11
ENDBRANCH   7  10
ENDBRANCH   4   5
ENDBRANCH   1   4
BRANCH   1  13
ATOM     13  C   UNL d   1      58.873  -0.631  29.618  0.00  0.00     0.105 A 
ATOM     14  C   UNL d   1      59.651  -0.553  29.472  0.00  0.00     0.015 A 
ATOM     15  C   UNL d   1      60.090  -1.181  29.163  0.00  0.00     0.024 A 
ATOM     16  C   UNL d   1      59.708  -1.894  29.005  0.00  0.00     0.127 A 
ATOM     17  C   UNL d   1      58.896  -1.984  29.154  0.00  0.00     0.024 A 
ATOM     18  C   UNL d   1      58.493  -1.347  29.460  0.00  0.00     0.015 A 
BRANCH  16  19
ATOM     19  N   UNL d   1      60.140  -2.549  28.687  0.00  0.00    -0.114 N 
ATOM     20  O   UNL d   1      60.952  -2.505  28.607  0.00  0.00    -0.532 OA
ATOM     21  O   UNL d   1      59.750  -3.239  28.455  0.00  0.00    -0.532 OA
ENDBRANCH  16  19
ENDBRANCH   1  13
TORSDOF 6
ENDMDL
MODEL 4
REMARK VINA RESULT:      -3.0      1.482      4.670
REMARK  6 active torsions:
REMARK  status: ('A' for Active; 'I' for Inactive)
REMARK    1  A    between atoms: N_3  and  S_1 
REMARK    2  A    between atoms: C_9  and  S_1 
REMARK    3  A    between atoms: C_2  and  N_3 
REMARK    4  A    between atoms: N_5  and  C_10 
REMARK    5  A    between atoms: C_19  and  C_8 
REMARK    6  A    between atoms: O_20  and  C_19 
ROOT
ATOM      1  S   UNL d   1      57.816   0.486  30.651  0.00  0.00     0.287 S 
ATOM      2  O   UNL d   1      57.385   0.292  29.954  0.00  0.00    -0.198 OA
ATOM      3  O   UNL d   1      58.239   0.682  31.353  0.00  0.00    -0.198 OA
ENDROOT
BRANCH   1   4
ATOM      4  N   UNL d   1      57.080   0.673  31.035  0.00  0.00    -0.130 NA
BRANCH   4   5
ATOM      5  C   UNL d   1      56.782   0.168  31.611  0.00  0.00     0.227 A 
ATOM      6  S   UNL d   1      56.422   0.315  32.350  0.00  0.00    -0.023 SA
ATOM      7  C   UNL d   1      56.235  -0.432  32.689  0.00  0.00     0.159 A 
ATOM      8  N   UNL d   1      56.476  -1.010  32.169  0.00  0.00    -0.137 NA
ATOM      9  N   UNL d   1      56.814  -0.636  31.503  0.00  0.00    -0.120 NA
BRANCH   7  10
ATOM     10  C   UNL d   1      55.868  -0.549  33.428  0.00  0.00     0.144 C 
BRANCH  10  11
ATOM     11  O   UNL d   1      55.116  -0.175  33.575  0.00  0.00    -0.324 OA
ATOM     12  C   UNL d   1      55.000   0.303  34.265  0.00  0.00     0.182 C 
ENDBRANCH  10  11
ENDBRANCH   7  10
ENDBRANCH   4   5
ENDBRANCH   1   4
BRANCH   1  13
ATOM     13  C   UNL d   1      58.547   0.301  30.271  0.00  0.00     0.105 A 
ATOM     14  C   UNL d   1      58.547  -0.169  29.629  0.00  0.00     0.015 A 
ATOM     15  C   UNL d   1      59.251  -0.361  29.243  0.00  0.00     0.024 A 
ATOM     16  C   UNL d   1      59.961  -0.058  29.534  0.00  0.00     0.127 A 
ATOM     17  C   UNL d   1      59.970   0.433  30.204  0.00  0.00     0.024 A 
ATOM     18  C   UNL d   1      59.259   0.603  30.560  0.00  0.00     0.015 A 
BRANCH  16  19
ATOM     19  N   UNL d   1      60.694  -0.244  29.153  0.00  0.00    -0.114 N 
ATOM     20  O   UNL d   1      61.101  -0.922  29.356  0.00  0.00    -0.532 OA
ATOM     21  O   UNL d   1      61.006   0.255  28.574  0.00  0.00    -0.532 OA
ENDBRANCH  16  19
ENDBRANCH   1  13
TORSDOF 6
ENDMDL
MODEL 5
REMARK VINA RESULT:      -3.0      1.636      1.977
REMARK  6 active torsions:
REMARK  status: ('A' for Active; 'I' for Inactive)
REMARK    1  A    between atoms: N_3  and  S_1 
REMARK    2  A    between atoms: C_9  and  S_1 
REMARK    3  A    between atoms: C_2  and  N_3 
REMARK    4  A    between atoms: N_5  and  C_10 
REMARK    5  A    between atoms: C_19  and  C_8 
REMARK    6  A    between atoms: O_20  and  C_19 
ROOT
ATOM      1  S   UNL d   1      56.740  -0.503  31.501  0.00  0.00     0.287 S 
ATOM      2  O   UNL d   1      56.706  -1.323  31.687  0.00  0.00    -0.198 OA
ATOM      3  O   UNL d   1      56.777   0.317  31.307  0.00  0.00    -0.198 OA
ENDROOT
BRANCH   1   4
ATOM      4  N   UNL d   1      57.107  -0.701  30.759  0.00  0.00    -0.130 NA
BRANCH   4   5
ATOM      5  C   UNL d   1      57.774  -0.289  30.512  0.00  0.00     0.227 A 
ATOM      6  S   UNL d   1      58.468  -0.059  30.915  0.00  0.00    -0.023 SA
ATOM      7  C   UNL d   1      58.951   0.352  30.362  0.00  0.00     0.159 A 
ATOM      8  N   UNL d   1      58.559   0.367  29.649  0.00  0.00    -0.137 NA
ATOM      9  N   UNL d   1      57.830  -0.031  29.745  0.00  0.00    -0.120 NA
BRANCH   7  10
ATOM     10  C   UNL d   1      59.699   0.682  30.525  0.00  0.00     0.144 C 
BRANCH  10  11
ATOM     11  O   UNL d   1      60.395   0.210  30.383  0.00  0.00    -0.324 OA
ATOM     12  C   UNL d   1      61.091   0.313  30.855  0.00  0.00     0.182 C 
ENDBRANCH  10  11
ENDBRANCH   7  10
ENDBRANCH   4   5
ENDBRANCH   1   4
BRANCH   1  13
ATOM     13  C   UNL d   1      56.375  -0.303  32.236  0.00  0.00     0.105 A 
ATOM     14  C   UNL d   1      56.237  -0.875  32.773  0.00  0.00     0.015 A 
ATOM     15  C   UNL d   1      55.882  -0.701  33.497  0.00  0.00     0.024 A 
ATOM     16  C   UNL d   1      55.670   0.079  33.660  0.00  0.00     0.127 A 
ATOM     17  C   UNL d   1      55.809   0.682  33.106  0.00  0.00     0.024 A 
ATOM     18  C   UNL d   1      56.161   0.477  32.402  0.00  0.00     0.015 A 
BRANCH  16  19
ATOM     19  N   UNL d   1      55.304   0.278  34.398  0.00  0.00    -0.114 N 
ATOM     20  O   UNL d   1      54.571   0.636  34.407  0.00  0.00    -0.532 OA
ATOM     21  O   UNL d   1      55.682   0.113  35.114  0.00  0.00    -0.532 OA
ENDBRANCH  16  19
ENDBRANCH   1  13
TORSDOF 6
ENDMDL
