MODEL 1
REMARK VINA RESULT:      84.0      0.000      0.000
REMARK  5 active torsions:
REMARK  status: ('A' for Active; 'I' for Inactive)
REMARK    1  A    between atoms: N_3  and  C_1 
REMARK       I    between atoms: C_9  and  N_3 
REMARK    2  A    between atoms: C_12  and  C_7 
REMARK    3  A    between atoms: C_17  and  C_9 
REMARK    4  A    between atoms: C_11  and  S_14 
REMARK    5  A    between atoms: S_14  and  C_17 
ROOT
ATOM      1  N   UNL d   1      62.619  44.499  49.789  0.00  0.00    -0.146 NA
ATOM      2  N   UNL d   1      62.326  45.246  49.597  0.00  0.00    -0.141 NA
ATOM      3  C   UNL d   1      62.200  44.010  50.310  0.00  0.00     0.121 A 
ATOM      4  C   UNL d   1      61.621  45.511  49.917  0.00  0.00     0.133 A 
ATOM      5  C   UNL d   1      61.488  44.275  50.635  0.00  0.00     0.025 A 
ATOM      6  C   UNL d   1      61.198  45.020  50.441  0.00  0.00     0.029 A 
ENDROOT
BRANCH   4   7
ATOM      7  S   UNL d   1      61.328  46.258  49.725  0.00  0.00    -0.061 SA
BRANCH   7   8
ATOM      8  C   UNL d   1      61.702  46.934  49.999  0.00  0.00     0.099 C 
BRANCH   8   9
ATOM      9  C   UNL d   1      61.276  47.478  50.454  0.00  0.00     0.288 C 
ATOM     10  N   UNL d   1      61.023  48.188  50.120  0.00  0.00    -0.182 NA
ATOM     11  O   UNL d   1      61.105  47.314  51.241  0.00  0.00    -0.265 OA
BRANCH  10  12
ATOM     12  C   UNL d   1      60.599  48.736  50.562  0.00  0.00     0.197 A 
ATOM     13  N   UNL d   1      59.785  48.824  50.546  0.00  0.00    -0.221 NA
ATOM     14  C   UNL d   1      59.589  49.426  51.063  0.00  0.00     0.090 A 
ATOM     15  C   UNL d   1      58.827  49.707  51.227  0.00  0.00     0.021 C 
ATOM     16  C   UNL d   1      60.286  49.708  51.396  0.00  0.00     0.058 A 
ATOM     17  S   UNL d   1      60.908  49.281  51.086  0.00  0.00    -0.046 SA
ENDBRANCH  10  12
ENDBRANCH   8   9
ENDBRANCH   7   8
ENDBRANCH   4   7
BRANCH   3  18
ATOM     18  C   UNL d   1      62.494  43.264  50.501  0.00  0.00     0.101 A 
ATOM     19  N   UNL d   1      62.820  42.796  49.920  0.00  0.00    -0.242 NA
ATOM     20  C   UNL d   1      63.112  42.056  50.107  0.00  0.00     0.099 A 
ATOM     21  C   UNL d   1      63.075  41.781  50.891  0.00  0.00     0.021 A 
ATOM     22  C   UNL d   1      62.747  42.254  51.473  0.00  0.00     0.003 A 
ATOM     23  C   UNL d   1      62.451  43.003  51.289  0.00  0.00     0.021 A 
ENDBRANCH   3  18
TORSDOF 5
ENDMDL
MODEL 2
REMARK VINA RESULT:      84.4      1.594      5.585
REMARK  5 active torsions:
REMARK  status: ('A' for Active; 'I' for Inactive)
REMARK    1  A    between atoms: N_3  and  C_1 
REMARK       I    between atoms: C_9  and  N_3 
REMARK    2  A    between atoms: C_12  and  C_7 
REMARK    3  A    between atoms: C_17  and  C_9 
REMARK    4  A    between atoms: C_11  and  S_14 
REMARK    5  A    between atoms: S_14  and  C_17 
ROOT
ATOM      1  N   UNL d   1      61.966  47.471  50.030  0.00  0.00    -0.146 NA
ATOM      2  N   UNL d   1      62.162  46.760  49.660  0.00  0.00    -0.141 NA
ATOM      3  C   UNL d   1      61.205  47.582  50.339  0.00  0.00     0.121 A 
ATOM      4  C   UNL d   1      61.610  46.160  49.593  0.00  0.00     0.133 A 
ATOM      5  C   UNL d   1      60.645  46.978  50.273  0.00  0.00     0.025 A 
ATOM      6  C   UNL d   1      60.843  46.270  49.903  0.00  0.00     0.029 A 
ENDROOT
BRANCH   4   7
ATOM      7  S   UNL d   1      61.806  45.450  49.222  0.00  0.00    -0.061 SA
BRANCH   7   8
ATOM      8  C   UNL d   1      61.424  44.754  49.430  0.00  0.00     0.099 C 
BRANCH   8   9
ATOM      9  C   UNL d   1      61.871  44.082  49.610  0.00  0.00     0.288 C 
ATOM     10  N   UNL d   1      61.928  43.820  50.389  0.00  0.00    -0.182 NA
ATOM     11  O   UNL d   1      62.259  43.672  49.013  0.00  0.00    -0.265 OA
BRANCH  10  12
ATOM     12  C   UNL d   1      62.369  43.154  50.581  0.00  0.00     0.197 A 
ATOM     13  N   UNL d   1      62.437  42.836  51.333  0.00  0.00    -0.221 NA
ATOM     14  C   UNL d   1      62.923  42.180  51.283  0.00  0.00     0.090 A 
ATOM     15  C   UNL d   1      63.148  41.684  51.908  0.00  0.00     0.021 C 
ATOM     16  C   UNL d   1      63.153  42.097  50.498  0.00  0.00     0.058 A 
ATOM     17  S   UNL d   1      62.811  42.698  50.066  0.00  0.00    -0.046 SA
ENDBRANCH  10  12
ENDBRANCH   8   9
ENDBRANCH   7   8
ENDBRANCH   4   7
BRANCH   3  18
ATOM     18  C   UNL d   1      61.011  48.292  50.709  0.00  0.00     0.101 A 
ATOM     19  N   UNL d   1      61.155  48.998  50.331  0.00  0.00    -0.242 NA
ATOM     20  C   UNL d   1      60.963  49.705  50.695  0.00  0.00     0.099 A 
ATOM     21  C   UNL d   1      60.619  49.701  51.453  0.00  0.00     0.021 A 
ATOM     22  C   UNL d   1      60.476  48.989  51.830  0.00  0.00     0.003 A 
ATOM     23  C   UNL d   1      60.668  48.273  51.466  0.00  0.00     0.021 A 
ENDBRANCH   3  18
TORSDOF 5
ENDMDL
