MODEL 1
REMARK VINA RESULT:      68.3      0.000      0.000
REMARK  3 active torsions:
REMARK  status: ('A' for Active; 'I' for Inactive)
REMARK    1  A    between atoms: C_21  and  N_1 
REMARK       I    between atoms: N_6  and  C_8 
REMARK    2  A    between atoms: C_8  and  C_9 
REMARK    3  A    between atoms: C_24  and  C_21 
ROOT
ATOM      1  N   UNL d   1      14.062  16.488  -5.130  0.00  0.00    -0.249 N 
ATOM      2  C   UNL d   1      14.641  16.380  -4.564  0.00  0.00     0.208 A 
ATOM      3  C   UNL d   1      13.488  15.906  -5.252  0.00  0.00     0.268 A 
ATOM      4  C   UNL d   1      13.510  15.218  -4.796  0.00  0.00     0.074 A 
ATOM      5  N   UNL d   1      14.660  15.688  -4.107  0.00  0.00    -0.218 NA
ATOM      6  C   UNL d   1      14.089  15.117  -4.235  0.00  0.00     0.088 A 
ATOM      7  C   UNL d   1      13.536  13.840  -3.896  0.00  0.00     0.058 A 
ATOM      8  C   UNL d   1      14.108  14.429  -3.781  0.00  0.00     0.024 A 
ATOM      9  C   UNL d   1      12.939  14.641  -4.918  0.00  0.00     0.006 A 
ATOM     10  S   UNL d   1      15.221  16.972  -4.442  0.00  0.00    -0.038 SA
ATOM     11  O   UNL d   1      12.903  16.010  -5.821  0.00  0.00    -0.267 OA
ATOM     12  C   UNL d   1      12.955  13.947  -4.464  0.00  0.00     0.005 A 
ENDROOT
BRANCH   7  13
ATOM     13  C   UNL d   1      13.555  13.148  -3.440  0.00  0.00     0.265 C 
ATOM     14  N   UNL d   1      13.912  13.159  -2.698  0.00  0.00    -0.272 N 
ATOM     15  C   UNL d   1      13.931  12.475  -2.247  0.00  0.00     0.083 A 
ATOM     16  C   UNL d   1      14.251  13.850  -2.404  0.00  0.00     0.083 A 
ATOM     17  C   UNL d   1      14.281  12.483  -1.517  0.00  0.00     0.018 A 
ATOM     18  C   UNL d   1      14.294  11.785  -1.069  0.00  0.00     0.002 A 
ATOM     19  C   UNL d   1      14.620  13.170  -1.220  0.00  0.00     0.003 A 
ATOM     20  C   UNL d   1      14.652  11.779  -0.316  0.00  0.00     0.000 A 
ATOM     21  C   UNL d   1      14.993  12.468  -0.016  0.00  0.00     0.000 A 
ATOM     22  C   UNL d   1      14.974  13.160  -0.472  0.00  0.00     0.000 A 
ATOM     23  C   UNL d   1      14.604  13.854  -1.666  0.00  0.00     0.019 A 
ATOM     24  O   UNL d   1      13.216  12.457  -3.735  0.00  0.00    -0.267 OA
ENDBRANCH   7  13
BRANCH   1  25
ATOM     25  C   UNL d   1      14.043  17.187  -5.591  0.00  0.00     0.085 C 
BRANCH  25  26
ATOM     26  C   UNL d   1      14.596  17.781  -5.450  0.00  0.00     0.019 C 
ATOM     27  C   UNL d   1      14.395  18.566  -5.626  0.00  0.00     0.002 C 
ENDBRANCH  25  26
ENDBRANCH   1  25
TORSDOF 3
ENDMDL
MODEL 2
REMARK VINA RESULT:      69.6      1.373      4.945
REMARK  3 active torsions:
REMARK  status: ('A' for Active; 'I' for Inactive)
REMARK    1  A    between atoms: C_21  and  N_1 
REMARK       I    between atoms: N_6  and  C_8 
REMARK    2  A    between atoms: C_8  and  C_9 
REMARK    3  A    between atoms: C_24  and  C_21 
ROOT
ATOM      1  N   UNL d   1      14.653  13.053  -0.784  0.00  0.00    -0.249 N 
ATOM      2  C   UNL d   1      14.804  13.836  -0.961  0.00  0.00     0.208 A 
ATOM      3  C   UNL d   1      14.269  12.570  -1.333  0.00  0.00     0.268 A 
ATOM      4  C   UNL d   1      14.042  12.889  -2.059  0.00  0.00     0.074 A 
ATOM      5  N   UNL d   1      14.574  14.153  -1.693  0.00  0.00    -0.218 NA
ATOM      6  C   UNL d   1      14.195  13.668  -2.230  0.00  0.00     0.088 A 
ATOM      7  C   UNL d   1      13.581  13.507  -3.514  0.00  0.00     0.058 A 
ATOM      8  C   UNL d   1      13.967  13.984  -2.957  0.00  0.00     0.024 A 
ATOM      9  C   UNL d   1      13.660  12.407  -2.604  0.00  0.00     0.006 A 
ATOM     10  S   UNL d   1      15.193  14.323  -0.402  0.00  0.00    -0.038 SA
ATOM     11  O   UNL d   1      14.114  11.780  -1.158  0.00  0.00    -0.267 OA
ATOM     12  C   UNL d   1      13.429  12.721  -3.336  0.00  0.00     0.005 A 
ENDROOT
BRANCH   7  13
ATOM     13  C   UNL d   1      13.352  13.824  -4.245  0.00  0.00     0.265 C 
ATOM     14  N   UNL d   1      13.623  14.568  -4.469  0.00  0.00    -0.272 N 
ATOM     15  C   UNL d   1      13.396  14.882  -5.191  0.00  0.00     0.083 A 
ATOM     16  C   UNL d   1      14.121  15.001  -3.975  0.00  0.00     0.083 A 
ATOM     17  C   UNL d   1      13.662  15.614  -5.414  0.00  0.00     0.018 A 
ATOM     18  C   UNL d   1      13.426  15.921  -6.147  0.00  0.00     0.002 A 
ATOM     19  C   UNL d   1      14.158  16.049  -4.924  0.00  0.00     0.003 A 
ATOM     20  C   UNL d   1      13.693  16.674  -6.389  0.00  0.00     0.000 A 
ATOM     21  C   UNL d   1      14.190  17.112  -5.899  0.00  0.00     0.000 A 
ATOM     22  C   UNL d   1      14.420  16.795  -5.168  0.00  0.00     0.000 A 
ATOM     23  C   UNL d   1      14.387  15.741  -4.204  0.00  0.00     0.019 A 
ATOM     24  O   UNL d   1      12.854  13.390  -4.738  0.00  0.00    -0.267 OA
ENDBRANCH   7  13
BRANCH   1  25
ATOM     25  C   UNL d   1      14.885  12.732  -0.045  0.00  0.00     0.085 C 
BRANCH  25  26
ATOM     26  C   UNL d   1      15.210  11.977  -0.014  0.00  0.00     0.019 C 
ATOM     27  C   UNL d   1      16.034  11.893  -0.041  0.00  0.00     0.002 C 
ENDBRANCH  25  26
ENDBRANCH   1  25
TORSDOF 3
ENDMDL
