MODEL 1
REMARK VINA RESULT:      -2.6      0.000      0.000
REMARK  7 active torsions:
REMARK  status: ('A' for Active; 'I' for Inactive)
REMARK    1  A    between atoms: C_2  and  S_1 
REMARK    2  A    between atoms: N_8  and  S_1 
REMARK    3  A    between atoms: C_13  and  N_8 
REMARK    4  A    between atoms: N_9  and  C_14 
REMARK    5  A    between atoms: O_15  and  C_10 
REMARK    6  A    between atoms: C_14  and  C_13 
REMARK    7  A    between atoms: C_22  and  O_15 
ROOT
ATOM      1  C   UNL d   1      31.992  17.782 -23.949  0.00  0.00     0.105 A 
ATOM      2  C   UNL d   1      32.221  17.011 -24.089  0.00  0.00     0.014 A 
ATOM      3  C   UNL d   1      31.677  16.461 -24.378  0.00  0.00     0.024 A 
ATOM      4  C   UNL d   1      31.211  18.014 -24.096  0.00  0.00     0.015 A 
ATOM      5  C   UNL d   1      30.905  16.683 -24.525  0.00  0.00     0.100 A 
ATOM      6  C   UNL d   1      30.667  17.465 -24.384  0.00  0.00     0.025 A 
ATOM      7  C   UNL d   1      32.999  16.782 -23.942  0.00  0.00     0.001 A 
ATOM      8  C   UNL d   1      31.912  15.683 -24.518  0.00  0.00     0.002 A 
ATOM      9  C   UNL d   1      33.235  16.004 -24.083  0.00  0.00     0.000 A 
ATOM     10  C   UNL d   1      32.691  15.454 -24.371  0.00  0.00     0.000 A 
ENDROOT
BRANCH   1  11
ATOM     11  S   UNL d   1      32.536  18.332 -23.661  0.00  0.00     0.285 S 
ATOM     12  O   UNL d   1      32.692  18.584 -24.438  0.00  0.00    -0.198 OA
ATOM     13  O   UNL d   1      32.383  18.084 -22.900  0.00  0.00    -0.198 OA
BRANCH  11  14
ATOM     14  N   UNL d   1      33.080  18.881 -23.373  0.00  0.00    -0.155 NA
BRANCH  14  15
ATOM     15  C   UNL d   1      32.835  19.485 -22.880  0.00  0.00     0.131 C 
BRANCH  15  16
ATOM     16  C   UNL d   1      33.231  20.209 -22.879  0.00  0.00     0.102 C 
BRANCH  16  17
ATOM     17  N   UNL d   1      33.086  20.757 -22.281  0.00  0.00    -0.298 N 
ATOM     18  C   UNL d   1      33.190  21.563 -22.425  0.00  0.00     0.107 A 
ATOM     19  C   UNL d   1      33.045  22.116 -21.825  0.00  0.00     0.142 A 
ATOM     20  O   UNL d   1      32.795  21.859 -21.082  0.00  0.00    -0.300 OA
ATOM     21  C   UNL d   1      32.691  21.049 -20.938  0.00  0.00     0.142 A 
ATOM     22  C   UNL d   1      32.836  20.500 -21.538  0.00  0.00     0.107 A 
ENDBRANCH  16  17
ENDBRANCH  15  16
ENDBRANCH  14  15
ENDBRANCH  11  14
ENDBRANCH   1  11
BRANCH   5  23
ATOM     23  O   UNL d   1      30.357  16.139 -24.813  0.00  0.00    -0.305 OA
BRANCH  23  24
ATOM     24  C   UNL d   1      29.553  16.315 -24.815  0.00  0.00     0.123 C 
ATOM     25  C   UNL d   1      29.008  15.763 -25.095  0.00  0.00     0.029 C 
ENDBRANCH  23  24
ENDBRANCH   5  23
TORSDOF 7
ENDMDL
MODEL 2
REMARK VINA RESULT:      -1.0      1.295      4.984
REMARK  7 active torsions:
REMARK  status: ('A' for Active; 'I' for Inactive)
REMARK    1  A    between atoms: C_2  and  S_1 
REMARK    2  A    between atoms: N_8  and  S_1 
REMARK    3  A    between atoms: C_13  and  N_8 
REMARK    4  A    between atoms: N_9  and  C_14 
REMARK    5  A    between atoms: O_15  and  C_10 
REMARK    6  A    between atoms: C_14  and  C_13 
REMARK    7  A    between atoms: C_22  and  O_15 
ROOT
ATOM      1  C   UNL d   1      32.683  18.902 -23.179  0.00  0.00     0.105 A 
ATOM      2  C   UNL d   1      32.868  19.608 -23.544  0.00  0.00     0.014 A 
ATOM      3  C   UNL d   1      33.054  20.274 -23.093  0.00  0.00     0.024 A 
ATOM      4  C   UNL d   1      32.682  18.852 -22.352  0.00  0.00     0.015 A 
ATOM      5  C   UNL d   1      33.055  20.232 -22.277  0.00  0.00     0.100 A 
ATOM      6  C   UNL d   1      32.868  19.517 -21.901  0.00  0.00     0.025 A 
ATOM      7  C   UNL d   1      32.868  19.655 -24.367  0.00  0.00     0.001 A 
ATOM      8  C   UNL d   1      33.241  20.986 -23.465  0.00  0.00     0.002 A 
ATOM      9  C   UNL d   1      33.054  20.367 -24.741  0.00  0.00     0.000 A 
ATOM     10  C   UNL d   1      33.241  21.032 -24.290  0.00  0.00     0.000 A 
ENDROOT
BRANCH   1  11
ATOM     11  S   UNL d   1      32.496  18.237 -23.630  0.00  0.00     0.285 S 
ATOM     12  O   UNL d   1      31.736  18.545 -23.770  0.00  0.00    -0.198 OA
ATOM     13  O   UNL d   1      33.241  17.935 -23.493  0.00  0.00    -0.198 OA
BRANCH  11  14
ATOM     14  N   UNL d   1      32.310  17.571 -24.081  0.00  0.00    -0.155 NA
BRANCH  14  15
ATOM     15  C   UNL d   1      31.649  17.125 -23.905  0.00  0.00     0.131 C 
BRANCH  15  16
ATOM     16  C   UNL d   1      31.325  16.618 -24.469  0.00  0.00     0.102 C 
BRANCH  16  17
ATOM     17  N   UNL d   1      30.553  16.342 -24.382  0.00  0.00    -0.298 N 
ATOM     18  C   UNL d   1      30.010  16.431 -24.997  0.00  0.00     0.107 A 
ATOM     19  C   UNL d   1      29.234  16.155 -24.911  0.00  0.00     0.142 A 
ATOM     20  O   UNL d   1      29.004  15.790 -24.207  0.00  0.00    -0.300 OA
ATOM     21  C   UNL d   1      29.550  15.701 -23.590  0.00  0.00     0.142 A 
ATOM     22  C   UNL d   1      30.323  15.977 -23.678  0.00  0.00     0.107 A 
ENDBRANCH  16  17
ENDBRANCH  15  16
ENDBRANCH  14  15
ENDBRANCH  11  14
ENDBRANCH   1  11
BRANCH   5  23
ATOM     23  O   UNL d   1      33.241  20.893 -21.821  0.00  0.00    -0.305 OA
BRANCH  23  24
ATOM     24  C   UNL d   1      33.162  20.872 -21.002  0.00  0.00     0.123 C 
ATOM     25  C   UNL d   1      32.845  21.518 -20.600  0.00  0.00     0.029 C 
ENDBRANCH  23  24
ENDBRANCH   5  23
TORSDOF 7
ENDMDL
MODEL 3
REMARK VINA RESULT:      -0.7      1.423      5.661
REMARK  7 active torsions:
REMARK  status: ('A' for Active; 'I' for Inactive)
REMARK    1  A    between atoms: C_2  and  S_1 
REMARK    2  A    between atoms: N_8  and  S_1 
REMARK    3  A    between atoms: C_13  and  N_8 
REMARK    4  A    between atoms: N_9  and  C_14 
REMARK    5  A    between atoms: O_15  and  C_10 
REMARK    6  A    between atoms: C_14  and  C_13 
REMARK    7  A    between atoms: C_22  and  O_15 
ROOT
ATOM      1  C   UNL d   1      32.926  20.921 -22.000  0.00  0.00     0.105 A 
ATOM      2  C   UNL d   1      32.977  21.702 -22.235  0.00  0.00     0.014 A 
ATOM      3  C   UNL d   1      32.820  22.309 -21.698  0.00  0.00     0.024 A 
ATOM      4  C   UNL d   1      32.716  20.737 -21.220  0.00  0.00     0.015 A 
ATOM      5  C   UNL d   1      32.612  22.135 -20.927  0.00  0.00     0.100 A 
ATOM      6  C   UNL d   1      32.559  21.344 -20.684  0.00  0.00     0.025 A 
ATOM      7  C   UNL d   1      33.186  21.882 -23.011  0.00  0.00     0.001 A 
ATOM      8  C   UNL d   1      32.873  23.096 -21.938  0.00  0.00     0.002 A 
ATOM      9  C   UNL d   1      33.239  22.670 -23.253  0.00  0.00     0.000 A 
ATOM     10  C   UNL d   1      33.082  23.277 -22.716  0.00  0.00     0.000 A 
ENDROOT
BRANCH   1  11
ATOM     11  S   UNL d   1      33.083  20.315 -22.537  0.00  0.00     0.285 S 
ATOM     12  O   UNL d   1      33.241  19.797 -21.905  0.00  0.00    -0.198 OA
ATOM     13  O   UNL d   1      32.928  20.822 -23.156  0.00  0.00    -0.198 OA
BRANCH  11  14
ATOM     14  N   UNL d   1      33.240  19.708 -23.074  0.00  0.00    -0.155 NA
BRANCH  14  15
ATOM     15  C   UNL d   1      32.786  19.028 -23.073  0.00  0.00     0.131 C 
BRANCH  15  16
ATOM     16  C   UNL d   1      32.857  18.479 -23.684  0.00  0.00     0.102 C 
BRANCH  16  17
ATOM     17  N   UNL d   1      32.529  17.727 -23.602  0.00  0.00    -0.298 N 
ATOM     18  C   UNL d   1      32.996  17.099 -23.342  0.00  0.00     0.107 A 
ATOM     19  C   UNL d   1      32.669  16.342 -23.259  0.00  0.00     0.142 A 
ATOM     20  O   UNL d   1      31.873  16.217 -23.438  0.00  0.00    -0.300 OA
ATOM     21  C   UNL d   1      31.404  16.849 -23.699  0.00  0.00     0.142 A 
ATOM     22  C   UNL d   1      31.733  17.602 -23.781  0.00  0.00     0.107 A 
ENDBRANCH  16  17
ENDBRANCH  15  16
ENDBRANCH  14  15
ENDBRANCH  11  14
ENDBRANCH   1  11
BRANCH   5  23
ATOM     23  O   UNL d   1      32.454  22.736 -20.386  0.00  0.00    -0.305 OA
BRANCH  23  24
ATOM     24  C   UNL d   1      32.583  22.620 -19.582  0.00  0.00     0.123 C 
ATOM     25  C   UNL d   1      32.648  23.268 -19.076  0.00  0.00     0.029 C 
ENDBRANCH  23  24
ENDBRANCH   5  23
TORSDOF 7
ENDMDL
