MODEL 1
REMARK VINA RESULT:      -1.6      0.000      0.000
REMARK  3 active torsions:
REMARK  status: ('A' for Active; 'I' for Inactive)
REMARK    1  A    between atoms: C_9  and  S_1 
REMARK       I    between atoms: C_4  and  N_8 
REMARK    2  A    between atoms: C_5  and  C_4 
REMARK    3  A    between atoms: N_8  and  C_18 
ROOT
ATOM      1  C   UNL d   1      59.979   0.158  28.980  0.00  0.00     0.302 C 
ATOM      2  N   UNL d   1      59.459   0.661  29.367  0.00  0.00    -0.206 NA
ATOM      3  O   UNL d   1      60.534   0.461  28.455  0.00  0.00    -0.263 OA
ENDROOT
BRANCH   1   4
ATOM      4  C   UNL d   1      59.949  -0.652  29.112  0.00  0.00     0.161 A 
ATOM      5  O   UNL d   1      60.481  -1.000  29.653  0.00  0.00    -0.268 OA
ATOM      6  C   UNL d   1      60.454  -1.820  29.789  0.00  0.00     0.300 A 
ATOM      7  O   UNL d   1      60.978  -2.162  30.321  0.00  0.00    -0.259 OA
ATOM      8  C   UNL d   1      59.902  -2.293  29.392  0.00  0.00     0.064 A 
ATOM      9  C   UNL d   1      59.373  -1.939  28.854  0.00  0.00     0.007 A 
ATOM     10  C   UNL d   1      59.877  -3.101  29.528  0.00  0.00     0.005 A 
ATOM     11  C   UNL d   1      59.395  -1.125  28.713  0.00  0.00     0.030 A 
ATOM     12  C   UNL d   1      58.821  -2.413  28.457  0.00  0.00     0.000 A 
ATOM     13  C   UNL d   1      58.804  -3.225  28.601  0.00  0.00     0.000 A 
ATOM     14  C   UNL d   1      59.328  -3.567  29.133  0.00  0.00     0.000 A 
ENDBRANCH   1   4
BRANCH   2  15
ATOM     15  C   UNL d   1      58.903   0.352  29.894  0.00  0.00     0.085 A 
ATOM     16  C   UNL d   1      59.104   0.251  30.681  0.00  0.00     0.020 A 
ATOM     17  C   UNL d   1      58.552  -0.057  31.208  0.00  0.00     0.015 A 
ATOM     18  C   UNL d   1      57.797  -0.262  30.939  0.00  0.00     0.107 A 
ATOM     19  C   UNL d   1      57.603  -0.156  30.145  0.00  0.00     0.015 A 
ATOM     20  C   UNL d   1      58.149   0.148  29.623  0.00  0.00     0.020 A 
BRANCH  18  21
ATOM     21  S   UNL d   1      57.245  -0.569  31.466  0.00  0.00     0.302 S 
ATOM     22  O   UNL d   1      57.096  -1.243  31.035  0.00  0.00    -0.197 OA
ATOM     23  O   UNL d   1      57.403   0.119  31.898  0.00  0.00    -0.197 OA
ATOM     24  N   UNL d   1      56.710  -0.804  32.040  0.00  0.00    -0.043 N 
ENDBRANCH  18  21
ENDBRANCH   2  15
TORSDOF 3
ENDMDL
MODEL 2
REMARK VINA RESULT:      -1.1      1.849      3.519
REMARK  3 active torsions:
REMARK  status: ('A' for Active; 'I' for Inactive)
REMARK    1  A    between atoms: C_9  and  S_1 
REMARK       I    between atoms: C_4  and  N_8 
REMARK    2  A    between atoms: C_5  and  C_4 
REMARK    3  A    between atoms: N_8  and  C_18 
ROOT
ATOM      1  C   UNL d   1      58.153   0.075  29.303  0.00  0.00     0.302 C 
ATOM      2  N   UNL d   1      57.997  -0.660  28.972  0.00  0.00    -0.206 NA
ATOM      3  O   UNL d   1      57.586   0.669  29.276  0.00  0.00    -0.263 OA
ENDROOT
BRANCH   1   4
ATOM      4  C   UNL d   1      58.876   0.223  29.664  0.00  0.00     0.161 A 
ATOM      5  O   UNL d   1      59.549   0.363  29.192  0.00  0.00    -0.268 OA
ATOM      6  C   UNL d   1      60.283   0.513  29.555  0.00  0.00     0.300 A 
ATOM      7  O   UNL d   1      60.946   0.651  29.090  0.00  0.00    -0.259 OA
ATOM      8  C   UNL d   1      60.348   0.524  30.380  0.00  0.00     0.064 A 
ATOM      9  C   UNL d   1      59.671   0.383  30.846  0.00  0.00     0.007 A 
ATOM     10  C   UNL d   1      61.072   0.672  30.736  0.00  0.00     0.005 A 
ATOM     11  C   UNL d   1      58.939   0.233  30.492  0.00  0.00     0.030 A 
ATOM     12  C   UNL d   1      59.737   0.394  31.672  0.00  0.00     0.000 A 
ATOM     13  C   UNL d   1      60.470   0.544  32.019  0.00  0.00     0.000 A 
ATOM     14  C   UNL d   1      61.133   0.682  31.554  0.00  0.00     0.000 A 
ENDBRANCH   1   4
BRANCH   2  15
ATOM     15  C   UNL d   1      58.569  -1.254  29.001  0.00  0.00     0.085 A 
ATOM     16  C   UNL d   1      58.512  -1.843  29.568  0.00  0.00     0.020 A 
ATOM     17  C   UNL d   1      59.080  -2.436  29.600  0.00  0.00     0.015 A 
ATOM     18  C   UNL d   1      59.707  -2.435  29.059  0.00  0.00     0.107 A 
ATOM     19  C   UNL d   1      59.756  -1.838  28.492  0.00  0.00     0.015 A 
ATOM     20  C   UNL d   1      59.194  -1.251  28.460  0.00  0.00     0.020 A 
BRANCH  18  21
ATOM     21  S   UNL d   1      60.276  -3.029  29.091  0.00  0.00     0.302 S 
ATOM     22  O   UNL d   1      60.905  -2.540  28.931  0.00  0.00    -0.197 OA
ATOM     23  O   UNL d   1      59.628  -3.519  29.253  0.00  0.00    -0.197 OA
ATOM     24  N   UNL d   1      60.775  -3.676  29.141  0.00  0.00    -0.043 N 
ENDBRANCH  18  21
ENDBRANCH   2  15
TORSDOF 3
ENDMDL
MODEL 3
REMARK VINA RESULT:      -0.5      0.869      1.223
REMARK  3 active torsions:
REMARK  status: ('A' for Active; 'I' for Inactive)
REMARK    1  A    between atoms: C_9  and  S_1 
REMARK       I    between atoms: C_4  and  N_8 
REMARK    2  A    between atoms: C_5  and  C_4 
REMARK    3  A    between atoms: N_8  and  C_18 
ROOT
ATOM      1  C   UNL d   1      59.657   0.163  29.049  0.00  0.00     0.302 C 
ATOM      2  N   UNL d   1      59.320   0.682  29.588  0.00  0.00    -0.206 NA
ATOM      3  O   UNL d   1      60.229   0.428  28.522  0.00  0.00    -0.263 OA
ENDROOT
BRANCH   1   4
ATOM      4  C   UNL d   1      59.425  -0.625  29.030  0.00  0.00     0.161 A 
ATOM      5  O   UNL d   1      58.665  -0.823  28.751  0.00  0.00    -0.268 OA
ATOM      6  C   UNL d   1      58.428  -1.621  28.731  0.00  0.00     0.300 A 
ATOM      7  O   UNL d   1      57.679  -1.816  28.455  0.00  0.00    -0.259 OA
ATOM      8  C   UNL d   1      58.941  -2.218  28.987  0.00  0.00     0.064 A 
ATOM      9  C   UNL d   1      59.700  -2.012  29.265  0.00  0.00     0.007 A 
ATOM     10  C   UNL d   1      58.705  -3.002  28.966  0.00  0.00     0.005 A 
ATOM     11  C   UNL d   1      59.942  -1.222  29.288  0.00  0.00     0.030 A 
ATOM     12  C   UNL d   1      60.213  -2.610  29.522  0.00  0.00     0.000 A 
ATOM     13  C   UNL d   1      59.966  -3.397  29.497  0.00  0.00     0.000 A 
ATOM     14  C   UNL d   1      59.217  -3.592  29.221  0.00  0.00     0.000 A 
ENDBRANCH   1   4
BRANCH   2  15
ATOM     15  C   UNL d   1      58.745   0.411  30.116  0.00  0.00     0.085 A 
ATOM     16  C   UNL d   1      58.974   0.018  30.796  0.00  0.00     0.020 A 
ATOM     17  C   UNL d   1      58.404  -0.253  31.324  0.00  0.00     0.015 A 
ATOM     18  C   UNL d   1      57.602  -0.126  31.163  0.00  0.00     0.107 A 
ATOM     19  C   UNL d   1      57.381   0.271  30.475  0.00  0.00     0.015 A 
ATOM     20  C   UNL d   1      57.945   0.539  29.953  0.00  0.00     0.020 A 
BRANCH  18  21
ATOM     21  S   UNL d   1      57.032  -0.397  31.691  0.00  0.00     0.302 S 
ATOM     22  O   UNL d   1      57.334  -1.150  31.748  0.00  0.00    -0.197 OA
ATOM     23  O   UNL d   1      56.732   0.372  31.627  0.00  0.00    -0.197 OA
ATOM     24  N   UNL d   1      56.430  -0.586  32.213  0.00  0.00    -0.043 N 
ENDBRANCH  18  21
ENDBRANCH   2  15
TORSDOF 3
ENDMDL
