MODEL 1
REMARK VINA RESULT:       8.2      0.000      0.000
REMARK  3 active torsions:
REMARK  status: ('A' for Active; 'I' for Inactive)
REMARK    1  A    between atoms: C_2  and  S_1 
REMARK    2  A    between atoms: N_6  and  S_1 
REMARK    3  A    between atoms: N_3  and  C_5 
ROOT
ATOM      1  C   UNL d   1      23.753  12.714  -1.313  0.00  0.00     0.106 A 
ATOM      2  C   UNL d   1      23.612  12.890  -2.106  0.00  0.00     0.036 A 
ATOM      3  C   UNL d   1      24.049  12.510  -2.695  0.00  0.00     0.127 A 
ATOM      4  C   UNL d   1      24.330  12.159  -1.107  0.00  0.00     0.012 A 
ATOM      5  C   UNL d   1      24.625  11.955  -2.489  0.00  0.00     0.024 A 
ATOM      6  C   UNL d   1      24.766  11.779  -1.695  0.00  0.00     0.002 A 
ATOM      7  C   UNL d   1      24.472  11.982  -0.305  0.00  0.00     0.001 C 
ENDROOT
BRANCH   1   8
ATOM      8  S   UNL d   1      23.314  13.096  -0.713  0.00  0.00     0.272 S 
ATOM      9  O   UNL d   1      23.690  13.329  -0.015  0.00  0.00    -0.200 OA
ATOM     10  O   UNL d   1      22.508  13.240  -0.816  0.00  0.00    -0.200 OA
BRANCH   8  11
ATOM     11  N   UNL d   1      22.721  13.447  -0.258  0.00  0.00    -0.226 N 
ATOM     12  C   UNL d   1      22.060  13.005  -0.022  0.00  0.00     0.111 C 
ATOM     13  C   UNL d   1      22.789  14.242  -0.040  0.00  0.00     0.111 C 
ENDBRANCH   8  11
ENDBRANCH   1   8
BRANCH   3  14
ATOM     14  N   UNL d   1      23.908  12.686  -3.488  0.00  0.00    -0.114 N 
ATOM     15  O   UNL d   1      23.152  12.914  -3.730  0.00  0.00    -0.532 OA
ATOM     16  O   UNL d   1      24.521  12.635  -4.039  0.00  0.00    -0.532 OA
ENDBRANCH   3  14
TORSDOF 3
ENDMDL
