MODEL 1
REMARK VINA RESULT:      33.3      0.000      0.000
REMARK  3 active torsions:
REMARK  status: ('A' for Active; 'I' for Inactive)
REMARK    1  A    between atoms: C_8  and  C_2 
REMARK    2  A    between atoms: C_7  and  C_5 
REMARK    3  A    between atoms: C_10  and  C_8 
ROOT
ATOM      1  C   UNL d   1      58.320  49.687  51.220  0.00  0.00     0.101 A 
ATOM      2  O   UNL d   1      59.000  49.700  50.774  0.00  0.00    -0.307 OA
ATOM      3  C   UNL d   1      59.638  49.697  51.310  0.00  0.00     0.101 A 
ATOM      4  C   UNL d   1      58.554  49.677  51.999  0.00  0.00     0.027 A 
ATOM      5  C   UNL d   1      59.364  49.684  52.019  0.00  0.00     0.027 A 
ENDROOT
BRANCH   1   6
ATOM      6  C   UNL d   1      57.555  49.685  50.906  0.00  0.00     0.034 A 
ATOM      7  C   UNL d   1      57.464  49.691  50.060  0.00  0.00     0.070 A 
ATOM      8  C   UNL d   1      56.685  49.689  49.728  0.00  0.00     0.068 A 
ATOM      9 CL   UNL d   1      58.111  49.699  49.454  0.00  0.00    -0.081 Cl
ATOM     10 CL   UNL d   1      56.743  49.695  48.914  0.00  0.00    -0.082 Cl
ATOM     11  C   UNL d   1      56.035  49.681  50.245  0.00  0.00     0.012 A 
ATOM     12  C   UNL d   1      56.145  49.676  51.077  0.00  0.00     0.001 A 
ATOM     13  C   UNL d   1      56.892  49.677  51.390  0.00  0.00     0.003 A 
ENDBRANCH   1   6
BRANCH   3  14
ATOM     14  C   UNL d   1      60.458  49.708  51.128  0.00  0.00     0.036 C 
BRANCH  14  15
ATOM     15  C   UNL d   1      60.808  49.027  50.820  0.00  0.00     0.094 A 
ATOM     16  C   UNL d   1      61.148  49.026  50.076  0.00  0.00     0.288 A 
ATOM     17  N   UNL d   1      61.455  48.262  49.920  0.00  0.00    -0.163 NA
ATOM     18  O   UNL d   1      61.187  49.701  49.535  0.00  0.00    -0.265 OA
ATOM     19  C   UNL d   1      61.301  47.837  50.545  0.00  0.00     0.313 A 
ATOM     20  S   UNL d   1      60.897  48.279  51.132  0.00  0.00    -0.021 SA
ATOM     21  O   UNL d   1      61.543  47.037  50.555  0.00  0.00    -0.258 OA
ENDBRANCH  14  15
ENDBRANCH   3  14
TORSDOF 3
ENDMDL
