MODEL 1
REMARK VINA RESULT:       3.1      0.000      0.000
REMARK  5 active torsions:
REMARK  status: ('A' for Active; 'I' for Inactive)
REMARK    1  A    between atoms: N_5  and  C_1 
REMARK    2  A    between atoms: N_8  and  C_2 
REMARK    3  A    between atoms: C_26  and  N_4 
REMARK    4  A    between atoms: C_22  and  N_9 
REMARK    5  A    between atoms: C_21  and  C_22 
ROOT
ATOM      1  C   UNL d   1     -42.563-121.744 -52.906  0.00  0.00     0.199 A 
ATOM      2  C   UNL d   1     -42.084-122.424 -52.873  0.00  0.00     0.092 A 
ATOM      3  C   UNL d   1     -42.795-121.428 -53.631  0.00  0.00     0.288 A 
ATOM      4  N   UNL d   1     -42.547-121.794 -54.334  0.00  0.00    -0.272 N 
ATOM      5  C   UNL d   1     -41.841-122.784 -53.582  0.00  0.00     0.034 A 
ATOM      6  C   UNL d   1     -42.072-122.468 -54.309  0.00  0.00     0.068 A 
ATOM      7  O   UNL d   1     -43.268-120.754 -53.655  0.00  0.00    -0.265 OA
ATOM      8  C   UNL d   1     -41.367-123.459 -53.557  0.00  0.00     0.003 A 
ATOM      9  C   UNL d   1     -41.829-122.828 -55.010  0.00  0.00     0.018 A 
ATOM     10  C   UNL d   1     -41.124-123.817 -54.260  0.00  0.00     0.000 A 
ATOM     11  C   UNL d   1     -41.355-123.502 -54.985  0.00  0.00     0.002 A 
ENDROOT
BRANCH   2  12
ATOM     12  N   UNL d   1     -41.853-122.741 -52.157  0.00  0.00    -0.300 N 
ATOM     13  C   UNL d   1     -42.120-123.489 -51.939  0.00  0.00     0.100 A 
ATOM     14  C   UNL d   1     -41.889-123.817 -51.212  0.00  0.00     0.100 A 
ATOM     15  N   UNL d   1     -41.391-123.396 -50.706  0.00  0.00    -0.300 N 
ATOM     16  C   UNL d   1     -41.123-122.643 -50.926  0.00  0.00     0.100 A 
ATOM     17  C   UNL d   1     -41.356-122.322 -51.649  0.00  0.00     0.100 A 
BRANCH  15  18
ATOM     18  C   UNL d   1     -41.161-123.719 -49.986  0.00  0.00     0.080 C 
BRANCH  18  19
ATOM     19  C   UNL d   1     -41.560-123.512 -49.296  0.00  0.00     0.020 A 
ATOM     20  C   UNL d   1     -41.136-123.281 -48.630  0.00  0.00     0.028 A 
ATOM     21  C   UNL d   1     -41.535-123.073 -47.940  0.00  0.00     0.119 A 
ATOM     22  O   UNL d   1     -41.267-122.825 -47.202  0.00  0.00    -0.300 OA
ATOM     23  C   UNL d   1     -42.359-123.097 -47.917  0.00  0.00     0.119 A 
ATOM     24  C   UNL d   1     -41.925-122.694 -46.720  0.00  0.00     0.304 A 
ATOM     25  O   UNL d   1     -42.603-122.862 -47.162  0.00  0.00    -0.300 OA
ATOM     26  C   UNL d   1     -42.784-123.329 -48.588  0.00  0.00     0.026 A 
ATOM     27  C   UNL d   1     -42.384-123.537 -49.278  0.00  0.00     0.004 A 
ENDBRANCH  18  19
ENDBRANCH  15  18
ENDBRANCH   2  12
BRANCH   1  28
ATOM     28  N   UNL d   1     -42.807-121.384 -52.199  0.00  0.00    -0.107 N 
ATOM     29  O   UNL d   1     -43.565-121.522 -51.908  0.00  0.00    -0.531 OA
ATOM     30  O   UNL d   1     -42.290-120.887 -51.785  0.00  0.00    -0.531 OA
ENDBRANCH   1  28
BRANCH   4  31
ATOM     31  C   UNL d   1     -42.777-121.479 -55.059  0.00  0.00     0.083 C 
ATOM     32  C   UNL d   1     -43.394-121.830 -55.490  0.00  0.00     0.021 C 
ENDBRANCH   4  31
TORSDOF 5
ENDMDL
MODEL 2
REMARK VINA RESULT:       3.3      1.587      5.376
REMARK  5 active torsions:
REMARK  status: ('A' for Active; 'I' for Inactive)
REMARK    1  A    between atoms: N_5  and  C_1 
REMARK    2  A    between atoms: N_8  and  C_2 
REMARK    3  A    between atoms: C_26  and  N_4 
REMARK    4  A    between atoms: C_22  and  N_9 
REMARK    5  A    between atoms: C_21  and  C_22 
ROOT
ATOM      1  C   UNL d   1     -43.406-123.202 -49.528  0.00  0.00     0.199 A 
ATOM      2  C   UNL d   1     -42.641-122.879 -49.473  0.00  0.00     0.092 A 
ATOM      3  C   UNL d   1     -43.785-123.499 -48.859  0.00  0.00     0.288 A 
ATOM      4  N   UNL d   1     -43.398-123.473 -48.125  0.00  0.00    -0.272 N 
ATOM      5  C   UNL d   1     -42.260-122.858 -48.735  0.00  0.00     0.034 A 
ATOM      6  C   UNL d   1     -42.639-123.155 -48.063  0.00  0.00     0.068 A 
ATOM      7  O   UNL d   1     -44.543-123.817 -48.921  0.00  0.00    -0.265 OA
ATOM      8  C   UNL d   1     -41.502-122.539 -48.673  0.00  0.00     0.003 A 
ATOM      9  C   UNL d   1     -42.259-123.132 -47.333  0.00  0.00     0.018 A 
ATOM     10  C   UNL d   1     -41.123-122.517 -47.940  0.00  0.00     0.000 A 
ATOM     11  C   UNL d   1     -41.501-122.813 -47.271  0.00  0.00     0.002 A 
ENDROOT
BRANCH   2  12
ATOM     12  N   UNL d   1     -42.262-122.584 -50.134  0.00  0.00    -0.300 N 
ATOM     13  C   UNL d   1     -42.514-121.872 -50.463  0.00  0.00     0.100 A 
ATOM     14  C   UNL d   1     -42.133-121.566 -51.134  0.00  0.00     0.100 A 
ATOM     15  N   UNL d   1     -41.502-121.973 -51.474  0.00  0.00    -0.300 N 
ATOM     16  C   UNL d   1     -41.247-122.690 -51.143  0.00  0.00     0.100 A 
ATOM     17  C   UNL d   1     -41.629-122.989 -50.476  0.00  0.00     0.100 A 
BRANCH  15  18
ATOM     18  C   UNL d   1     -41.123-121.672 -52.139  0.00  0.00     0.080 C 
BRANCH  18  19
ATOM     19  C   UNL d   1     -41.312-121.962 -52.886  0.00  0.00     0.020 A 
ATOM     20  C   UNL d   1     -41.200-122.759 -53.058  0.00  0.00     0.028 A 
ATOM     21  C   UNL d   1     -41.390-123.048 -53.806  0.00  0.00     0.119 A 
ATOM     22  O   UNL d   1     -41.339-123.802 -54.133  0.00  0.00    -0.300 OA
ATOM     23  C   UNL d   1     -41.692-122.540 -54.381  0.00  0.00     0.119 A 
ATOM     24  C   UNL d   1     -41.610-123.763 -54.913  0.00  0.00     0.304 A 
ATOM     25  O   UNL d   1     -41.829-122.981 -55.068  0.00  0.00    -0.300 OA
ATOM     26  C   UNL d   1     -41.805-121.739 -54.206  0.00  0.00     0.026 A 
ATOM     27  C   UNL d   1     -41.615-121.450 -53.458  0.00  0.00     0.004 A 
ENDBRANCH  18  19
ENDBRANCH  15  18
ENDBRANCH   2  12
BRANCH   1  28
ATOM     28  N   UNL d   1     -43.787-123.224 -50.265  0.00  0.00    -0.107 N 
ATOM     29  O   UNL d   1     -43.595-123.813 -50.809  0.00  0.00    -0.531 OA
ATOM     30  O   UNL d   1     -44.358-122.656 -50.456  0.00  0.00    -0.531 OA
ENDBRANCH   1  28
BRANCH   4  31
ATOM     31  C   UNL d   1     -43.776-123.769 -47.456  0.00  0.00     0.083 C 
ATOM     32  C   UNL d   1     -43.524-123.541 -46.698  0.00  0.00     0.021 C 
ENDBRANCH   4  31
TORSDOF 5
ENDMDL
