MODEL 1
REMARK VINA RESULT:      -8.5      0.000      0.000
REMARK  3 active torsions:
REMARK  status: ('A' for Active; 'I' for Inactive)
REMARK    1  A    between atoms: C_6  and  C_1 
REMARK       I    between atoms: N_10  and  C_6 
REMARK    2  A    between atoms: C_23  and  N_10 
REMARK    3  A    between atoms: C_22  and  C_23 
ROOT
ATOM      1  C   UNL d   1     -41.645-122.197 -51.004  0.00  0.00     0.266 C 
ATOM      2  N   UNL d   1     -41.564-122.665 -51.673  0.00  0.00    -0.210 NA
ATOM      3  O   UNL d   1     -41.593-121.412 -51.222  0.00  0.00    -0.269 OA
ENDROOT
BRANCH   1   4
ATOM      4  C   UNL d   1     -41.754-122.594 -50.301  0.00  0.00     0.150 A 
ATOM      5  C   UNL d   1     -41.697-123.363 -49.083  0.00  0.00     0.028 A 
ATOM      6  C   UNL d   1     -41.952-122.955 -49.611  0.00  0.00     0.078 A 
ATOM      7  C   UNL d   1     -41.173-123.814 -48.626  0.00  0.00     0.002 C 
ATOM      8  C   UNL d   1     -42.331-123.475 -48.566  0.00  0.00     0.002 C 
ATOM      9  C   UNL d   1     -42.581-123.072 -49.088  0.00  0.00     0.012 C 
ATOM     10  C   UNL d   1     -41.334-122.870 -50.075  0.00  0.00    -0.023 A 
ATOM     11  C   UNL d   1     -42.729-122.717 -49.588  0.00  0.00     0.211 A 
ATOM     12  C   UNL d   1     -41.123-122.568 -50.678  0.00  0.00    -0.015 A 
ATOM     13  C   UNL d   1     -42.503-122.370 -50.271  0.00  0.00     0.219 A 
ATOM     14  O   UNL d   1     -43.366-122.830 -49.068  0.00  0.00    -0.288 OA
ATOM     15  O   UNL d   1     -43.281-122.127 -50.256  0.00  0.00    -0.287 OA
ENDBRANCH   1   4
BRANCH   2  16
ATOM     16  C   UNL d   1     -41.450-122.313 -52.412  0.00  0.00     0.102 C 
BRANCH  16  17
ATOM     17  C   UNL d   1     -41.537-122.406 -53.224  0.00  0.00     0.021 A 
ATOM     18  C   UNL d   1     -42.036-121.894 -53.645  0.00  0.00     0.028 A 
ATOM     19  C   UNL d   1     -42.126-121.985 -54.470  0.00  0.00     0.119 A 
ATOM     20  O   UNL d   1     -42.569-121.575 -55.023  0.00  0.00    -0.300 OA
ATOM     21  C   UNL d   1     -41.714-122.589 -54.865  0.00  0.00     0.119 A 
ATOM     22  C   UNL d   1     -42.441-121.913 -55.760  0.00  0.00     0.304 A 
ATOM     23  O   UNL d   1     -41.911-122.542 -55.664  0.00  0.00    -0.300 OA
ATOM     24  C   UNL d   1     -41.218-123.094 -54.436  0.00  0.00     0.026 A 
ATOM     25  C   UNL d   1     -41.129-123.005 -53.620  0.00  0.00     0.004 A 
ENDBRANCH  16  17
ENDBRANCH   2  16
TORSDOF 3
ENDMDL
MODEL 2
REMARK VINA RESULT:      -7.8      0.695      4.805
REMARK  3 active torsions:
REMARK  status: ('A' for Active; 'I' for Inactive)
REMARK    1  A    between atoms: C_6  and  C_1 
REMARK       I    between atoms: N_10  and  C_6 
REMARK    2  A    between atoms: C_23  and  N_10 
REMARK    3  A    between atoms: C_22  and  C_23 
ROOT
ATOM      1  C   UNL d   1     -41.462-122.149 -52.822  0.00  0.00     0.266 C 
ATOM      2  N   UNL d   1     -41.600-122.742 -52.273  0.00  0.00    -0.210 NA
ATOM      3  O   UNL d   1     -41.232-121.471 -52.430  0.00  0.00    -0.269 OA
ENDROOT
BRANCH   1   4
ATOM      4  C   UNL d   1     -41.578-122.351 -53.603  0.00  0.00     0.150 A 
ATOM      5  C   UNL d   1     -41.611-122.897 -54.937  0.00  0.00     0.028 A 
ATOM      6  C   UNL d   1     -41.754-122.478 -54.377  0.00  0.00     0.078 A 
ATOM      7  C   UNL d   1     -41.278-123.500 -55.397  0.00  0.00     0.002 C 
ATOM      8  C   UNL d   1     -42.076-122.607 -55.554  0.00  0.00     0.002 C 
ATOM      9  C   UNL d   1     -42.217-122.193 -55.000  0.00  0.00     0.012 C 
ATOM     10  C   UNL d   1     -41.303-122.777 -53.819  0.00  0.00    -0.023 A 
ATOM     11  C   UNL d   1     -42.289-121.871 -54.463  0.00  0.00     0.211 A 
ATOM     12  C   UNL d   1     -41.123-122.697 -53.140  0.00  0.00    -0.015 A 
ATOM     13  C   UNL d   1     -42.094-121.770 -53.695  0.00  0.00     0.219 A 
ATOM     14  O   UNL d   1     -42.756-121.580 -55.083  0.00  0.00    -0.288 OA
ATOM     15  O   UNL d   1     -42.628-121.159 -53.772  0.00  0.00    -0.287 OA
ENDBRANCH   1   4
BRANCH   2  16
ATOM     16  C   UNL d   1     -41.497-122.590 -51.467  0.00  0.00     0.102 C 
BRANCH  16  17
ATOM     17  C   UNL d   1     -41.628-122.870 -50.705  0.00  0.00     0.021 A 
ATOM     18  C   UNL d   1     -42.259-122.567 -50.260  0.00  0.00     0.028 A 
ATOM     19  C   UNL d   1     -42.395-122.849 -49.486  0.00  0.00     0.119 A 
ATOM     20  O   UNL d   1     -42.960-122.661 -48.924  0.00  0.00    -0.300 OA
ATOM     21  C   UNL d   1     -41.896-123.432 -49.166  0.00  0.00     0.119 A 
ATOM     22  C   UNL d   1     -42.823-123.118 -48.255  0.00  0.00     0.304 A 
ATOM     23  O   UNL d   1     -42.164-123.597 -48.404  0.00  0.00    -0.300 OA
ATOM     24  C   UNL d   1     -41.270-123.728 -49.619  0.00  0.00     0.026 A 
ATOM     25  C   UNL d   1     -41.135-123.449 -50.384  0.00  0.00     0.004 A 
ENDBRANCH  16  17
ENDBRANCH   2  16
TORSDOF 3
ENDMDL
