MODEL 1
REMARK VINA RESULT:      45.3      0.000      0.000
REMARK  5 active torsions:
REMARK  status: ('A' for Active; 'I' for Inactive)
REMARK    1  A    between atoms: N_2  and  S_1 
REMARK    2  A    between atoms: C_5  and  S_1 
REMARK    3  A    between atoms: S_6  and  C_3 
REMARK    4  A    between atoms: C_15  and  S_6 
REMARK    5  A    between atoms: C_14  and  C_15 
ROOT
ATOM      1  N   UNL d   1      13.938  12.425  -3.230  0.00  0.00    -0.208 N 
ATOM      2  C   UNL d   1      13.763  13.170  -3.553  0.00  0.00     0.189 A 
ATOM      3  N   UNL d   1      13.060  13.106  -3.981  0.00  0.00    -0.219 NA
ATOM      4  C   UNL d   1      13.337  11.900  -3.461  0.00  0.00     0.114 A 
ATOM      5  C   UNL d   1      12.800  12.322  -3.922  0.00  0.00     0.121 A 
ENDROOT
BRANCH   1   6
ATOM      6  S   UNL d   1      14.596  12.243  -2.760  0.00  0.00     0.273 S 
ATOM      7  O   UNL d   1      15.372  12.101  -2.511  0.00  0.00    -0.200 OA
ATOM      8  O   UNL d   1      15.057  12.354  -3.427  0.00  0.00    -0.200 OA
BRANCH   6   9
ATOM      9  C   UNL d   1      14.147  12.127  -2.077  0.00  0.00     0.104 A 
ATOM     10  C   UNL d   1      13.342  11.982  -2.147  0.00  0.00     0.013 A 
ATOM     11  C   UNL d   1      12.897  11.866  -1.460  0.00  0.00     0.001 A 
ATOM     12  C   UNL d   1      13.257  11.896  -0.716  0.00  0.00     0.000 A 
ATOM     13  C   UNL d   1      14.068  12.042  -0.658  0.00  0.00     0.001 A 
ATOM     14  C   UNL d   1      12.808  11.779  -0.033  0.00  0.00     0.000 C 
ATOM     15  C   UNL d   1      14.514  12.158  -1.344  0.00  0.00     0.013 A 
ENDBRANCH   6   9
ENDBRANCH   1   6
BRANCH   2  16
ATOM     16  S   UNL d   1      14.219  13.860  -3.460  0.00  0.00    -0.049 SA
BRANCH  16  17
ATOM     17  C   UNL d   1      13.858  14.558  -3.212  0.00  0.00     0.040 C 
BRANCH  17  18
ATOM     18  C   UNL d   1      14.228  15.280  -3.350  0.00  0.00     0.026 A 
ATOM     19  C   UNL d   1      14.670  15.397  -4.053  0.00  0.00     0.099 A 
ATOM     20  N   UNL d   1      15.044  16.112  -4.204  0.00  0.00    -0.242 NA
ATOM     21  C   UNL d   1      14.976  16.717  -3.650  0.00  0.00     0.099 A 
ATOM     22  C   UNL d   1      14.543  16.608  -2.959  0.00  0.00     0.021 A 
ATOM     23  C   UNL d   1      14.169  15.889  -2.810  0.00  0.00     0.004 A 
ENDBRANCH  17  18
ENDBRANCH  16  17
ENDBRANCH   2  16
TORSDOF 5
ENDMDL
MODEL 2
REMARK VINA RESULT:      45.9      2.515      4.899
REMARK  5 active torsions:
REMARK  status: ('A' for Active; 'I' for Inactive)
REMARK    1  A    between atoms: N_2  and  S_1 
REMARK    2  A    between atoms: C_5  and  S_1 
REMARK    3  A    between atoms: S_6  and  C_3 
REMARK    4  A    between atoms: C_15  and  S_6 
REMARK    5  A    between atoms: C_14  and  C_15 
ROOT
ATOM      1  N   UNL d   1      15.343  15.734  -0.563  0.00  0.00    -0.208 N 
ATOM      2  C   UNL d   1      15.568  14.989  -0.273  0.00  0.00     0.189 A 
ATOM      3  N   UNL d   1      16.384  14.998  -0.145  0.00  0.00    -0.219 NA
ATOM      4  C   UNL d   1      16.027  16.204  -0.614  0.00  0.00     0.114 A 
ATOM      5  C   UNL d   1      16.663  15.748  -0.356  0.00  0.00     0.121 A 
ENDROOT
BRANCH   1   6
ATOM      6  S   UNL d   1      14.573  15.963  -0.765  0.00  0.00     0.273 S 
ATOM      7  O   UNL d   1      13.760  16.113  -0.730  0.00  0.00    -0.200 OA
ATOM      8  O   UNL d   1      14.346  15.731  -0.014  0.00  0.00    -0.200 OA
BRANCH   6   9
ATOM      9  C   UNL d   1      14.784  16.203  -1.526  0.00  0.00     0.104 A 
ATOM     10  C   UNL d   1      15.171  16.920  -1.627  0.00  0.00     0.013 A 
ATOM     11  C   UNL d   1      15.380  17.156  -2.392  0.00  0.00     0.001 A 
ATOM     12  C   UNL d   1      15.202  16.678  -3.042  0.00  0.00     0.000 A 
ATOM     13  C   UNL d   1      14.811  15.958  -2.928  0.00  0.00     0.001 A 
ATOM     14  C   UNL d   1      15.412  16.918  -3.804  0.00  0.00     0.000 C 
ATOM     15  C   UNL d   1      14.601  15.721  -2.165  0.00  0.00     0.013 A 
ENDBRANCH   6   9
ENDBRANCH   1   6
BRANCH   2  16
ATOM     16  S   UNL d   1      15.058  14.346  -0.135  0.00  0.00    -0.049 SA
BRANCH  16  17
ATOM     17  C   UNL d   1      15.351  13.577  -0.171  0.00  0.00     0.040 C 
BRANCH  17  18
ATOM     18  C   UNL d   1      14.885  12.977  -0.487  0.00  0.00     0.026 A 
ATOM     19  C   UNL d   1      14.933  12.795  -1.304  0.00  0.00     0.099 A 
ATOM     20  N   UNL d   1      14.475  12.200  -1.633  0.00  0.00    -0.242 NA
ATOM     21  C   UNL d   1      13.963  11.780  -1.144  0.00  0.00     0.099 A 
ATOM     22  C   UNL d   1      13.912  11.953  -0.341  0.00  0.00     0.021 A 
ATOM     23  C   UNL d   1      14.374  12.553  -0.014  0.00  0.00     0.004 A 
ENDBRANCH  17  18
ENDBRANCH  16  17
ENDBRANCH   2  16
TORSDOF 5
ENDMDL
