MODEL 1
REMARK VINA RESULT:      -6.6      0.000      0.000
REMARK  8 active torsions:
REMARK  status: ('A' for Active; 'I' for Inactive)
REMARK    1  A    between atoms: C_6  and  N_1 
REMARK    2  A    between atoms: C_7  and  C_2 
REMARK    3  A    between atoms: C_8  and  C_6 
REMARK    4  A    between atoms: O_14  and  C_8 
REMARK    5  A    between atoms: O_15  and  C_8 
REMARK    6  A    between atoms: O_18  and  C_11 
REMARK    7  A    between atoms: C_20  and  O_14 
REMARK    8  A    between atoms: C_19  and  O_15 
ROOT
ATOM      1  N   UNL d   1      52.939  32.209  53.142  0.00  0.00    -0.286 N 
ATOM      2  C   UNL d   1      52.118  32.245  53.051  0.00  0.00     0.148 A 
ATOM      3  N   UNL d   1      51.853  31.464  53.085  0.00  0.00    -0.227 NA
ATOM      4  C   UNL d   1      53.162  31.440  53.227  0.00  0.00     0.083 A 
ATOM      5  C   UNL d   1      52.481  30.973  53.191  0.00  0.00     0.099 A 
ATOM      6  C   UNL d   1      53.904  31.088  53.334  0.00  0.00     0.019 A 
ATOM      7  C   UNL d   1      52.562  30.169  53.264  0.00  0.00     0.021 A 
ATOM      8  C   UNL d   1      53.943  30.287  53.402  0.00  0.00     0.002 A 
ATOM      9  C   UNL d   1      53.262  29.821  53.367  0.00  0.00     0.002 A 
ENDROOT
BRANCH   1  10
ATOM     10  C   UNL d   1      53.434  32.848  53.143  0.00  0.00     0.133 C 
BRANCH  10  11
ATOM     11  C   UNL d   1      53.966  32.936  53.781  0.00  0.00     0.222 C 
BRANCH  11  12
ATOM     12  O   UNL d   1      54.784  32.911  53.658  0.00  0.00    -0.282 OA
BRANCH  12  13
ATOM     13  C   UNL d   1      55.508  33.283  53.633  0.00  0.00     0.125 C 
ATOM     14  C   UNL d   1      55.939  33.291  52.924  0.00  0.00     0.029 C 
ENDBRANCH  12  13
ENDBRANCH  11  12
BRANCH  11  15
ATOM     15  O   UNL d   1      53.678  33.053  54.569  0.00  0.00    -0.282 OA
BRANCH  15  16
ATOM     16  C   UNL d   1      53.952  33.391  55.267  0.00  0.00     0.125 C 
ATOM     17  C   UNL d   1      53.578  34.050  55.588  0.00  0.00     0.029 C 
ENDBRANCH  15  16
ENDBRANCH  11  15
ENDBRANCH  10  11
ENDBRANCH   1  10
BRANCH   2  18
ATOM     18  C   UNL d   1      51.659  32.922  52.948  0.00  0.00     0.035 A 
ATOM     19  C   UNL d   1      51.030  33.076  53.465  0.00  0.00     0.005 A 
ATOM     20  C   UNL d   1      50.571  33.754  53.362  0.00  0.00     0.024 A 
ATOM     21  C   UNL d   1      50.741  34.278  52.742  0.00  0.00     0.094 A 
ATOM     22  C   UNL d   1      51.368  34.122  52.229  0.00  0.00     0.024 A 
ATOM     23  C   UNL d   1      51.827  33.444  52.332  0.00  0.00     0.005 A 
BRANCH  21  24
ATOM     24  O   UNL d   1      50.282  34.955  52.639  0.00  0.00    -0.328 OA
ATOM     25  C   UNL d   1      49.460  34.888  52.552  0.00  0.00     0.181 C 
ENDBRANCH  21  24
ENDBRANCH   2  18
TORSDOF 8
ENDMDL
MODEL 2
REMARK VINA RESULT:      -6.5      1.376      3.633
REMARK  8 active torsions:
REMARK  status: ('A' for Active; 'I' for Inactive)
REMARK    1  A    between atoms: C_6  and  N_1 
REMARK    2  A    between atoms: C_7  and  C_2 
REMARK    3  A    between atoms: C_8  and  C_6 
REMARK    4  A    between atoms: O_14  and  C_8 
REMARK    5  A    between atoms: O_15  and  C_8 
REMARK    6  A    between atoms: O_18  and  C_11 
REMARK    7  A    between atoms: C_20  and  O_14 
REMARK    8  A    between atoms: C_19  and  O_15 
ROOT
ATOM      1  N   UNL d   1      53.004  32.636  53.672  0.00  0.00    -0.286 N 
ATOM      2  C   UNL d   1      52.670  31.993  53.274  0.00  0.00     0.148 A 
ATOM      3  N   UNL d   1      52.154  32.317  52.717  0.00  0.00    -0.227 NA
ATOM      4  C   UNL d   1      52.705  33.319  53.369  0.00  0.00     0.083 A 
ATOM      5  C   UNL d   1      52.172  33.119  52.771  0.00  0.00     0.099 A 
ATOM      6  C   UNL d   1      52.843  34.114  53.556  0.00  0.00     0.019 A 
ATOM      7  C   UNL d   1      51.793  33.719  52.377  0.00  0.00     0.021 A 
ATOM      8  C   UNL d   1      52.449  34.680  53.143  0.00  0.00     0.002 A 
ATOM      9  C   UNL d   1      51.916  34.480  52.544  0.00  0.00     0.002 A 
ENDROOT
BRANCH   1  10
ATOM     10  C   UNL d   1      53.546  32.580  54.269  0.00  0.00     0.133 C 
BRANCH  10  11
ATOM     11  C   UNL d   1      54.262  33.005  54.197  0.00  0.00     0.222 C 
BRANCH  11  12
ATOM     12  O   UNL d   1      54.511  33.521  54.794  0.00  0.00    -0.282 OA
BRANCH  12  13
ATOM     13  C   UNL d   1      54.789  33.649  55.549  0.00  0.00     0.125 C 
ATOM     14  C   UNL d   1      55.206  34.347  55.717  0.00  0.00     0.029 C 
ENDBRANCH  12  13
ENDBRANCH  11  12
BRANCH  11  15
ATOM     15  O   UNL d   1      54.748  32.917  53.509  0.00  0.00    -0.282 OA
BRANCH  15  16
ATOM     16  C   UNL d   1      55.551  32.908  53.335  0.00  0.00     0.125 C 
ATOM     17  C   UNL d   1      55.812  32.944  52.555  0.00  0.00     0.029 C 
ENDBRANCH  15  16
ENDBRANCH  11  15
ENDBRANCH  10  11
ENDBRANCH   1  10
BRANCH   2  18
ATOM     18  C   UNL d   1      52.820  31.193  53.407  0.00  0.00     0.035 A 
ATOM     19  C   UNL d   1      53.089  30.715  52.785  0.00  0.00     0.005 A 
ATOM     20  C   UNL d   1      53.240  29.915  52.919  0.00  0.00     0.024 A 
ATOM     21  C   UNL d   1      53.122  29.593  53.673  0.00  0.00     0.094 A 
ATOM     22  C   UNL d   1      52.855  30.071  54.290  0.00  0.00     0.024 A 
ATOM     23  C   UNL d   1      52.704  30.871  54.157  0.00  0.00     0.005 A 
BRANCH  21  24
ATOM     24  O   UNL d   1      53.273  28.793  53.806  0.00  0.00    -0.328 OA
ATOM     25  C   UNL d   1      53.519  28.538  54.556  0.00  0.00     0.181 C 
ENDBRANCH  21  24
ENDBRANCH   2  18
TORSDOF 8
ENDMDL
MODEL 3
REMARK VINA RESULT:      -5.7      1.177      2.532
REMARK  8 active torsions:
REMARK  status: ('A' for Active; 'I' for Inactive)
REMARK    1  A    between atoms: C_6  and  N_1 
REMARK    2  A    between atoms: C_7  and  C_2 
REMARK    3  A    between atoms: C_8  and  C_6 
REMARK    4  A    between atoms: O_14  and  C_8 
REMARK    5  A    between atoms: O_15  and  C_8 
REMARK    6  A    between atoms: O_18  and  C_11 
REMARK    7  A    between atoms: C_20  and  O_14 
REMARK    8  A    between atoms: C_19  and  O_15 
ROOT
ATOM      1  N   UNL d   1      52.881  33.121  53.478  0.00  0.00    -0.286 N 
ATOM      2  C   UNL d   1      52.357  33.759  53.519  0.00  0.00     0.148 A 
ATOM      3  N   UNL d   1      52.601  34.208  54.167  0.00  0.00    -0.227 NA
ATOM      4  C   UNL d   1      53.418  33.180  54.074  0.00  0.00     0.083 A 
ATOM      5  C   UNL d   1      53.243  33.862  54.506  0.00  0.00     0.099 A 
ATOM      6  C   UNL d   1      54.057  32.701  54.292  0.00  0.00     0.019 A 
ATOM      7  C   UNL d   1      53.711  34.045  55.144  0.00  0.00     0.021 A 
ATOM      8  C   UNL d   1      54.498  32.916  54.930  0.00  0.00     0.002 A 
ATOM      9  C   UNL d   1      54.323  33.598  55.362  0.00  0.00     0.002 A 
ENDROOT
BRANCH   1  10
ATOM     10  C   UNL d   1      52.852  32.533  52.923  0.00  0.00     0.133 C 
BRANCH  10  11
ATOM     11  C   UNL d   1      52.828  31.741  53.186  0.00  0.00     0.222 C 
BRANCH  11  12
ATOM     12  O   UNL d   1      53.494  31.252  53.124  0.00  0.00    -0.282 OA
BRANCH  12  13
ATOM     13  C   UNL d   1      53.922  30.686  52.725  0.00  0.00     0.125 C 
ATOM     14  C   UNL d   1      54.322  30.098  53.153  0.00  0.00     0.029 C 
ENDBRANCH  12  13
ENDBRANCH  11  12
BRANCH  11  15
ATOM     15  O   UNL d   1      52.120  31.419  53.523  0.00  0.00    -0.282 OA
BRANCH  15  16
ATOM     16  C   UNL d   1      51.765  30.681  53.589  0.00  0.00     0.125 C 
ATOM     17  C   UNL d   1      50.948  30.615  53.669  0.00  0.00     0.029 C 
ENDBRANCH  15  16
ENDBRANCH  11  15
ENDBRANCH  10  11
ENDBRANCH   1  10
BRANCH   2  18
ATOM     18  C   UNL d   1      51.722  33.914  53.016  0.00  0.00     0.035 A 
ATOM     19  C   UNL d   1      50.948  33.892  53.311  0.00  0.00     0.005 A 
ATOM     20  C   UNL d   1      50.313  34.047  52.808  0.00  0.00     0.024 A 
ATOM     21  C   UNL d   1      50.452  34.225  52.010  0.00  0.00     0.094 A 
ATOM     22  C   UNL d   1      51.224  34.247  51.720  0.00  0.00     0.024 A 
ATOM     23  C   UNL d   1      51.859  34.091  52.223  0.00  0.00     0.005 A 
BRANCH  21  24
ATOM     24  O   UNL d   1      49.817  34.381  51.507  0.00  0.00    -0.328 OA
ATOM     25  C   UNL d   1      49.131  34.737  51.806  0.00  0.00     0.181 C 
ENDBRANCH  21  24
ENDBRANCH   2  18
TORSDOF 8
ENDMDL
MODEL 4
REMARK VINA RESULT:      -4.8      1.522      4.099
REMARK  8 active torsions:
REMARK  status: ('A' for Active; 'I' for Inactive)
REMARK    1  A    between atoms: C_6  and  N_1 
REMARK    2  A    between atoms: C_7  and  C_2 
REMARK    3  A    between atoms: C_8  and  C_6 
REMARK    4  A    between atoms: O_14  and  C_8 
REMARK    5  A    between atoms: O_15  and  C_8 
REMARK    6  A    between atoms: O_18  and  C_11 
REMARK    7  A    between atoms: C_20  and  O_14 
REMARK    8  A    between atoms: C_19  and  O_15 
ROOT
ATOM      1  N   UNL d   1      53.095  33.522  53.657  0.00  0.00    -0.286 N 
ATOM      2  C   UNL d   1      53.471  32.953  54.125  0.00  0.00     0.148 A 
ATOM      3  N   UNL d   1      53.778  33.361  54.773  0.00  0.00    -0.227 NA
ATOM      4  C   UNL d   1      53.172  34.243  54.006  0.00  0.00     0.083 A 
ATOM      5  C   UNL d   1      53.599  34.142  54.705  0.00  0.00     0.099 A 
ATOM      6  C   UNL d   1      52.907  34.995  53.783  0.00  0.00     0.019 A 
ATOM      7  C   UNL d   1      53.751  34.797  55.162  0.00  0.00     0.021 A 
ATOM      8  C   UNL d   1      53.077  35.619  54.262  0.00  0.00     0.002 A 
ATOM      9  C   UNL d   1      53.505  35.518  54.961  0.00  0.00     0.002 A 
ENDROOT
BRANCH   1  10
ATOM     10  C   UNL d   1      52.714  33.370  52.960  0.00  0.00     0.133 C 
BRANCH  10  11
ATOM     11  C   UNL d   1      51.932  33.648  52.868  0.00  0.00     0.222 C 
BRANCH  11  12
ATOM     12  O   UNL d   1      51.731  34.151  52.241  0.00  0.00    -0.282 OA
BRANCH  12  13
ATOM     13  C   UNL d   1      51.697  34.308  51.443  0.00  0.00     0.125 C 
ATOM     14  C   UNL d   1      50.974  34.525  51.099  0.00  0.00     0.029 C 
ENDBRANCH  12  13
ENDBRANCH  11  12
BRANCH  11  15
ATOM     15  O   UNL d   1      51.327  33.422  53.416  0.00  0.00    -0.282 OA
BRANCH  15  16
ATOM     16  C   UNL d   1      50.546  33.165  53.380  0.00  0.00     0.125 C 
ATOM     17  C   UNL d   1      49.983  33.463  53.901  0.00  0.00     0.029 C 
ENDBRANCH  15  16
ENDBRANCH  11  15
ENDBRANCH  10  11
ENDBRANCH   1  10
BRANCH   2  18
ATOM     18  C   UNL d   1      53.526  32.143  53.974  0.00  0.00     0.035 A 
ATOM     19  C   UNL d   1      53.217  31.601  54.519  0.00  0.00     0.005 A 
ATOM     20  C   UNL d   1      53.273  30.792  54.368  0.00  0.00     0.024 A 
ATOM     21  C   UNL d   1      53.638  30.525  53.673  0.00  0.00     0.094 A 
ATOM     22  C   UNL d   1      53.945  31.068  53.133  0.00  0.00     0.024 A 
ATOM     23  C   UNL d   1      53.889  31.877  53.284  0.00  0.00     0.005 A 
BRANCH  21  24
ATOM     24  O   UNL d   1      53.693  29.716  53.522  0.00  0.00    -0.328 OA
ATOM     25  C   UNL d   1      53.267  29.179  53.989  0.00  0.00     0.181 C 
ENDBRANCH  21  24
ENDBRANCH   2  18
TORSDOF 8
ENDMDL
