MODEL 1
REMARK VINA RESULT:      -7.2      0.000      0.000
REMARK  6 active torsions:
REMARK  status: ('A' for Active; 'I' for Inactive)
REMARK    1  A    between atoms: N_11  and  C_3 
REMARK    2  A    between atoms: C_10  and  C_5 
REMARK    3  A    between atoms: C_17  and  N_11 
REMARK    4  A    between atoms: N_13  and  C_18 
REMARK    5  A    between atoms: C_16  and  C_17 
REMARK    6  A    between atoms: C_18  and  C_16 
ROOT
ATOM      1  N   UNL d   1      52.303  33.946  53.549  0.00  0.00    -0.184 N 
ATOM      2  C   UNL d   1      53.014  33.747  53.929  0.00  0.00     0.168 A 
ATOM      3  C   UNL d   1      51.895  33.365  53.137  0.00  0.00     0.217 A 
ATOM      4  N   UNL d   1      52.437  35.273  54.003  0.00  0.00    -0.162 NA
ATOM      5  C   UNL d   1      53.431  34.305  54.340  0.00  0.00     0.055 A 
ATOM      6  N   UNL d   1      53.300  32.972  53.887  0.00  0.00    -0.227 NA
ATOM      7  C   UNL d   1      52.175  32.600  53.094  0.00  0.00     0.066 A 
ATOM      8  C   UNL d   1      53.144  35.075  54.381  0.00  0.00     0.104 A 
ATOM      9  C   UNL d   1      52.882  32.402  53.471  0.00  0.00     0.087 A 
ATOM     10  C   UNL d   1      51.748  32.029  52.673  0.00  0.00     0.006 A 
ATOM     11  C   UNL d   1      53.551  35.641  54.788  0.00  0.00     0.023 C 
ATOM     12  C   UNL d   1      53.169  31.631  53.431  0.00  0.00     0.019 A 
ATOM     13  C   UNL d   1      52.042  31.247  52.634  0.00  0.00     0.000 A 
ATOM     14  C   UNL d   1      52.749  31.049  53.011  0.00  0.00     0.002 A 
ENDROOT
BRANCH   3  15
ATOM     15  N   UNL d   1      51.172  33.563  52.750  0.00  0.00    -0.380 NA
BRANCH  15  16
ATOM     16  C   UNL d   1      50.492  33.795  52.315  0.00  0.00     0.164 C 
BRANCH  16  17
ATOM     17  C   UNL d   1      49.960  34.349  52.658  0.00  0.00     0.054 C 
BRANCH  17  18
ATOM     18  C   UNL d   1      49.311  34.653  52.198  0.00  0.00     0.083 C 
BRANCH  18  19
ATOM     19  N   UNL d   1      48.778  35.207  52.540  0.00  0.00    -0.300 N 
ATOM     20  C   UNL d   1      48.305  35.231  51.852  0.00  0.00     0.100 C 
ATOM     21  C   UNL d   1      48.554  35.683  53.203  0.00  0.00     0.100 C 
ENDBRANCH  18  19
ENDBRANCH  17  18
ENDBRANCH  16  17
ENDBRANCH  15  16
ENDBRANCH   3  15
BRANCH   5  22
ATOM     22  C   UNL d   1      54.138  34.107  54.717  0.00  0.00     0.004 A 
ATOM     23  C   UNL d   1      54.119  33.831  55.483  0.00  0.00     0.000 A 
ATOM     24  C   UNL d   1      54.826  33.633  55.860  0.00  0.00     0.000 A 
ATOM     25  C   UNL d   1      55.540  33.715  55.466  0.00  0.00     0.000 A 
ATOM     26  C   UNL d   1      55.548  33.994  54.695  0.00  0.00     0.000 A 
ATOM     27  C   UNL d   1      54.842  34.192  54.318  0.00  0.00     0.000 A 
ENDBRANCH   5  22
TORSDOF 6
ENDMDL
MODEL 2
REMARK VINA RESULT:      -7.2      1.469      3.396
REMARK  6 active torsions:
REMARK  status: ('A' for Active; 'I' for Inactive)
REMARK    1  A    between atoms: N_11  and  C_3 
REMARK    2  A    between atoms: C_10  and  C_5 
REMARK    3  A    between atoms: C_17  and  N_11 
REMARK    4  A    between atoms: N_13  and  C_18 
REMARK    5  A    between atoms: C_16  and  C_17 
REMARK    6  A    between atoms: C_18  and  C_16 
ROOT
ATOM      1  N   UNL d   1      52.856  32.163  53.324  0.00  0.00    -0.184 N 
ATOM      2  C   UNL d   1      53.185  31.513  53.722  0.00  0.00     0.168 A 
ATOM      3  C   UNL d   1      53.035  32.921  53.583  0.00  0.00     0.217 A 
ATOM      4  N   UNL d   1      52.196  31.283  52.443  0.00  0.00    -0.162 NA
ATOM      5  C   UNL d   1      53.022  30.757  53.483  0.00  0.00     0.055 A 
ATOM      6  N   UNL d   1      53.686  31.636  54.369  0.00  0.00    -0.227 NA
ATOM      7  C   UNL d   1      53.528  33.046  54.221  0.00  0.00     0.066 A 
ATOM      8  C   UNL d   1      52.524  30.637  52.838  0.00  0.00     0.104 A 
ATOM      9  C   UNL d   1      53.855  32.400  54.616  0.00  0.00     0.087 A 
ATOM     10  C   UNL d   1      53.696  33.819  54.466  0.00  0.00     0.006 A 
ATOM     11  C   UNL d   1      52.353  29.889  52.590  0.00  0.00     0.023 C 
ATOM     12  C   UNL d   1      54.354  32.520  55.261  0.00  0.00     0.019 A 
ATOM     13  C   UNL d   1      54.202  33.938  55.121  0.00  0.00     0.000 A 
ATOM     14  C   UNL d   1      54.529  33.292  55.516  0.00  0.00     0.002 A 
ENDROOT
BRANCH   3  15
ATOM     15  N   UNL d   1      52.703  33.584  53.182  0.00  0.00    -0.380 NA
BRANCH  15  16
ATOM     16  C   UNL d   1      52.340  34.196  52.736  0.00  0.00     0.164 C 
BRANCH  16  17
ATOM     17  C   UNL d   1      51.529  34.373  52.873  0.00  0.00     0.054 C 
BRANCH  17  18
ATOM     18  C   UNL d   1      50.987  34.408  52.217  0.00  0.00     0.083 C 
BRANCH  18  19
ATOM     19  N   UNL d   1      50.173  34.572  52.354  0.00  0.00    -0.300 N 
ATOM     20  C   UNL d   1      49.954  34.302  51.595  0.00  0.00     0.100 C 
ATOM     21  C   UNL d   1      49.568  34.858  52.873  0.00  0.00     0.100 C 
ENDBRANCH  18  19
ENDBRANCH  17  18
ENDBRANCH  16  17
ENDBRANCH  15  16
ENDBRANCH   3  15
BRANCH   5  22
ATOM     22  C   UNL d   1      53.349  30.111  53.878  0.00  0.00     0.004 A 
ATOM     23  C   UNL d   1      52.951  29.785  54.508  0.00  0.00     0.000 A 
ATOM     24  C   UNL d   1      53.278  29.139  54.904  0.00  0.00     0.000 A 
ATOM     25  C   UNL d   1      53.998  28.830  54.663  0.00  0.00     0.000 A 
ATOM     26  C   UNL d   1      54.392  29.166  54.026  0.00  0.00     0.000 A 
ATOM     27  C   UNL d   1      54.065  29.812  53.631  0.00  0.00     0.000 A 
ENDBRANCH   5  22
TORSDOF 6
ENDMDL
MODEL 3
REMARK VINA RESULT:      -5.5      9.572     11.055
REMARK  6 active torsions:
REMARK  status: ('A' for Active; 'I' for Inactive)
REMARK    1  A    between atoms: N_11  and  C_3 
REMARK    2  A    between atoms: C_10  and  C_5 
REMARK    3  A    between atoms: C_17  and  N_11 
REMARK    4  A    between atoms: N_13  and  C_18 
REMARK    5  A    between atoms: C_16  and  C_17 
REMARK    6  A    between atoms: C_18  and  C_16 
ROOT
ATOM      1  N   UNL d   1      44.805  28.676  58.648  0.00  0.00    -0.184 N 
ATOM      2  C   UNL d   1      44.862  28.133  58.022  0.00  0.00     0.168 A 
ATOM      3  C   UNL d   1      44.730  29.476  58.476  0.00  0.00     0.217 A 
ATOM      4  N   UNL d   1      44.900  27.616  59.571  0.00  0.00    -0.162 NA
ATOM      5  C   UNL d   1      44.936  27.342  58.170  0.00  0.00     0.055 A 
ATOM      6  N   UNL d   1      44.842  28.403  57.240  0.00  0.00    -0.227 NA
ATOM      7  C   UNL d   1      44.710  29.744  57.705  0.00  0.00     0.066 A 
ATOM      8  C   UNL d   1      44.956  27.076  58.949  0.00  0.00     0.104 A 
ATOM      9  C   UNL d   1      44.766  29.204  57.084  0.00  0.00     0.087 A 
ATOM     10  C   UNL d   1      44.633  30.555  57.554  0.00  0.00     0.006 A 
ATOM     11  C   UNL d   1      45.030  26.289  59.110  0.00  0.00     0.023 C 
ATOM     12  C   UNL d   1      44.746  29.469  56.304  0.00  0.00     0.019 A 
ATOM     13  C   UNL d   1      44.614  30.820  56.761  0.00  0.00     0.000 A 
ATOM     14  C   UNL d   1      44.670  30.281  56.140  0.00  0.00     0.002 A 
ENDROOT
BRANCH   3  15
ATOM     15  N   UNL d   1      44.672  30.031  59.108  0.00  0.00    -0.380 NA
BRANCH  15  16
ATOM     16  C   UNL d   1      44.688  30.585  59.739  0.00  0.00     0.164 C 
BRANCH  16  17
ATOM     17  C   UNL d   1      44.319  30.382  60.467  0.00  0.00     0.054 C 
BRANCH  17  18
ATOM     18  C   UNL d   1      44.479  30.843  61.165  0.00  0.00     0.083 C 
BRANCH  18  19
ATOM     19  N   UNL d   1      44.517  30.465  61.917  0.00  0.00    -0.300 N 
ATOM     20  C   UNL d   1      44.657  31.187  62.312  0.00  0.00     0.100 C 
ATOM     21  C   UNL d   1      44.478  29.754  62.374  0.00  0.00     0.100 C 
ENDBRANCH  18  19
ENDBRANCH  17  18
ENDBRANCH  16  17
ENDBRANCH  15  16
ENDBRANCH   3  15
BRANCH   5  22
ATOM     22  C   UNL d   1      44.993  26.802  57.548  0.00  0.00     0.004 A 
ATOM     23  C   UNL d   1      45.723  26.627  57.236  0.00  0.00     0.000 A 
ATOM     24  C   UNL d   1      45.780  26.087  56.614  0.00  0.00     0.000 A 
ATOM     25  C   UNL d   1      45.104  25.731  56.315  0.00  0.00     0.000 A 
ATOM     26  C   UNL d   1      44.372  25.914  56.637  0.00  0.00     0.000 A 
ATOM     27  C   UNL d   1      44.316  26.454  57.259  0.00  0.00     0.000 A 
ENDBRANCH   5  22
TORSDOF 6
ENDMDL
MODEL 4
REMARK VINA RESULT:      -4.9      0.772      1.098
REMARK  6 active torsions:
REMARK  status: ('A' for Active; 'I' for Inactive)
REMARK    1  A    between atoms: N_11  and  C_3 
REMARK    2  A    between atoms: C_10  and  C_5 
REMARK    3  A    between atoms: C_17  and  N_11 
REMARK    4  A    between atoms: N_13  and  C_18 
REMARK    5  A    between atoms: C_16  and  C_17 
REMARK    6  A    between atoms: C_18  and  C_16 
ROOT
ATOM      1  N   UNL d   1      51.918  34.543  53.563  0.00  0.00    -0.184 N 
ATOM      2  C   UNL d   1      52.579  34.139  53.862  0.00  0.00     0.168 A 
ATOM      3  C   UNL d   1      51.296  34.111  53.246  0.00  0.00     0.217 A 
ATOM      4  N   UNL d   1      52.522  35.770  53.903  0.00  0.00    -0.162 NA
ATOM      5  C   UNL d   1      53.202  34.545  54.178  0.00  0.00     0.055 A 
ATOM      6  N   UNL d   1      52.601  33.312  53.837  0.00  0.00    -0.227 NA
ATOM      7  C   UNL d   1      51.315  33.296  53.221  0.00  0.00     0.066 A 
ATOM      8  C   UNL d   1      53.178  35.368  54.201  0.00  0.00     0.104 A 
ATOM      9  C   UNL d   1      51.972  32.894  53.518  0.00  0.00     0.087 A 
ATOM     10  C   UNL d   1      50.676  32.880  52.897  0.00  0.00     0.006 A 
ATOM     11  C   UNL d   1      53.794  35.785  54.513  0.00  0.00     0.023 C 
ATOM     12  C   UNL d   1      51.996  32.071  53.495  0.00  0.00     0.019 A 
ATOM     13  C   UNL d   1      50.705  32.044  52.876  0.00  0.00     0.000 A 
ATOM     14  C   UNL d   1      51.361  31.642  53.173  0.00  0.00     0.002 A 
ENDROOT
BRANCH   3  15
ATOM     15  N   UNL d   1      50.623  34.519  52.941  0.00  0.00    -0.380 NA
BRANCH  15  16
ATOM     16  C   UNL d   1      49.990  34.930  52.574  0.00  0.00     0.164 C 
BRANCH  16  17
ATOM     17  C   UNL d   1      49.281  35.056  53.010  0.00  0.00     0.054 C 
BRANCH  17  18
ATOM     18  C   UNL d   1      48.607  35.409  52.628  0.00  0.00     0.083 C 
BRANCH  18  19
ATOM     19  N   UNL d   1      48.097  35.917  53.064  0.00  0.00    -0.300 N 
ATOM     20  C   UNL d   1      47.413  35.588  52.717  0.00  0.00     0.100 C 
ATOM     21  C   UNL d   1      48.004  36.539  53.631  0.00  0.00     0.100 C 
ENDBRANCH  18  19
ENDBRANCH  17  18
ENDBRANCH  16  17
ENDBRANCH  15  16
ENDBRANCH   3  15
BRANCH   5  22
ATOM     22  C   UNL d   1      53.859  34.143  54.475  0.00  0.00     0.004 A 
ATOM     23  C   UNL d   1      54.502  34.016  53.992  0.00  0.00     0.000 A 
ATOM     24  C   UNL d   1      55.158  33.614  54.290  0.00  0.00     0.000 A 
ATOM     25  C   UNL d   1      55.161  33.346  55.065  0.00  0.00     0.000 A 
ATOM     26  C   UNL d   1      54.508  33.479  55.543  0.00  0.00     0.000 A 
ATOM     27  C   UNL d   1      53.852  33.881  55.246  0.00  0.00     0.000 A 
ENDBRANCH   5  22
TORSDOF 6
ENDMDL
MODEL 5
REMARK VINA RESULT:      -4.7      1.455      3.885
REMARK  6 active torsions:
REMARK  status: ('A' for Active; 'I' for Inactive)
REMARK    1  A    between atoms: N_11  and  C_3 
REMARK    2  A    between atoms: C_10  and  C_5 
REMARK    3  A    between atoms: C_17  and  N_11 
REMARK    4  A    between atoms: N_13  and  C_18 
REMARK    5  A    between atoms: C_16  and  C_17 
REMARK    6  A    between atoms: C_18  and  C_16 
ROOT
ATOM      1  N   UNL d   1      53.268  32.644  53.865  0.00  0.00    -0.184 N 
ATOM      2  C   UNL d   1      53.128  33.448  54.019  0.00  0.00     0.168 A 
ATOM      3  C   UNL d   1      52.689  32.205  53.482  0.00  0.00     0.217 A 
ATOM      4  N   UNL d   1      54.535  32.754  54.471  0.00  0.00    -0.162 NA
ATOM      5  C   UNL d   1      53.684  33.898  54.394  0.00  0.00     0.055 A 
ATOM      6  N   UNL d   1      52.412  33.793  53.787  0.00  0.00    -0.227 NA
ATOM      7  C   UNL d   1      51.983  32.543  53.252  0.00  0.00     0.066 A 
ATOM      8  C   UNL d   1      54.396  33.553  54.624  0.00  0.00     0.104 A 
ATOM      9  C   UNL d   1      51.843  33.341  53.406  0.00  0.00     0.087 A 
ATOM     10  C   UNL d   1      51.412  32.081  52.868  0.00  0.00     0.006 A 
ATOM     11  C   UNL d   1      54.959  33.991  54.999  0.00  0.00     0.023 C 
ATOM     12  C   UNL d   1      51.132  33.687  53.176  0.00  0.00     0.019 A 
ATOM     13  C   UNL d   1      50.691  32.436  52.636  0.00  0.00     0.000 A 
ATOM     14  C   UNL d   1      50.552  33.234  52.789  0.00  0.00     0.002 A 
ENDROOT
BRANCH   3  15
ATOM     15  N   UNL d   1      52.828  31.388  53.324  0.00  0.00    -0.380 NA
BRANCH  15  16
ATOM     16  C   UNL d   1      53.009  30.574  53.225  0.00  0.00     0.164 C 
BRANCH  16  17
ATOM     17  C   UNL d   1      53.342  30.151  53.872  0.00  0.00     0.054 C 
BRANCH  17  18
ATOM     18  C   UNL d   1      53.230  29.309  53.929  0.00  0.00     0.083 C 
BRANCH  18  19
ATOM     19  N   UNL d   1      53.336  28.922  54.669  0.00  0.00    -0.300 N 
ATOM     20  C   UNL d   1      53.748  28.286  54.317  0.00  0.00     0.100 C 
ATOM     21  C   UNL d   1      53.215  28.912  55.506  0.00  0.00     0.100 C 
ENDBRANCH  18  19
ENDBRANCH  17  18
ENDBRANCH  16  17
ENDBRANCH  15  16
ENDBRANCH   3  15
BRANCH   5  22
ATOM     22  C   UNL d   1      53.545  34.697  54.548  0.00  0.00     0.004 A 
ATOM     23  C   UNL d   1      53.225  34.917  55.263  0.00  0.00     0.000 A 
ATOM     24  C   UNL d   1      53.086  35.716  55.416  0.00  0.00     0.000 A 
ATOM     25  C   UNL d   1      53.269  36.282  54.852  0.00  0.00     0.000 A 
ATOM     26  C   UNL d   1      53.591  36.050  54.134  0.00  0.00     0.000 A 
ATOM     27  C   UNL d   1      53.730  35.251  53.981  0.00  0.00     0.000 A 
ENDBRANCH   5  22
TORSDOF 6
ENDMDL
