MODEL 1
REMARK VINA RESULT:      79.0      0.000      0.000
REMARK  6 active torsions:
REMARK  status: ('A' for Active; 'I' for Inactive)
REMARK    1  A    between atoms: C_6  and  C_1 
REMARK    2  A    between atoms: N_4  and  C_2 
REMARK       I    between atoms: C_8  and  N_4 
REMARK    3  A    between atoms: C_11  and  C_8 
REMARK    4  A    between atoms: O_22  and  C_10 
REMARK    5  A    between atoms: O_24  and  C_12 
REMARK    6  A    between atoms: O_23  and  C_13 
ROOT
ATOM      1  C   UNL d   1      43.796 -15.408  37.185  0.00  0.00     0.080 A 
ATOM      2  C   UNL d   1      43.731 -16.114  37.607  0.00  0.00     0.188 A 
ATOM      3  C   UNL d   1      43.148 -15.121  36.761  0.00  0.00     0.201 A 
ATOM      4  O   UNL d   1      43.019 -16.533  37.604  0.00  0.00    -0.289 OA
ATOM      5  C   UNL d   1      42.439 -15.539  36.758  0.00  0.00     0.062 A 
ATOM      6  C   UNL d   1      42.374 -16.245  37.180  0.00  0.00     0.105 A 
ATOM      7  O   UNL d   1      43.213 -14.414  36.339  0.00  0.00    -0.286 OA
ATOM      8  C   UNL d   1      41.793 -15.251  36.335  0.00  0.00     0.005 A 
ATOM      9  C   UNL d   1      41.664 -16.664  37.178  0.00  0.00     0.025 A 
ATOM     10  C   UNL d   1      41.077 -15.670  36.330  0.00  0.00     0.000 A 
ATOM     11  C   UNL d   1      41.013 -16.376  36.752  0.00  0.00     0.002 A 
ENDROOT
BRANCH   1  12
ATOM     12  C   UNL d   1      44.506 -14.990  37.188  0.00  0.00     0.011 A 
ATOM     13  C   UNL d   1      45.162 -15.294  36.797  0.00  0.00     0.027 A 
ATOM     14  C   UNL d   1      45.879 -14.875  36.797  0.00  0.00     0.118 A 
ATOM     15  C   UNL d   1      45.932 -14.148  37.193  0.00  0.00     0.138 A 
ATOM     16  C   UNL d   1      45.266 -13.845  37.587  0.00  0.00     0.118 A 
ATOM     17  C   UNL d   1      44.558 -14.263  37.584  0.00  0.00     0.027 A 
BRANCH  14  18
ATOM     18  O   UNL d   1      46.540 -15.186  36.401  0.00  0.00    -0.326 OA
ATOM     19  C   UNL d   1      46.640 -16.007  36.330  0.00  0.00     0.181 C 
ENDBRANCH  14  18
BRANCH  15  20
ATOM     20  O   UNL d   1      46.646 -13.723  37.199  0.00  0.00    -0.324 OA
ATOM     21  C   UNL d   1      46.643 -12.898  37.110  0.00  0.00     0.182 C 
ENDBRANCH  15  20
BRANCH  16  22
ATOM     22  O   UNL d   1      45.318 -13.122  37.981  0.00  0.00    -0.326 OA
ATOM     23  C   UNL d   1      45.501 -13.102  38.785  0.00  0.00     0.181 C 
ENDBRANCH  16  22
ENDBRANCH   1  12
BRANCH   2  24
ATOM     24  N   UNL d   1      44.383 -16.408  38.037  0.00  0.00    -0.182 NA
ATOM     25  C   UNL d   1      44.262 -16.975  38.630  0.00  0.00     0.304 C 
ATOM     26  O   UNL d   1      43.505 -17.251  38.799  0.00  0.00    -0.263 OA
BRANCH  25  27
ATOM     27  C   UNL d   1      44.914 -17.264  39.055  0.00  0.00     0.158 A 
ATOM     28  O   UNL d   1      45.636 -17.571  38.814  0.00  0.00    -0.300 OA
ATOM     29  C   UNL d   1      46.069 -17.770  39.487  0.00  0.00     0.123 A 
ATOM     30  C   UNL d   1      45.607 -17.583  40.150  0.00  0.00     0.029 A 
ATOM     31  C   UNL d   1      44.897 -17.271  39.880  0.00  0.00     0.032 A 
ENDBRANCH  25  27
ENDBRANCH   2  24
TORSDOF 6
ENDMDL
