MODEL 1
REMARK VINA RESULT:      -6.8      0.000      0.000
REMARK  3 active torsions:
REMARK  status: ('A' for Active; 'I' for Inactive)
REMARK    1  A    between atoms: C_7  and  C_1 
REMARK    2  A    between atoms: N_8  and  C_7 
REMARK    3  A    between atoms: C_11  and  N_8 
ROOT
ATOM      1  C   UNL d   1     -47.417  13.916  22.977  0.00  0.00     0.145 A 
ATOM      2  C   UNL d   1     -46.784  14.335  22.672  0.00  0.00     0.304 A 
ATOM      3  C   UNL d   1     -47.355  13.102  23.092  0.00  0.00     0.304 A 
ATOM      4  O   UNL d   1     -46.082  13.944  22.481  0.00  0.00    -0.277 OA
ATOM      5  O   UNL d   1     -46.653  12.711  22.901  0.00  0.00    -0.277 OA
ATOM      6  C   UNL d   1     -46.017  13.136  22.594  0.00  0.00     0.203 A 
ATOM      7  O   UNL d   1     -46.859  15.173  22.558  0.00  0.00    -0.259 OA
ATOM      8  O   UNL d   1     -48.018  12.673  23.409  0.00  0.00    -0.259 OA
ATOM      9  C   UNL d   1     -45.754  12.342  22.632  0.00  0.00     0.062 C 
ATOM     10  C   UNL d   1     -45.294  13.406  22.282  0.00  0.00     0.062 C 
ENDROOT
BRANCH   1  11
ATOM     11  C   UNL d   1     -48.125  14.310  23.170  0.00  0.00     0.111 C 
BRANCH  11  12
ATOM     12  N   UNL d   1     -48.658  14.514  22.575  0.00  0.00    -0.225 NA
BRANCH  12  13
ATOM     13  C   UNL d   1     -49.409  14.813  22.774  0.00  0.00     0.163 A 
ATOM     14  N   UNL d   1     -49.486  15.353  23.390  0.00  0.00    -0.225 NA
ATOM     15  C   UNL d   1     -50.235  15.651  23.589  0.00  0.00     0.101 A 
ATOM     16  C   UNL d   1     -50.899  15.408  23.171  0.00  0.00     0.021 A 
ATOM     17  C   UNL d   1     -50.823  14.867  22.553  0.00  0.00     0.005 A 
ATOM     18  C   UNL d   1     -50.075  14.568  22.354  0.00  0.00     0.039 A 
ENDBRANCH  12  13
ENDBRANCH  11  12
ENDBRANCH   1  11
TORSDOF 3
ENDMDL
MODEL 2
REMARK VINA RESULT:      -6.7      1.719      4.101
REMARK  3 active torsions:
REMARK  status: ('A' for Active; 'I' for Inactive)
REMARK    1  A    between atoms: C_7  and  C_1 
REMARK    2  A    between atoms: N_8  and  C_7 
REMARK    3  A    between atoms: C_11  and  N_8 
ROOT
ATOM      1  C   UNL d   1     -48.973  13.637  22.328  0.00  0.00     0.145 A 
ATOM      2  C   UNL d   1     -49.452  13.273  21.774  0.00  0.00     0.304 A 
ATOM      3  C   UNL d   1     -49.237  14.313  22.720  0.00  0.00     0.304 A 
ATOM      4  O   UNL d   1     -50.200  13.581  21.606  0.00  0.00    -0.277 OA
ATOM      5  O   UNL d   1     -49.984  14.621  22.552  0.00  0.00    -0.277 OA
ATOM      6  C   UNL d   1     -50.465  14.252  21.993  0.00  0.00     0.203 A 
ATOM      7  O   UNL d   1     -49.170  12.578  21.376  0.00  0.00    -0.259 OA
ATOM      8  O   UNL d   1     -48.733  14.686  23.295  0.00  0.00    -0.259 OA
ATOM      9  C   UNL d   1     -50.909  14.906  22.268  0.00  0.00     0.062 C 
ATOM     10  C   UNL d   1     -51.064  14.010  21.470  0.00  0.00     0.062 C 
ENDROOT
BRANCH   1  11
ATOM     11  C   UNL d   1     -48.219  13.327  22.498  0.00  0.00     0.111 C 
BRANCH  11  12
ATOM     12  N   UNL d   1     -48.108  12.858  23.167  0.00  0.00    -0.225 NA
BRANCH  12  13
ATOM     13  C   UNL d   1     -47.400  12.430  23.262  0.00  0.00     0.163 A 
ATOM     14  N   UNL d   1     -46.687  12.755  23.015  0.00  0.00    -0.225 NA
ATOM     15  C   UNL d   1     -45.982  12.327  23.109  0.00  0.00     0.101 A 
ATOM     16  C   UNL d   1     -45.997  11.579  23.449  0.00  0.00     0.021 A 
ATOM     17  C   UNL d   1     -46.712  11.252  23.698  0.00  0.00     0.005 A 
ATOM     18  C   UNL d   1     -47.417  11.679  23.604  0.00  0.00     0.039 A 
ENDBRANCH  12  13
ENDBRANCH  11  12
ENDBRANCH   1  11
TORSDOF 3
ENDMDL
MODEL 3
REMARK VINA RESULT:      -6.5      1.840      4.025
REMARK  3 active torsions:
REMARK  status: ('A' for Active; 'I' for Inactive)
REMARK    1  A    between atoms: C_7  and  C_1 
REMARK    2  A    between atoms: N_8  and  C_7 
REMARK    3  A    between atoms: C_11  and  N_8 
ROOT
ATOM      1  C   UNL d   1     -48.945  12.811  22.956  0.00  0.00     0.145 A 
ATOM      2  C   UNL d   1     -49.365  13.491  23.135  0.00  0.00     0.304 A 
ATOM      3  C   UNL d   1     -49.306  12.073  23.032  0.00  0.00     0.304 A 
ATOM      4  O   UNL d   1     -50.148  13.440  23.392  0.00  0.00    -0.277 OA
ATOM      5  O   UNL d   1     -50.089  12.022  23.289  0.00  0.00    -0.277 OA
ATOM      6  C   UNL d   1     -50.509  12.709  23.468  0.00  0.00     0.203 A 
ATOM      7  O   UNL d   1     -48.983  14.246  23.053  0.00  0.00    -0.259 OA
ATOM      8  O   UNL d   1     -48.864  11.372  22.844  0.00  0.00    -0.259 OA
ATOM      9  C   UNL d   1     -51.044  12.081  23.608  0.00  0.00     0.062 C 
ATOM     10  C   UNL d   1     -51.064  13.288  23.686  0.00  0.00     0.062 C 
ENDROOT
BRANCH   1  11
ATOM     11  C   UNL d   1     -48.155  12.863  22.697  0.00  0.00     0.111 C 
BRANCH  11  12
ATOM     12  N   UNL d   1     -47.551  12.992  23.244  0.00  0.00    -0.225 NA
BRANCH  12  13
ATOM     13  C   UNL d   1     -46.756  12.971  22.997  0.00  0.00     0.163 A 
ATOM     14  N   UNL d   1     -46.261  12.368  23.256  0.00  0.00    -0.225 NA
ATOM     15  C   UNL d   1     -45.468  12.348  23.009  0.00  0.00     0.101 A 
ATOM     16  C   UNL d   1     -45.179  12.930  22.506  0.00  0.00     0.021 A 
ATOM     17  C   UNL d   1     -45.675  13.535  22.245  0.00  0.00     0.005 A 
ATOM     18  C   UNL d   1     -46.468  13.556  22.492  0.00  0.00     0.039 A 
ENDBRANCH  12  13
ENDBRANCH  11  12
ENDBRANCH   1  11
TORSDOF 3
ENDMDL
MODEL 4
REMARK VINA RESULT:      -6.4      1.617      2.157
REMARK  3 active torsions:
REMARK  status: ('A' for Active; 'I' for Inactive)
REMARK    1  A    between atoms: C_7  and  C_1 
REMARK    2  A    between atoms: N_8  and  C_7 
REMARK    3  A    between atoms: C_11  and  N_8 
ROOT
ATOM      1  C   UNL d   1     -47.363  13.007  23.155  0.00  0.00     0.145 A 
ATOM      2  C   UNL d   1     -46.840  12.391  23.287  0.00  0.00     0.304 A 
ATOM      3  C   UNL d   1     -47.110  13.685  22.761  0.00  0.00     0.304 A 
ATOM      4  O   UNL d   1     -46.058  12.449  23.027  0.00  0.00    -0.277 OA
ATOM      5  O   UNL d   1     -46.328  13.743  22.501  0.00  0.00    -0.277 OA
ATOM      6  C   UNL d   1     -45.803  13.121  22.636  0.00  0.00     0.203 A 
ATOM      7  O   UNL d   1     -47.112  11.697  23.694  0.00  0.00    -0.259 OA
ATOM      8  O   UNL d   1     -47.660  14.320  22.627  0.00  0.00    -0.259 OA
ATOM      9  C   UNL d   1     -45.358  13.703  22.230  0.00  0.00     0.062 C 
ATOM     10  C   UNL d   1     -45.157  12.600  22.687  0.00  0.00     0.062 C 
ENDROOT
BRANCH   1  11
ATOM     11  C   UNL d   1     -48.152  12.949  23.418  0.00  0.00     0.111 C 
BRANCH  11  12
ATOM     12  N   UNL d   1     -48.752  12.774  22.880  0.00  0.00    -0.225 NA
BRANCH  12  13
ATOM     13  C   UNL d   1     -49.525  12.629  23.154  0.00  0.00     0.163 A 
ATOM     14  N   UNL d   1     -49.786  11.856  23.259  0.00  0.00    -0.225 NA
ATOM     15  C   UNL d   1     -50.556  11.711  23.531  0.00  0.00     0.101 A 
ATOM     16  C   UNL d   1     -51.059  12.341  23.697  0.00  0.00     0.021 A 
ATOM     17  C   UNL d   1     -50.799  13.116  23.592  0.00  0.00     0.005 A 
ATOM     18  C   UNL d   1     -50.028  13.261  23.320  0.00  0.00     0.039 A 
ENDBRANCH  12  13
ENDBRANCH  11  12
ENDBRANCH   1  11
TORSDOF 3
ENDMDL
MODEL 5
REMARK VINA RESULT:      -5.9      2.227      4.851
REMARK  3 active torsions:
REMARK  status: ('A' for Active; 'I' for Inactive)
REMARK    1  A    between atoms: C_7  and  C_1 
REMARK    2  A    between atoms: N_8  and  C_7 
REMARK    3  A    between atoms: C_11  and  N_8 
ROOT
ATOM      1  C   UNL d   1     -46.697  12.508  23.380  0.00  0.00     0.145 A 
ATOM      2  C   UNL d   1     -47.440  12.175  23.289  0.00  0.00     0.304 A 
ATOM      3  C   UNL d   1     -46.593  13.318  23.267  0.00  0.00     0.304 A 
ATOM      4  O   UNL d   1     -48.085  12.649  23.085  0.00  0.00    -0.277 OA
ATOM      5  O   UNL d   1     -47.237  13.792  23.063  0.00  0.00    -0.277 OA
ATOM      6  C   UNL d   1     -47.984  13.454  22.972  0.00  0.00     0.203 A 
ATOM      7  O   UNL d   1     -47.536  11.339  23.407  0.00  0.00    -0.259 OA
ATOM      8  O   UNL d   1     -45.818  13.656  23.363  0.00  0.00    -0.259 OA
ATOM      9  C   UNL d   1     -48.091  14.270  22.818  0.00  0.00     0.062 C 
ATOM     10  C   UNL d   1     -48.787  13.280  22.844  0.00  0.00     0.062 C 
ENDROOT
BRANCH   1  11
ATOM     11  C   UNL d   1     -46.047  12.030  23.585  0.00  0.00     0.111 C 
BRANCH  11  12
ATOM     12  N   UNL d   1     -45.786  11.445  23.066  0.00  0.00    -0.225 NA
BRANCH  12  13
ATOM     13  C   UNL d   1     -45.060  11.061  23.203  0.00  0.00     0.163 A 
ATOM     14  N   UNL d   1     -44.356  11.424  22.981  0.00  0.00    -0.225 NA
ATOM     15  C   UNL d   1     -43.631  11.042  23.118  0.00  0.00     0.101 A 
ATOM     16  C   UNL d   1     -43.618  10.301  23.475  0.00  0.00     0.021 A 
ATOM     17  C   UNL d   1     -44.324   9.937  23.698  0.00  0.00     0.005 A 
ATOM     18  C   UNL d   1     -45.048  10.319  23.561  0.00  0.00     0.039 A 
ENDBRANCH  12  13
ENDBRANCH  11  12
ENDBRANCH   1  11
TORSDOF 3
ENDMDL
MODEL 6
REMARK VINA RESULT:      -5.5      8.686      9.638
REMARK  3 active torsions:
REMARK  status: ('A' for Active; 'I' for Inactive)
REMARK    1  A    between atoms: C_7  and  C_1 
REMARK    2  A    between atoms: N_8  and  C_7 
REMARK    3  A    between atoms: C_11  and  N_8 
ROOT
ATOM      1  C   UNL d   1     -39.857  14.643  18.385  0.00  0.00     0.145 A 
ATOM      2  C   UNL d   1     -39.465  15.242  17.988  0.00  0.00     0.304 A 
ATOM      3  C   UNL d   1     -40.588  14.376  18.111  0.00  0.00     0.304 A 
ATOM      4  O   UNL d   1     -39.800  15.580  17.313  0.00  0.00    -0.277 OA
ATOM      5  O   UNL d   1     -40.922  14.715  17.435  0.00  0.00    -0.277 OA
ATOM      6  C   UNL d   1     -40.525  15.318  17.038  0.00  0.00     0.203 A 
ATOM      7  O   UNL d   1     -38.714  15.508  18.280  0.00  0.00    -0.259 OA
ATOM      8  O   UNL d   1     -40.989  13.754  18.528  0.00  0.00    -0.259 OA
ATOM      9  C   UNL d   1     -41.232  15.198  16.607  0.00  0.00     0.062 C 
ATOM     10  C   UNL d   1     -40.265  15.922  16.528  0.00  0.00     0.062 C 
ENDROOT
BRANCH   1  11
ATOM     11  C   UNL d   1     -39.520  14.302  19.066  0.00  0.00     0.111 C 
BRANCH  11  12
ATOM     12  N   UNL d   1     -39.589  14.683  19.794  0.00  0.00    -0.225 NA
BRANCH  12  13
ATOM     13  C   UNL d   1     -39.333  14.301  20.489  0.00  0.00     0.163 A 
ATOM     14  N   UNL d   1     -38.620  13.891  20.493  0.00  0.00    -0.225 NA
ATOM     15  C   UNL d   1     -38.365  13.511  21.185  0.00  0.00     0.101 A 
ATOM     16  C   UNL d   1     -38.825  13.543  21.866  0.00  0.00     0.021 A 
ATOM     17  C   UNL d   1     -39.540  13.954  21.863  0.00  0.00     0.005 A 
ATOM     18  C   UNL d   1     -39.795  14.335  21.171  0.00  0.00     0.039 A 
ENDBRANCH  12  13
ENDBRANCH  11  12
ENDBRANCH   1  11
TORSDOF 3
ENDMDL
MODEL 7
REMARK VINA RESULT:      -5.3      8.017     10.278
REMARK  3 active torsions:
REMARK  status: ('A' for Active; 'I' for Inactive)
REMARK    1  A    between atoms: C_7  and  C_1 
REMARK    2  A    between atoms: N_8  and  C_7 
REMARK    3  A    between atoms: C_11  and  N_8 
ROOT
ATOM      1  C   UNL d   1     -39.892  14.712  18.771  0.00  0.00     0.145 A 
ATOM      2  C   UNL d   1     -40.546  14.264  18.977  0.00  0.00     0.304 A 
ATOM      3  C   UNL d   1     -39.551  15.221  19.323  0.00  0.00     0.304 A 
ATOM      4  O   UNL d   1     -40.864  14.321  19.737  0.00  0.00    -0.277 OA
ATOM      5  O   UNL d   1     -39.869  15.277  20.083  0.00  0.00    -0.277 OA
ATOM      6  C   UNL d   1     -40.528  14.825  20.287  0.00  0.00     0.203 A 
ATOM      7  O   UNL d   1     -40.889  13.744  18.400  0.00  0.00    -0.259 OA
ATOM      8  O   UNL d   1     -38.872  15.683  19.102  0.00  0.00    -0.259 OA
ATOM      9  C   UNL d   1     -40.340  15.264  20.975  0.00  0.00     0.062 C 
ATOM     10  C   UNL d   1     -41.174  14.449  20.652  0.00  0.00     0.062 C 
ENDROOT
BRANCH   1  11
ATOM     11  C   UNL d   1     -39.571  14.655  18.005  0.00  0.00     0.111 C 
BRANCH  11  12
ATOM     12  N   UNL d   1     -38.986  14.097  17.845  0.00  0.00    -0.225 NA
BRANCH  12  13
ATOM     13  C   UNL d   1     -38.679  14.026  17.074  0.00  0.00     0.163 A 
ATOM     14  N   UNL d   1     -38.808  14.623  16.523  0.00  0.00    -0.225 NA
ATOM     15  C   UNL d   1     -38.502  14.553  15.755  0.00  0.00     0.101 A 
ATOM     16  C   UNL d   1     -38.070  13.886  15.544  0.00  0.00     0.021 A 
ATOM     17  C   UNL d   1     -37.940  13.286  16.095  0.00  0.00     0.005 A 
ATOM     18  C   UNL d   1     -38.245  13.357  16.863  0.00  0.00     0.039 A 
ENDBRANCH  12  13
ENDBRANCH  11  12
ENDBRANCH   1  11
TORSDOF 3
ENDMDL
MODEL 8
REMARK VINA RESULT:      -5.2      8.045      9.612
REMARK  3 active torsions:
REMARK  status: ('A' for Active; 'I' for Inactive)
REMARK    1  A    between atoms: C_7  and  C_1 
REMARK    2  A    between atoms: N_8  and  C_7 
REMARK    3  A    between atoms: C_11  and  N_8 
ROOT
ATOM      1  C   UNL d   1     -39.619  14.273  17.800  0.00  0.00     0.145 A 
ATOM      2  C   UNL d   1     -39.677  14.778  17.158  0.00  0.00     0.304 A 
ATOM      3  C   UNL d   1     -39.100  13.632  17.775  0.00  0.00     0.304 A 
ATOM      4  O   UNL d   1     -39.216  14.648  16.485  0.00  0.00    -0.277 OA
ATOM      5  O   UNL d   1     -38.639  13.502  17.102  0.00  0.00    -0.277 OA
ATOM      6  C   UNL d   1     -38.700  14.013  16.457  0.00  0.00     0.203 A 
ATOM      7  O   UNL d   1     -40.215  15.434  17.196  0.00  0.00    -0.259 OA
ATOM      8  O   UNL d   1     -39.046  13.112  18.445  0.00  0.00    -0.259 OA
ATOM      9  C   UNL d   1     -38.130  13.442  16.234  0.00  0.00     0.062 C 
ATOM     10  C   UNL d   1     -38.637  14.421  15.735  0.00  0.00     0.062 C 
ENDROOT
BRANCH   1  11
ATOM     11  C   UNL d   1     -40.084  14.404  18.479  0.00  0.00     0.111 C 
BRANCH  11  12
ATOM     12  N   UNL d   1     -39.790  14.866  19.095  0.00  0.00    -0.225 NA
BRANCH  12  13
ATOM     13  C   UNL d   1     -40.266  15.022  19.761  0.00  0.00     0.163 A 
ATOM     14  N   UNL d   1     -40.752  14.433  20.065  0.00  0.00    -0.225 NA
ATOM     15  C   UNL d   1     -41.227  14.588  20.728  0.00  0.00     0.101 A 
ATOM     16  C   UNL d   1     -41.209  15.330  21.081  0.00  0.00     0.021 A 
ATOM     17  C   UNL d   1     -40.721  15.922  20.778  0.00  0.00     0.005 A 
ATOM     18  C   UNL d   1     -40.247  15.767  20.114  0.00  0.00     0.039 A 
ENDBRANCH  12  13
ENDBRANCH  11  12
ENDBRANCH   1  11
TORSDOF 3
ENDMDL
MODEL 9
REMARK VINA RESULT:      -5.0      8.503      9.152
REMARK  3 active torsions:
REMARK  status: ('A' for Active; 'I' for Inactive)
REMARK    1  A    between atoms: C_7  and  C_1 
REMARK    2  A    between atoms: N_8  and  C_7 
REMARK    3  A    between atoms: C_11  and  N_8 
ROOT
ATOM      1  C   UNL d   1     -39.377  14.475  20.358  0.00  0.00     0.145 A 
ATOM      2  C   UNL d   1     -38.652  14.094  20.351  0.00  0.00     0.304 A 
ATOM      3  C   UNL d   1     -39.833  14.480  21.045  0.00  0.00     0.304 A 
ATOM      4  O   UNL d   1     -38.376  13.714  21.030  0.00  0.00    -0.277 OA
ATOM      5  O   UNL d   1     -39.557  14.100  21.725  0.00  0.00    -0.277 OA
ATOM      6  C   UNL d   1     -38.827  13.717  21.714  0.00  0.00     0.203 A 
ATOM      7  O   UNL d   1     -38.191  14.095  19.637  0.00  0.00    -0.259 OA
ATOM      8  O   UNL d   1     -40.584  14.877  21.044  0.00  0.00    -0.259 OA
ATOM      9  C   UNL d   1     -39.122  13.607  22.489  0.00  0.00     0.062 C 
ATOM     10  C   UNL d   1     -38.129  13.293  21.874  0.00  0.00     0.062 C 
ENDROOT
BRANCH   1  11
ATOM     11  C   UNL d   1     -39.655  14.858  19.672  0.00  0.00     0.111 C 
BRANCH  11  12
ATOM     12  N   UNL d   1     -40.155  14.458  19.152  0.00  0.00    -0.225 NA
BRANCH  12  13
ATOM     13  C   UNL d   1     -40.379  14.816  18.434  0.00  0.00     0.163 A 
ATOM     14  N   UNL d   1     -40.716  15.565  18.437  0.00  0.00    -0.225 NA
ATOM     15  C   UNL d   1     -40.940  15.922  17.721  0.00  0.00     0.101 A 
ATOM     16  C   UNL d   1     -40.824  15.526  17.011  0.00  0.00     0.021 A 
ATOM     17  C   UNL d   1     -40.486  14.773  17.007  0.00  0.00     0.005 A 
ATOM     18  C   UNL d   1     -40.262  14.417  17.722  0.00  0.00     0.039 A 
ENDBRANCH  12  13
ENDBRANCH  11  12
ENDBRANCH   1  11
TORSDOF 3
ENDMDL
