MODEL 1
REMARK VINA RESULT:      -6.2      0.000      0.000
REMARK  5 active torsions:
REMARK  status: ('A' for Active; 'I' for Inactive)
REMARK    1  A    between atoms: C_6  and  N_1 
REMARK    2  A    between atoms: C_11  and  C_6 
REMARK    3  A    between atoms: C_14  and  C_11 
REMARK    4  A    between atoms: C_12  and  O_13 
REMARK    5  A    between atoms: O_13  and  C_14 
ROOT
ATOM      1  C   UNL d   1     -46.652  13.336  23.082  0.00  0.00     0.238 C 
ATOM      2  O   UNL d   1     -46.181  13.929  23.410  0.00  0.00    -0.283 OA
ENDROOT
BRANCH   1   3
ATOM      3  C   UNL d   1     -46.427  12.543  23.144  0.00  0.00     0.126 C 
BRANCH   3   4
ATOM      4  N   UNL d   1     -45.657  12.314  22.934  0.00  0.00    -0.284 N 
ATOM      5  C   UNL d   1     -45.124  12.750  22.485  0.00  0.00     0.183 A 
ATOM      6  N   UNL d   1     -44.425  12.317  22.410  0.00  0.00    -0.224 NA
ATOM      7  C   UNL d   1     -44.529  11.608  22.817  0.00  0.00     0.099 A 
ATOM      8  C   UNL d   1     -45.287  11.601  23.141  0.00  0.00     0.083 A 
ATOM      9  C   UNL d   1     -44.030  10.967  22.932  0.00  0.00     0.021 A 
ATOM     10  C   UNL d   1     -45.547  10.954  23.583  0.00  0.00     0.019 A 
ATOM     11  C   UNL d   1     -45.044  10.310  23.698  0.00  0.00     0.002 A 
ATOM     12  C   UNL d   1     -44.281  10.313  23.372  0.00  0.00     0.002 A 
ENDBRANCH   3   4
ENDBRANCH   1   3
BRANCH   1  13
ATOM     13  C   UNL d   1     -47.361  13.537  22.685  0.00  0.00     0.166 C 
BRANCH  13  14
ATOM     14  O   UNL d   1     -47.820  14.192  22.949  0.00  0.00    -0.302 OA
BRANCH  14  15
ATOM     15  C   UNL d   1     -48.617  14.285  22.719  0.00  0.00     0.100 A 
ATOM     16  C   UNL d   1     -48.969  13.726  22.245  0.00  0.00     0.025 A 
ATOM     17  C   UNL d   1     -49.765  13.819  22.015  0.00  0.00     0.002 A 
ATOM     18  C   UNL d   1     -50.259  13.361  21.553  0.00  0.00     0.000 A 
ATOM     19  C   UNL d   1     -50.188  14.475  22.270  0.00  0.00     0.000 A 
ATOM     20  C   UNL d   1     -50.986  13.735  21.522  0.00  0.00     0.000 A 
ATOM     21  C   UNL d   1     -50.944  14.420  21.962  0.00  0.00     0.000 A 
ATOM     22  C   UNL d   1     -49.816  15.042  22.755  0.00  0.00     0.002 A 
ATOM     23  C   UNL d   1     -49.040  14.941  22.973  0.00  0.00     0.025 A 
ENDBRANCH  14  15
ENDBRANCH  13  14
ENDBRANCH   1  13
TORSDOF 5
ENDMDL
MODEL 2
REMARK VINA RESULT:      -6.1      8.223      9.689
REMARK  5 active torsions:
REMARK  status: ('A' for Active; 'I' for Inactive)
REMARK    1  A    between atoms: C_6  and  N_1 
REMARK    2  A    between atoms: C_11  and  C_6 
REMARK    3  A    between atoms: C_14  and  C_11 
REMARK    4  A    between atoms: C_12  and  O_13 
REMARK    5  A    between atoms: O_13  and  C_14 
ROOT
ATOM      1  C   UNL d   1     -40.347  14.309  18.377  0.00  0.00     0.238 C 
ATOM      2  O   UNL d   1     -40.952  13.749  18.330  0.00  0.00    -0.283 OA
ENDROOT
BRANCH   1   3
ATOM      3  C   UNL d   1     -40.077  14.689  17.694  0.00  0.00     0.126 C 
BRANCH   3   4
ATOM      4  N   UNL d   1     -39.490  14.331  17.227  0.00  0.00    -0.284 N 
ATOM      5  C   UNL d   1     -39.272  13.539  17.240  0.00  0.00     0.183 A 
ATOM      6  N   UNL d   1     -38.669  13.422  16.689  0.00  0.00    -0.224 NA
ATOM      7  C   UNL d   1     -38.514  14.149  16.333  0.00  0.00     0.099 A 
ATOM      8  C   UNL d   1     -39.018  14.713  16.662  0.00  0.00     0.083 A 
ATOM      9  C   UNL d   1     -37.979  14.370  15.752  0.00  0.00     0.021 A 
ATOM     10  C   UNL d   1     -38.988  15.499  16.409  0.00  0.00     0.019 A 
ATOM     11  C   UNL d   1     -38.448  15.719  15.825  0.00  0.00     0.002 A 
ATOM     12  C   UNL d   1     -37.940  15.154  15.492  0.00  0.00     0.002 A 
ENDBRANCH   3   4
ENDBRANCH   1   3
BRANCH   1  13
ATOM     13  C   UNL d   1     -40.006  14.494  19.118  0.00  0.00     0.166 C 
BRANCH  13  14
ATOM     14  O   UNL d   1     -40.499  14.610  19.791  0.00  0.00    -0.302 OA
BRANCH  14  15
ATOM     15  C   UNL d   1     -40.185  14.874  20.519  0.00  0.00     0.100 A 
ATOM     16  C   UNL d   1     -39.759  14.363  20.985  0.00  0.00     0.025 A 
ATOM     17  C   UNL d   1     -39.446  14.627  21.712  0.00  0.00     0.002 A 
ATOM     18  C   UNL d   1     -39.005  14.252  22.287  0.00  0.00     0.000 A 
ATOM     19  C   UNL d   1     -39.571  15.403  21.950  0.00  0.00     0.000 A 
ATOM     20  C   UNL d   1     -38.857  14.796  22.881  0.00  0.00     0.000 A 
ATOM     21  C   UNL d   1     -39.205  15.505  22.674  0.00  0.00     0.000 A 
ATOM     22  C   UNL d   1     -40.010  15.918  21.462  0.00  0.00     0.002 A 
ATOM     23  C   UNL d   1     -40.310  15.650  20.757  0.00  0.00     0.025 A 
ENDBRANCH  14  15
ENDBRANCH  13  14
ENDBRANCH   1  13
TORSDOF 5
ENDMDL
MODEL 3
REMARK VINA RESULT:      -6.1      1.503      5.533
REMARK  5 active torsions:
REMARK  status: ('A' for Active; 'I' for Inactive)
REMARK    1  A    between atoms: C_6  and  N_1 
REMARK    2  A    between atoms: C_11  and  C_6 
REMARK    3  A    between atoms: C_14  and  C_11 
REMARK    4  A    between atoms: C_12  and  O_13 
REMARK    5  A    between atoms: O_13  and  C_14 
ROOT
ATOM      1  C   UNL d   1     -47.696  13.212  22.556  0.00  0.00     0.238 C 
ATOM      2  O   UNL d   1     -47.700  13.168  21.732  0.00  0.00    -0.283 OA
ENDROOT
BRANCH   1   3
ATOM      3  C   UNL d   1     -48.161  13.773  22.946  0.00  0.00     0.126 C 
BRANCH   3   4
ATOM      4  N   UNL d   1     -48.979  13.806  22.802  0.00  0.00    -0.284 N 
ATOM      5  C   UNL d   1     -49.440  13.210  22.473  0.00  0.00     0.183 A 
ATOM      6  N   UNL d   1     -50.221  13.474  22.430  0.00  0.00    -0.224 NA
ATOM      7  C   UNL d   1     -50.240  14.239  22.736  0.00  0.00     0.099 A 
ATOM      8  C   UNL d   1     -49.477  14.448  22.966  0.00  0.00     0.083 A 
ATOM      9  C   UNL d   1     -50.856  14.771  22.833  0.00  0.00     0.021 A 
ATOM     10  C   UNL d   1     -49.328  15.191  23.295  0.00  0.00     0.019 A 
ATOM     11  C   UNL d   1     -49.949  15.725  23.393  0.00  0.00     0.002 A 
ATOM     12  C   UNL d   1     -50.719  15.518  23.161  0.00  0.00     0.002 A 
ENDBRANCH   3   4
ENDBRANCH   1   3
BRANCH   1  13
ATOM     13  C   UNL d   1     -47.221  12.686  23.000  0.00  0.00     0.166 C 
BRANCH  13  14
ATOM     14  O   UNL d   1     -46.396  12.626  22.839  0.00  0.00    -0.302 OA
BRANCH  14  15
ATOM     15  C   UNL d   1     -45.955  11.956  23.073  0.00  0.00     0.100 A 
ATOM     16  C   UNL d   1     -45.160  11.919  22.909  0.00  0.00     0.025 A 
ATOM     17  C   UNL d   1     -44.719  11.250  23.143  0.00  0.00     0.002 A 
ATOM     18  C   UNL d   1     -43.931  11.057  23.059  0.00  0.00     0.000 A 
ATOM     19  C   UNL d   1     -45.094  10.634  23.536  0.00  0.00     0.000 A 
ATOM     20  C   UNL d   1     -43.817  10.322  23.401  0.00  0.00     0.000 A 
ATOM     21  C   UNL d   1     -44.533  10.061  23.695  0.00  0.00     0.000 A 
ATOM     22  C   UNL d   1     -45.910  10.685  23.698  0.00  0.00     0.002 A 
ATOM     23  C   UNL d   1     -46.329  11.341  23.466  0.00  0.00     0.025 A 
ENDBRANCH  14  15
ENDBRANCH  13  14
ENDBRANCH   1  13
TORSDOF 5
ENDMDL
MODEL 4
REMARK VINA RESULT:      -6.1      2.254      5.317
REMARK  5 active torsions:
REMARK  status: ('A' for Active; 'I' for Inactive)
REMARK    1  A    between atoms: C_6  and  N_1 
REMARK    2  A    between atoms: C_11  and  C_6 
REMARK    3  A    between atoms: C_14  and  C_11 
REMARK    4  A    between atoms: C_12  and  O_13 
REMARK    5  A    between atoms: O_13  and  C_14 
ROOT
ATOM      1  C   UNL d   1     -49.777  11.875  23.503  0.00  0.00     0.238 C 
ATOM      2  O   UNL d   1     -49.966  11.104  23.276  0.00  0.00    -0.283 OA
ENDROOT
BRANCH   1   3
ATOM      3  C   UNL d   1     -50.376  12.431  23.626  0.00  0.00     0.126 C 
BRANCH   3   4
ATOM      4  N   UNL d   1     -50.603  12.939  23.008  0.00  0.00    -0.284 N 
ATOM      5  C   UNL d   1     -50.771  12.720  22.234  0.00  0.00     0.183 A 
ATOM      6  N   UNL d   1     -50.972  13.396  21.806  0.00  0.00    -0.224 NA
ATOM      7  C   UNL d   1     -50.927  14.038  22.322  0.00  0.00     0.099 A 
ATOM      8  C   UNL d   1     -50.700  13.760  23.064  0.00  0.00     0.083 A 
ATOM      9  C   UNL d   1     -51.064  14.838  22.209  0.00  0.00     0.021 A 
ATOM     10  C   UNL d   1     -50.610  14.285  23.696  0.00  0.00     0.019 A 
ATOM     11  C   UNL d   1     -50.748  15.090  23.581  0.00  0.00     0.002 A 
ATOM     12  C   UNL d   1     -50.977  15.372  22.835  0.00  0.00     0.002 A 
ENDBRANCH   3   4
ENDBRANCH   1   3
BRANCH   1  13
ATOM     13  C   UNL d   1     -48.977  12.096  23.610  0.00  0.00     0.166 C 
BRANCH  13  14
ATOM     14  O   UNL d   1     -48.367  11.524  23.513  0.00  0.00    -0.302 OA
BRANCH  14  15
ATOM     15  C   UNL d   1     -47.574  11.753  23.383  0.00  0.00     0.100 A 
ATOM     16  C   UNL d   1     -47.412  12.431  22.967  0.00  0.00     0.025 A 
ATOM     17  C   UNL d   1     -46.620  12.659  22.837  0.00  0.00     0.002 A 
ATOM     18  C   UNL d   1     -46.291  13.297  22.448  0.00  0.00     0.000 A 
ATOM     19  C   UNL d   1     -46.010  12.196  23.132  0.00  0.00     0.000 A 
ATOM     20  C   UNL d   1     -45.477  13.228  22.503  0.00  0.00     0.000 A 
ATOM     21  C   UNL d   1     -45.303  12.550  22.923  0.00  0.00     0.000 A 
ATOM     22  C   UNL d   1     -46.189  11.501  23.558  0.00  0.00     0.002 A 
ATOM     23  C   UNL d   1     -46.964  11.289  23.678  0.00  0.00     0.025 A 
ENDBRANCH  14  15
ENDBRANCH  13  14
ENDBRANCH   1  13
TORSDOF 5
ENDMDL
MODEL 5
REMARK VINA RESULT:      -6.0      7.816      9.199
REMARK  5 active torsions:
REMARK  status: ('A' for Active; 'I' for Inactive)
REMARK    1  A    between atoms: C_6  and  N_1 
REMARK    2  A    between atoms: C_11  and  C_6 
REMARK    3  A    between atoms: C_14  and  C_11 
REMARK    4  A    between atoms: C_12  and  O_13 
REMARK    5  A    between atoms: O_13  and  C_14 
ROOT
ATOM      1  C   UNL d   1     -40.498  14.801  20.337  0.00  0.00     0.238 C 
ATOM      2  O   UNL d   1     -41.238  15.157  20.419  0.00  0.00    -0.283 OA
ENDROOT
BRANCH   1   3
ATOM      3  C   UNL d   1     -40.144  14.421  20.980  0.00  0.00     0.126 C 
BRANCH   3   4
ATOM      4  N   UNL d   1     -39.770  14.869  21.571  0.00  0.00    -0.284 N 
ATOM      5  C   UNL d   1     -39.800  15.686  21.655  0.00  0.00     0.183 A 
ATOM      6  N   UNL d   1     -39.351  15.901  22.314  0.00  0.00    -0.224 NA
ATOM      7  C   UNL d   1     -39.043  15.209  22.639  0.00  0.00     0.099 A 
ATOM      8  C   UNL d   1     -39.299  14.570  22.184  0.00  0.00     0.083 A 
ATOM      9  C   UNL d   1     -38.562  15.079  23.291  0.00  0.00     0.021 A 
ATOM     10  C   UNL d   1     -39.073  13.801  22.381  0.00  0.00     0.019 A 
ATOM     11  C   UNL d   1     -38.590  13.672  23.037  0.00  0.00     0.002 A 
ATOM     12  C   UNL d   1     -38.331  14.313  23.496  0.00  0.00     0.002 A 
ENDBRANCH   3   4
ENDBRANCH   1   3
BRANCH   1  13
ATOM     13  C   UNL d   1     -40.103  14.823  19.600  0.00  0.00     0.166 C 
BRANCH  13  14
ATOM     14  O   UNL d   1     -40.389  14.364  18.954  0.00  0.00    -0.302 OA
BRANCH  14  15
ATOM     15  C   UNL d   1     -39.969  14.317  18.234  0.00  0.00     0.100 A 
ATOM     16  C   UNL d   1     -39.412  13.735  18.129  0.00  0.00     0.025 A 
ATOM     17  C   UNL d   1     -38.992  13.688  17.409  0.00  0.00     0.002 A 
ATOM     18  C   UNL d   1     -38.413  13.177  17.145  0.00  0.00     0.000 A 
ATOM     19  C   UNL d   1     -39.146  14.231  16.813  0.00  0.00     0.000 A 
ATOM     20  C   UNL d   1     -38.209  13.404  16.386  0.00  0.00     0.000 A 
ATOM     21  C   UNL d   1     -38.659  14.053  16.180  0.00  0.00     0.000 A 
ATOM     22  C   UNL d   1     -39.721  14.823  16.933  0.00  0.00     0.002 A 
ATOM     23  C   UNL d   1     -40.123  14.860  17.638  0.00  0.00     0.025 A 
ENDBRANCH  14  15
ENDBRANCH  13  14
ENDBRANCH   1  13
TORSDOF 5
ENDMDL
MODEL 6
REMARK VINA RESULT:      -5.8      1.778      5.049
REMARK  5 active torsions:
REMARK  status: ('A' for Active; 'I' for Inactive)
REMARK    1  A    between atoms: C_6  and  N_1 
REMARK    2  A    between atoms: C_11  and  C_6 
REMARK    3  A    between atoms: C_14  and  C_11 
REMARK    4  A    between atoms: C_12  and  O_13 
REMARK    5  A    between atoms: O_13  and  C_14 
ROOT
ATOM      1  C   UNL d   1     -47.999  14.442  22.654  0.00  0.00     0.238 C 
ATOM      2  O   UNL d   1     -47.920  15.169  22.271  0.00  0.00    -0.283 OA
ENDROOT
BRANCH   1   3
ATOM      3  C   UNL d   1     -48.674  14.278  23.101  0.00  0.00     0.126 C 
BRANCH   3   4
ATOM      4  N   UNL d   1     -49.372  14.030  22.723  0.00  0.00    -0.284 N 
ATOM      5  C   UNL d   1     -49.701  14.358  22.045  0.00  0.00     0.183 A 
ATOM      6  N   UNL d   1     -50.391  13.945  21.860  0.00  0.00    -0.224 NA
ATOM      7  C   UNL d   1     -50.486  13.357  22.429  0.00  0.00     0.099 A 
ATOM      8  C   UNL d   1     -49.860  13.406  22.963  0.00  0.00     0.083 A 
ATOM      9  C   UNL d   1     -51.064  12.783  22.529  0.00  0.00     0.021 A 
ATOM     10  C   UNL d   1     -49.811  12.880  23.598  0.00  0.00     0.019 A 
ATOM     11  C   UNL d   1     -50.394  12.304  23.697  0.00  0.00     0.002 A 
ATOM     12  C   UNL d   1     -51.025  12.252  23.161  0.00  0.00     0.002 A 
ENDBRANCH   3   4
ENDBRANCH   1   3
BRANCH   1  13
ATOM     13  C   UNL d   1     -47.394  13.868  22.590  0.00  0.00     0.166 C 
BRANCH  13  14
ATOM     14  O   UNL d   1     -46.587  14.097  22.666  0.00  0.00    -0.302 OA
BRANCH  14  15
ATOM     15  C   UNL d   1     -45.967  13.547  22.564  0.00  0.00     0.100 A 
ATOM     16  C   UNL d   1     -45.332  13.735  22.093  0.00  0.00     0.025 A 
ATOM     17  C   UNL d   1     -44.713  13.185  21.992  0.00  0.00     0.002 A 
ATOM     18  C   UNL d   1     -44.019  13.214  21.563  0.00  0.00     0.000 A 
ATOM     19  C   UNL d   1     -44.751  12.457  22.369  0.00  0.00     0.000 A 
ATOM     20  C   UNL d   1     -43.628  12.504  21.675  0.00  0.00     0.000 A 
ATOM     21  C   UNL d   1     -44.077  12.037  22.171  0.00  0.00     0.000 A 
ATOM     22  C   UNL d   1     -45.408  12.275  22.850  0.00  0.00     0.002 A 
ATOM     23  C   UNL d   1     -46.005  12.819  22.942  0.00  0.00     0.025 A 
ENDBRANCH  14  15
ENDBRANCH  13  14
ENDBRANCH   1  13
TORSDOF 5
ENDMDL
MODEL 7
REMARK VINA RESULT:      -4.9      3.643      6.555
REMARK  5 active torsions:
REMARK  status: ('A' for Active; 'I' for Inactive)
REMARK    1  A    between atoms: C_6  and  N_1 
REMARK    2  A    between atoms: C_11  and  C_6 
REMARK    3  A    between atoms: C_14  and  C_11 
REMARK    4  A    between atoms: C_12  and  O_13 
REMARK    5  A    between atoms: O_13  and  C_14 
ROOT
ATOM      1  C   UNL d   1     -43.523  12.950  21.490  0.00  0.00     0.238 C 
ATOM      2  O   UNL d   1     -43.302  12.156  21.466  0.00  0.00    -0.283 OA
ENDROOT
BRANCH   1   3
ATOM      3  C   UNL d   1     -44.321  13.159  21.539  0.00  0.00     0.126 C 
BRANCH   3   4
ATOM      4  N   UNL d   1     -44.798  12.835  22.138  0.00  0.00    -0.284 N 
ATOM      5  C   UNL d   1     -44.648  12.146  22.561  0.00  0.00     0.183 A 
ATOM      6  N   UNL d   1     -45.262  12.028  23.099  0.00  0.00    -0.224 NA
ATOM      7  C   UNL d   1     -45.794  12.650  23.007  0.00  0.00     0.099 A 
ATOM      8  C   UNL d   1     -45.512  13.150  22.416  0.00  0.00     0.083 A 
ATOM      9  C   UNL d   1     -46.500  12.825  23.388  0.00  0.00     0.021 A 
ATOM     10  C   UNL d   1     -45.936  13.826  22.203  0.00  0.00     0.019 A 
ATOM     11  C   UNL d   1     -46.646  14.000  22.586  0.00  0.00     0.002 A 
ATOM     12  C   UNL d   1     -46.932  13.499  23.182  0.00  0.00     0.002 A 
ENDBRANCH   3   4
ENDBRANCH   1   3
BRANCH   1  13
ATOM     13  C   UNL d   1     -42.938  13.548  21.466  0.00  0.00     0.166 C 
BRANCH  13  14
ATOM     14  O   UNL d   1     -42.248  13.443  20.994  0.00  0.00    -0.302 OA
BRANCH  14  15
ATOM     15  C   UNL d   1     -41.620  13.993  21.013  0.00  0.00     0.100 A 
ATOM     16  C   UNL d   1     -40.876  13.750  21.231  0.00  0.00     0.025 A 
ATOM     17  C   UNL d   1     -40.249  14.300  21.251  0.00  0.00     0.002 A 
ATOM     18  C   UNL d   1     -39.460  14.224  21.443  0.00  0.00     0.000 A 
ATOM     19  C   UNL d   1     -40.390  15.083  21.048  0.00  0.00     0.000 A 
ATOM     20  C   UNL d   1     -39.111  14.960  21.359  0.00  0.00     0.000 A 
ATOM     21  C   UNL d   1     -39.683  15.490  21.116  0.00  0.00     0.000 A 
ATOM     22  C   UNL d   1     -41.157  15.320  20.826  0.00  0.00     0.002 A 
ATOM     23  C   UNL d   1     -41.761  14.776  20.811  0.00  0.00     0.025 A 
ENDBRANCH  14  15
ENDBRANCH  13  14
ENDBRANCH   1  13
TORSDOF 5
ENDMDL
MODEL 8
REMARK VINA RESULT:      -4.9      7.715      9.829
REMARK  5 active torsions:
REMARK  status: ('A' for Active; 'I' for Inactive)
REMARK    1  A    between atoms: C_6  and  N_1 
REMARK    2  A    between atoms: C_11  and  C_6 
REMARK    3  A    between atoms: C_14  and  C_11 
REMARK    4  A    between atoms: C_12  and  O_13 
REMARK    5  A    between atoms: O_13  and  C_14 
ROOT
ATOM      1  C   UNL d   1     -40.412  15.180  19.097  0.00  0.00     0.238 C 
ATOM      2  O   UNL d   1     -41.196  14.943  18.995  0.00  0.00    -0.283 OA
ENDROOT
BRANCH   1   3
ATOM      3  C   UNL d   1     -40.172  15.530  19.806  0.00  0.00     0.126 C 
BRANCH   3   4
ATOM      4  N   UNL d   1     -40.095  15.066  20.491  0.00  0.00    -0.284 N 
ATOM      5  C   UNL d   1     -40.550  14.411  20.690  0.00  0.00     0.183 A 
ATOM      6  N   UNL d   1     -40.288  14.117  21.415  0.00  0.00    -0.224 NA
ATOM      7  C   UNL d   1     -39.666  14.596  21.665  0.00  0.00     0.099 A 
ATOM      8  C   UNL d   1     -39.544  15.182  21.099  0.00  0.00     0.083 A 
ATOM      9  C   UNL d   1     -39.196  14.572  22.337  0.00  0.00     0.021 A 
ATOM     10  C   UNL d   1     -38.950  15.747  21.203  0.00  0.00     0.019 A 
ATOM     11  C   UNL d   1     -38.477  15.722  21.880  0.00  0.00     0.002 A 
ATOM     12  C   UNL d   1     -38.598  15.133  22.452  0.00  0.00     0.002 A 
ENDBRANCH   3   4
ENDBRANCH   1   3
BRANCH   1  13
ATOM     13  C   UNL d   1     -39.857  15.066  18.481  0.00  0.00     0.166 C 
BRANCH  13  14
ATOM     14  O   UNL d   1     -40.100  15.138  17.678  0.00  0.00    -0.302 OA
BRANCH  14  15
ATOM     15  C   UNL d   1     -39.547  15.105  17.052  0.00  0.00     0.100 A 
ATOM     16  C   UNL d   1     -39.330  14.386  16.742  0.00  0.00     0.025 A 
ATOM     17  C   UNL d   1     -38.778  14.353  16.118  0.00  0.00     0.002 A 
ATOM     18  C   UNL d   1     -38.459  13.728  15.702  0.00  0.00     0.000 A 
ATOM     19  C   UNL d   1     -38.458  15.049  15.821  0.00  0.00     0.000 A 
ATOM     20  C   UNL d   1     -37.941  14.037  15.147  0.00  0.00     0.000 A 
ATOM     21  C   UNL d   1     -37.940  14.850  15.220  0.00  0.00     0.000 A 
ATOM     22  C   UNL d   1     -38.689  15.780  16.148  0.00  0.00     0.002 A 
ATOM     23  C   UNL d   1     -39.227  15.801  16.756  0.00  0.00     0.025 A 
ENDBRANCH  14  15
ENDBRANCH  13  14
ENDBRANCH   1  13
TORSDOF 5
ENDMDL
MODEL 9
REMARK VINA RESULT:      -4.4      3.570      4.998
REMARK  5 active torsions:
REMARK  status: ('A' for Active; 'I' for Inactive)
REMARK    1  A    between atoms: C_6  and  N_1 
REMARK    2  A    between atoms: C_11  and  C_6 
REMARK    3  A    between atoms: C_14  and  C_11 
REMARK    4  A    between atoms: C_12  and  O_13 
REMARK    5  A    between atoms: O_13  and  C_14 
ROOT
ATOM      1  C   UNL d   1     -42.720  13.087  21.163  0.00  0.00     0.238 C 
ATOM      2  O   UNL d   1     -42.748  12.717  20.426  0.00  0.00    -0.283 OA
ENDROOT
BRANCH   1   3
ATOM      3  C   UNL d   1     -41.994  13.309  21.490  0.00  0.00     0.126 C 
BRANCH   3   4
ATOM      4  N   UNL d   1     -41.524  13.877  21.107  0.00  0.00    -0.284 N 
ATOM      5  C   UNL d   1     -41.764  14.381  20.504  0.00  0.00     0.183 A 
ATOM      6  N   UNL d   1     -41.124  14.855  20.285  0.00  0.00    -0.224 NA
ATOM      7  C   UNL d   1     -40.485  14.640  20.759  0.00  0.00     0.099 A 
ATOM      8  C   UNL d   1     -40.727  14.037  21.267  0.00  0.00     0.083 A 
ATOM      9  C   UNL d   1     -39.713  14.916  20.791  0.00  0.00     0.021 A 
ATOM     10  C   UNL d   1     -40.197  13.710  21.809  0.00  0.00     0.019 A 
ATOM     11  C   UNL d   1     -39.421  13.989  21.841  0.00  0.00     0.002 A 
ATOM     12  C   UNL d   1     -39.174  14.595  21.330  0.00  0.00     0.002 A 
ENDBRANCH   3   4
ENDBRANCH   1   3
BRANCH   1  13
ATOM     13  C   UNL d   1     -43.428  13.238  21.583  0.00  0.00     0.166 C 
BRANCH  13  14
ATOM     14  O   UNL d   1     -43.996  12.624  21.684  0.00  0.00    -0.302 OA
BRANCH  14  15
ATOM     15  C   UNL d   1     -44.721  12.763  22.074  0.00  0.00     0.100 A 
ATOM     16  C   UNL d   1     -45.038  12.191  22.556  0.00  0.00     0.025 A 
ATOM     17  C   UNL d   1     -45.763  12.330  22.945  0.00  0.00     0.002 A 
ATOM     18  C   UNL d   1     -46.209  11.872  23.452  0.00  0.00     0.000 A 
ATOM     19  C   UNL d   1     -46.150  13.046  22.838  0.00  0.00     0.000 A 
ATOM     20  C   UNL d   1     -46.872  12.305  23.659  0.00  0.00     0.000 A 
ATOM     21  C   UNL d   1     -46.837  13.027  23.282  0.00  0.00     0.000 A 
ATOM     22  C   UNL d   1     -45.814  13.626  22.341  0.00  0.00     0.002 A 
ATOM     23  C   UNL d   1     -45.109  13.479  21.967  0.00  0.00     0.025 A 
ENDBRANCH  14  15
ENDBRANCH  13  14
ENDBRANCH   1  13
TORSDOF 5
ENDMDL
