MODEL 1
REMARK VINA RESULT:      -1.6      0.000      0.000
REMARK  4 active torsions:
REMARK  status: ('A' for Active; 'I' for Inactive)
REMARK    1  A    between atoms: S_6  and  C_1 
REMARK    2  A    between atoms: C_14  and  N_2 
REMARK    3  A    between atoms: C_7  and  S_6 
REMARK    4  A    between atoms: O_18  and  C_16 
ROOT
ATOM      1  C   UNL d   1      33.221  20.874 -22.040  0.00  0.00     0.114 A 
ATOM      2  N   UNL d   1      33.217  20.075 -21.833  0.00  0.00    -0.239 NA
ATOM      3  C   UNL d   1      33.203  19.515 -22.431  0.00  0.00     0.084 A 
ATOM      4  C   UNL d   1      33.192  19.738 -23.208  0.00  0.00     0.018 A 
ATOM      5  C   UNL d   1      33.195  20.531 -23.417  0.00  0.00     0.004 A 
ATOM      6  C   UNL d   1      33.199  18.711 -22.224  0.00  0.00     0.043 A 
ATOM      7  C   UNL d   1      33.210  21.097 -22.818  0.00  0.00     0.026 A 
ATOM      8  C   UNL d   1      33.176  19.167 -23.809  0.00  0.00     0.004 A 
ATOM      9  C   UNL d   1      33.184  18.150 -22.822  0.00  0.00     0.096 A 
ATOM     10  C   UNL d   1      33.173  18.373 -23.600  0.00  0.00     0.024 A 
ATOM     11  C   UNL d   1      33.184  20.757 -24.205  0.00  0.00     0.000 C 
ENDROOT
BRANCH   1  12
ATOM     12  S   UNL d   1      33.236  21.539 -21.509  0.00  0.00    -0.028 SA
BRANCH  12  13
ATOM     13  C   UNL d   1      32.444  21.331 -21.195  0.00  0.00     0.220 A 
ATOM     14  N   UNL d   1      32.049  21.674 -20.528  0.00  0.00    -0.186 N 
ATOM     15  N   UNL d   1      31.325  21.294 -20.458  0.00  0.00    -0.038 NA
ATOM     16  N   UNL d   1      31.254  20.711 -21.076  0.00  0.00    -0.022 NA
ATOM     17  N   UNL d   1      31.950  20.748 -21.519  0.00  0.00    -0.101 NA
BRANCH  14  18
ATOM     18  C   UNL d   1      32.345  22.284 -20.036  0.00  0.00     0.087 A 
ATOM     19  C   UNL d   1      32.870  22.070 -19.409  0.00  0.00     0.019 A 
ATOM     20  C   UNL d   1      33.193  22.679 -18.883  0.00  0.00     0.002 A 
ATOM     21  C   UNL d   1      32.972  23.476 -19.015  0.00  0.00     0.000 A 
ATOM     22  C   UNL d   1      32.435  23.702 -19.655  0.00  0.00     0.002 A 
ATOM     23  C   UNL d   1      32.142  23.072 -20.146  0.00  0.00     0.019 A 
ENDBRANCH  14  18
ENDBRANCH  12  13
ENDBRANCH   1  12
BRANCH   9  24
ATOM     24  O   UNL d   1      33.180  17.357 -22.613  0.00  0.00    -0.328 OA
ATOM     25  C   UNL d   1      32.730  16.827 -23.030  0.00  0.00     0.181 C 
ENDBRANCH   9  24
TORSDOF 4
ENDMDL
MODEL 2
REMARK VINA RESULT:      -1.4      2.565      5.070
REMARK  4 active torsions:
REMARK  status: ('A' for Active; 'I' for Inactive)
REMARK    1  A    between atoms: S_6  and  C_1 
REMARK    2  A    between atoms: C_14  and  N_2 
REMARK    3  A    between atoms: C_7  and  S_6 
REMARK    4  A    between atoms: O_18  and  C_16 
ROOT
ATOM      1  C   UNL d   1      33.174  19.180 -23.332  0.00  0.00     0.114 A 
ATOM      2  N   UNL d   1      33.239  19.892 -23.745  0.00  0.00    -0.239 NA
ATOM      3  C   UNL d   1      33.163  20.594 -23.329  0.00  0.00     0.084 A 
ATOM      4  C   UNL d   1      33.027  20.592 -22.532  0.00  0.00     0.018 A 
ATOM      5  C   UNL d   1      32.962  19.886 -22.119  0.00  0.00     0.004 A 
ATOM      6  C   UNL d   1      33.228  21.311 -23.742  0.00  0.00     0.043 A 
ATOM      7  C   UNL d   1      33.038  19.178 -22.535  0.00  0.00     0.026 A 
ATOM      8  C   UNL d   1      32.951  21.305 -22.116  0.00  0.00     0.004 A 
ATOM      9  C   UNL d   1      33.152  22.014 -23.326  0.00  0.00     0.096 A 
ATOM     10  C   UNL d   1      33.016  22.012 -22.529  0.00  0.00     0.024 A 
ATOM     11  C   UNL d   1      32.824  19.884 -21.312  0.00  0.00     0.000 C 
ENDROOT
BRANCH   1  12
ATOM     12  S   UNL d   1      33.235  18.395 -23.656  0.00  0.00    -0.028 SA
BRANCH  12  13
ATOM     13  C   UNL d   1      32.561  18.545 -24.197  0.00  0.00     0.220 A 
ATOM     14  N   UNL d   1      31.934  18.010 -24.397  0.00  0.00    -0.186 N 
ATOM     15  N   UNL d   1      31.441  18.406 -24.921  0.00  0.00    -0.038 NA
ATOM     16  N   UNL d   1      31.749  19.189 -25.057  0.00  0.00    -0.022 NA
ATOM     17  N   UNL d   1      32.436  19.257 -24.604  0.00  0.00    -0.101 NA
BRANCH  14  18
ATOM     18  C   UNL d   1      31.839  17.228 -24.113  0.00  0.00     0.087 A 
ATOM     19  C   UNL d   1      31.075  16.995 -23.834  0.00  0.00     0.019 A 
ATOM     20  C   UNL d   1      30.946  16.193 -23.533  0.00  0.00     0.002 A 
ATOM     21  C   UNL d   1      31.593  15.662 -23.528  0.00  0.00     0.000 A 
ATOM     22  C   UNL d   1      32.378  15.892 -23.812  0.00  0.00     0.002 A 
ATOM     23  C   UNL d   1      32.459  16.690 -24.098  0.00  0.00     0.019 A 
ENDBRANCH  14  18
ENDBRANCH  12  13
ENDBRANCH   1  12
BRANCH   9  24
ATOM     24  O   UNL d   1      33.218  22.720 -23.739  0.00  0.00    -0.328 OA
ATOM     25  C   UNL d   1      33.069  23.425 -23.367  0.00  0.00     0.181 C 
ENDBRANCH   9  24
TORSDOF 4
ENDMDL
MODEL 3
REMARK VINA RESULT:      -0.1      1.337      1.958
REMARK  4 active torsions:
REMARK  status: ('A' for Active; 'I' for Inactive)
REMARK    1  A    between atoms: S_6  and  C_1 
REMARK    2  A    between atoms: C_14  and  N_2 
REMARK    3  A    between atoms: C_7  and  S_6 
REMARK    4  A    between atoms: O_18  and  C_16 
ROOT
ATOM      1  C   UNL d   1      32.951  19.697 -23.260  0.00  0.00     0.114 A 
ATOM      2  N   UNL d   1      33.241  18.973 -22.991  0.00  0.00    -0.239 NA
ATOM      3  C   UNL d   1      32.888  18.285 -23.263  0.00  0.00     0.084 A 
ATOM      4  C   UNL d   1      32.268  18.314 -23.782  0.00  0.00     0.018 A 
ATOM      5  C   UNL d   1      31.979  19.032 -24.051  0.00  0.00     0.004 A 
ATOM      6  C   UNL d   1      33.177  17.555 -22.994  0.00  0.00     0.043 A 
ATOM      7  C   UNL d   1      32.332  19.726 -23.779  0.00  0.00     0.026 A 
ATOM      8  C   UNL d   1      31.915  17.614 -24.054  0.00  0.00     0.004 A 
ATOM      9  C   UNL d   1      32.824  16.866 -23.266  0.00  0.00     0.096 A 
ATOM     10  C   UNL d   1      32.205  16.895 -23.786  0.00  0.00     0.024 A 
ATOM     11  C   UNL d   1      31.352  19.061 -24.577  0.00  0.00     0.000 C 
ENDROOT
BRANCH   1  12
ATOM     12  S   UNL d   1      33.237  20.471 -23.048  0.00  0.00    -0.028 SA
BRANCH  12  13
ATOM     13  C   UNL d   1      33.110  20.306 -22.196  0.00  0.00     0.220 A 
ATOM     14  N   UNL d   1      32.906  20.863 -21.589  0.00  0.00    -0.186 N 
ATOM     15  N   UNL d   1      32.849  20.441 -20.888  0.00  0.00    -0.038 NA
ATOM     16  N   UNL d   1      33.016  19.619 -21.041  0.00  0.00    -0.022 NA
ATOM     17  N   UNL d   1      33.174  19.555 -21.850  0.00  0.00    -0.101 NA
BRANCH  14  18
ATOM     18  C   UNL d   1      32.786  21.685 -21.691  0.00  0.00     0.087 A 
ATOM     19  C   UNL d   1      32.232  22.073 -21.184  0.00  0.00     0.019 A 
ATOM     20  C   UNL d   1      32.086  22.923 -21.265  0.00  0.00     0.002 A 
ATOM     21  C   UNL d   1      32.506  23.344 -21.854  0.00  0.00     0.000 A 
ATOM     22  C   UNL d   1      33.075  22.954 -22.378  0.00  0.00     0.002 A 
ATOM     23  C   UNL d   1      33.186  22.118 -22.262  0.00  0.00     0.019 A 
ENDBRANCH  14  18
ENDBRANCH  12  13
ENDBRANCH   1  12
BRANCH   9  24
ATOM     24  O   UNL d   1      33.113  16.148 -22.997  0.00  0.00    -0.328 OA
ATOM     25  C   UNL d   1      32.777  15.453 -23.248  0.00  0.00     0.181 C 
ENDBRANCH   9  24
TORSDOF 4
ENDMDL
MODEL 4
REMARK VINA RESULT:      -0.1      1.791      4.595
REMARK  4 active torsions:
REMARK  status: ('A' for Active; 'I' for Inactive)
REMARK    1  A    between atoms: S_6  and  C_1 
REMARK    2  A    between atoms: C_14  and  N_2 
REMARK    3  A    between atoms: C_7  and  S_6 
REMARK    4  A    between atoms: O_18  and  C_16 
ROOT
ATOM      1  C   UNL d   1      33.001  21.882 -22.031  0.00  0.00     0.114 A 
ATOM      2  N   UNL d   1      33.241  21.894 -21.241  0.00  0.00    -0.239 NA
ATOM      3  C   UNL d   1      32.964  22.494 -20.757  0.00  0.00     0.084 A 
ATOM      4  C   UNL d   1      32.467  23.064 -21.045  0.00  0.00     0.018 A 
ATOM      5  C   UNL d   1      32.227  23.054 -21.829  0.00  0.00     0.004 A 
ATOM      6  C   UNL d   1      33.204  22.509 -19.963  0.00  0.00     0.043 A 
ATOM      7  C   UNL d   1      32.504  22.451 -22.319  0.00  0.00     0.026 A 
ATOM      8  C   UNL d   1      32.190  23.669 -20.551  0.00  0.00     0.004 A 
ATOM      9  C   UNL d   1      32.928  23.110 -19.478  0.00  0.00     0.096 A 
ATOM     10  C   UNL d   1      32.430  23.679 -19.766  0.00  0.00     0.024 A 
ATOM     11  C   UNL d   1      31.723  23.630 -22.120  0.00  0.00     0.000 C 
ENDROOT
BRANCH   1  12
ATOM     12  S   UNL d   1      33.222  21.311 -22.622  0.00  0.00    -0.028 SA
BRANCH  12  13
ATOM     13  C   UNL d   1      33.131  20.653 -22.050  0.00  0.00     0.220 A 
ATOM     14  N   UNL d   1      32.926  19.848 -22.220  0.00  0.00    -0.186 N 
ATOM     15  N   UNL d   1      32.911  19.449 -21.503  0.00  0.00    -0.038 NA
ATOM     16  N   UNL d   1      33.105  19.993 -20.876  0.00  0.00    -0.022 NA
ATOM     17  N   UNL d   1      33.237  20.727 -21.230  0.00  0.00    -0.101 NA
BRANCH  14  18
ATOM     18  C   UNL d   1      32.770  19.525 -22.977  0.00  0.00     0.087 A 
ATOM     19  C   UNL d   1      32.108  19.005 -23.059  0.00  0.00     0.019 A 
ATOM     20  C   UNL d   1      31.921  18.655 -23.830  0.00  0.00     0.002 A 
ATOM     21  C   UNL d   1      32.409  18.847 -24.482  0.00  0.00     0.000 A 
ATOM     22  C   UNL d   1      33.088  19.380 -24.406  0.00  0.00     0.002 A 
ATOM     23  C   UNL d   1      33.235  19.699 -23.631  0.00  0.00     0.019 A 
ENDBRANCH  14  18
ENDBRANCH  12  13
ENDBRANCH   1  12
BRANCH   9  24
ATOM     24  O   UNL d   1      33.168  23.120 -18.694  0.00  0.00    -0.328 OA
ATOM     25  C   UNL d   1      32.637  23.297 -18.106  0.00  0.00     0.181 C 
ENDBRANCH   9  24
TORSDOF 4
ENDMDL
MODEL 5
REMARK VINA RESULT:       0.3      2.334      3.252
REMARK  4 active torsions:
REMARK  status: ('A' for Active; 'I' for Inactive)
REMARK    1  A    between atoms: S_6  and  C_1 
REMARK    2  A    between atoms: C_14  and  N_2 
REMARK    3  A    between atoms: C_7  and  S_6 
REMARK    4  A    between atoms: O_18  and  C_16 
ROOT
ATOM      1  C   UNL d   1      33.152  22.560 -20.546  0.00  0.00     0.114 A 
ATOM      2  N   UNL d   1      33.191  23.054 -21.205  0.00  0.00    -0.239 NA
ATOM      3  C   UNL d   1      33.091  22.725 -21.949  0.00  0.00     0.084 A 
ATOM      4  C   UNL d   1      32.957  21.932 -22.037  0.00  0.00     0.018 A 
ATOM      5  C   UNL d   1      32.917  21.438 -21.383  0.00  0.00     0.004 A 
ATOM      6  C   UNL d   1      33.129  23.220 -22.613  0.00  0.00     0.043 A 
ATOM      7  C   UNL d   1      33.018  21.767 -20.634  0.00  0.00     0.026 A 
ATOM      8  C   UNL d   1      32.856  21.604 -22.791  0.00  0.00     0.004 A 
ATOM      9  C   UNL d   1      33.029  22.891 -23.358  0.00  0.00     0.096 A 
ATOM     10  C   UNL d   1      32.895  22.098 -23.445  0.00  0.00     0.024 A 
ATOM     11  C   UNL d   1      32.782  20.635 -21.472  0.00  0.00     0.000 C 
ENDROOT
BRANCH   1  12
ATOM     12  S   UNL d   1      33.240  22.788 -19.731  0.00  0.00    -0.028 SA
BRANCH  12  13
ATOM     13  C   UNL d   1      32.421  23.100 -19.709  0.00  0.00     0.220 A 
ATOM     14  N   UNL d   1      31.971  23.317 -19.023  0.00  0.00    -0.186 N 
ATOM     15  N   UNL d   1      31.240  23.575 -19.290  0.00  0.00    -0.038 NA
ATOM     16  N   UNL d   1      31.218  23.525 -20.141  0.00  0.00    -0.022 NA
ATOM     17  N   UNL d   1      31.952  23.231 -20.381  0.00  0.00    -0.101 NA
BRANCH  14  18
ATOM     18  C   UNL d   1      32.229  23.274 -18.227  0.00  0.00     0.087 A 
ATOM     19  C   UNL d   1      31.803  22.771 -17.697  0.00  0.00     0.019 A 
ATOM     20  C   UNL d   1      32.046  22.706 -16.868  0.00  0.00     0.002 A 
ATOM     21  C   UNL d   1      32.707  23.151 -16.611  0.00  0.00     0.000 A 
ATOM     22  C   UNL d   1      33.148  23.669 -17.148  0.00  0.00     0.002 A 
ATOM     23  C   UNL d   1      32.874  23.702 -17.953  0.00  0.00     0.019 A 
ENDBRANCH  14  18
ENDBRANCH  12  13
ENDBRANCH   1  12
BRANCH   9  24
ATOM     24  O   UNL d   1      33.068  23.385 -24.011  0.00  0.00    -0.328 OA
ATOM     25  C   UNL d   1      32.997  23.079 -24.759  0.00  0.00     0.181 C 
ENDBRANCH   9  24
TORSDOF 4
ENDMDL
