MODEL 1
REMARK VINA RESULT:      76.0      0.000      0.000
REMARK  2 active torsions:
REMARK  status: ('A' for Active; 'I' for Inactive)
REMARK    1  A    between atoms: C_7  and  C_1 
REMARK       I    between atoms: N_13  and  C_7 
REMARK    2  A    between atoms: C_18  and  N_13 
ROOT
ATOM      1  N   UNL d   1      14.694  20.809  -6.358  0.00  0.00    -0.191 NA
ATOM      2  C   UNL d   1      14.539  20.052  -6.049  0.00  0.00     0.101 C 
ATOM      3  C   UNL d   1      14.075  17.786  -5.118  0.00  0.00     0.085 A 
ATOM      4  C   UNL d   1      14.383  19.294  -5.739  0.00  0.00     0.068 A 
ATOM      5  C   UNL d   1      14.271  18.410  -4.621  0.00  0.00     0.020 A 
ATOM      6  C   UNL d   1      14.032  17.924  -5.948  0.00  0.00     0.020 A 
ATOM      7  C   UNL d   1      14.427  19.166  -4.915  0.00  0.00     0.012 A 
ATOM      8  C   UNL d   1      14.188  18.679  -6.242  0.00  0.00     0.012 A 
ENDROOT
BRANCH   3   9
ATOM      9  N   UNL d   1      13.919  17.033  -4.831  0.00  0.00    -0.208 NA
ATOM     10  C   UNL d   1      14.514  16.665  -4.377  0.00  0.00     0.283 C 
ATOM     11  O   UNL d   1      15.214  17.027  -4.222  0.00  0.00    -0.265 OA
BRANCH  10  12
ATOM     12  C   UNL d   1      14.363  15.909  -4.087  0.00  0.00     0.101 A 
ATOM     13  C   UNL d   1      14.578  15.689  -3.325  0.00  0.00     0.208 A 
ATOM     14  O   UNL d   1      14.431  14.937  -3.029  0.00  0.00    -0.288 OA
ATOM     15  N   UNL d   1      14.962  16.253  -2.831  0.00  0.00    -0.121 N 
ATOM     16  C   UNL d   1      14.047  14.372  -3.523  0.00  0.00     0.103 A 
ATOM     17  C   UNL d   1      13.832  14.604  -4.296  0.00  0.00     0.023 A 
ATOM     18  C   UNL d   1      13.899  13.638  -3.245  0.00  0.00     0.039 A 
ATOM     19  C   UNL d   1      13.979  15.344  -4.581  0.00  0.00     0.010 A 
ATOM     20  C   UNL d   1      13.447  14.045  -4.797  0.00  0.00     0.003 A 
ATOM     21  C   UNL d   1      13.300  13.294  -4.501  0.00  0.00     0.016 A 
ATOM     22  C   UNL d   1      13.515  13.073  -3.740  0.00  0.00     0.066 A 
ATOM     23  C   UNL d   1      12.918  12.713  -4.976  0.00  0.00     0.003 A 
ATOM     24  N   UNL d   1      13.367  12.344  -3.468  0.00  0.00    -0.304 N 
ATOM     25  C   UNL d   1      13.582  12.123  -2.706  0.00  0.00     0.080 A 
ATOM     26  C   UNL d   1      12.983  11.780  -3.962  0.00  0.00     0.080 A 
ATOM     27  C   UNL d   1      13.966  12.688  -2.212  0.00  0.00     0.019 A 
ATOM     28  C   UNL d   1      14.113  13.422  -2.490  0.00  0.00     0.005 A 
ATOM     29  C   UNL d   1      12.769  11.989  -4.711  0.00  0.00     0.019 A 
ENDBRANCH  10  12
ENDBRANCH   3   9
TORSDOF 2
ENDMDL
MODEL 2
REMARK VINA RESULT:      78.9      0.819      1.592
REMARK  2 active torsions:
REMARK  status: ('A' for Active; 'I' for Inactive)
REMARK    1  A    between atoms: C_7  and  C_1 
REMARK       I    between atoms: N_13  and  C_7 
REMARK    2  A    between atoms: C_18  and  N_13 
ROOT
ATOM      1  N   UNL d   1      15.011  20.923  -5.751  0.00  0.00    -0.191 NA
ATOM      2  C   UNL d   1      14.781  20.128  -5.666  0.00  0.00     0.101 C 
ATOM      3  C   UNL d   1      14.096  17.744  -5.410  0.00  0.00     0.085 A 
ATOM      4  C   UNL d   1      14.551  19.331  -5.581  0.00  0.00     0.068 A 
ATOM      5  C   UNL d   1      14.759  18.033  -5.021  0.00  0.00     0.020 A 
ATOM      6  C   UNL d   1      13.650  18.267  -5.898  0.00  0.00     0.020 A 
ATOM      7  C   UNL d   1      14.998  18.819  -5.096  0.00  0.00     0.012 A 
ATOM      8  C   UNL d   1      13.889  19.054  -5.973  0.00  0.00     0.012 A 
ENDROOT
BRANCH   3   9
ATOM      9  N   UNL d   1      13.853  16.964  -5.339  0.00  0.00    -0.208 NA
ATOM     10  C   UNL d   1      14.285  16.475  -4.818  0.00  0.00     0.283 C 
ATOM     11  O   UNL d   1      14.913  16.750  -4.399  0.00  0.00    -0.265 OA
BRANCH  10  12
ATOM     12  C   UNL d   1      14.046  15.690  -4.742  0.00  0.00     0.101 A 
ATOM     13  C   UNL d   1      13.698  15.283  -5.365  0.00  0.00     0.208 A 
ATOM     14  O   UNL d   1      13.458  14.500  -5.296  0.00  0.00    -0.288 OA
ATOM     15  N   UNL d   1      13.584  15.681  -6.098  0.00  0.00    -0.121 N 
ATOM     16  C   UNL d   1      13.573  14.101  -4.562  0.00  0.00     0.103 A 
ATOM     17  C   UNL d   1      13.927  14.522  -3.934  0.00  0.00     0.023 A 
ATOM     18  C   UNL d   1      13.343  13.340  -4.485  0.00  0.00     0.039 A 
ATOM     19  C   UNL d   1      14.161  15.291  -4.008  0.00  0.00     0.010 A 
ATOM     20  C   UNL d   1      14.045  14.131  -3.197  0.00  0.00     0.003 A 
ATOM     21  C   UNL d   1      13.805  13.349  -3.128  0.00  0.00     0.016 A 
ATOM     22  C   UNL d   1      13.458  12.942  -3.751  0.00  0.00     0.066 A 
ATOM     23  C   UNL d   1      13.909  12.930  -2.405  0.00  0.00     0.003 A 
ATOM     24  N   UNL d   1      13.231  12.186  -3.670  0.00  0.00    -0.304 N 
ATOM     25  C   UNL d   1      12.883  11.779  -4.293  0.00  0.00     0.080 A 
ATOM     26  C   UNL d   1      13.345  11.788  -2.937  0.00  0.00     0.080 A 
ATOM     27  C   UNL d   1      12.769  12.178  -5.027  0.00  0.00     0.019 A 
ATOM     28  C   UNL d   1      12.999  12.939  -5.104  0.00  0.00     0.005 A 
ATOM     29  C   UNL d   1      13.687  12.182  -2.320  0.00  0.00     0.019 A 
ENDBRANCH  10  12
ENDBRANCH   3   9
TORSDOF 2
ENDMDL
