MODEL 1
REMARK VINA RESULT:      -8.8      0.000      0.000
REMARK  6 active torsions:
REMARK  status: ('A' for Active; 'I' for Inactive)
REMARK    1  A    between atoms: C_8  and  C_1 
REMARK    2  A    between atoms: N_7  and  C_2 
REMARK    3  A    between atoms: C_10  and  C_4 
REMARK       I    between atoms: C_6  and  N_7 
REMARK       I    between atoms: N_9  and  C_6 
REMARK    4  A    between atoms: O_13  and  C_8 
REMARK    5  A    between atoms: C_14  and  N_9 
REMARK    6  A    between atoms: C_17  and  O_13 
ROOT
ATOM      1  C   UNL d   1      53.940  32.347  53.675  0.00  0.00     0.111 A 
ATOM      2  C   UNL d   1      53.231  32.471  53.293  0.00  0.00     0.098 A 
ATOM      3  S   UNL d   1      53.983  31.546  53.850  0.00  0.00    -0.080 SA
ATOM      4  C   UNL d   1      53.297  31.187  53.573  0.00  0.00     0.031 A 
ATOM      5  C   UNL d   1      52.827  31.773  53.223  0.00  0.00     0.026 A 
ENDROOT
BRANCH   2   6
ATOM      6  N   UNL d   1      52.999  33.218  53.031  0.00  0.00    -0.190 NA
ATOM      7  C   UNL d   1      52.219  33.370  52.911  0.00  0.00     0.369 C 
ATOM      8  N   UNL d   1      51.966  34.112  52.649  0.00  0.00    -0.191 NA
ATOM      9  O   UNL d   1      51.671  32.780  53.050  0.00  0.00    -0.242 OA
BRANCH   8  10
ATOM     10  C   UNL d   1      51.152  34.267  52.525  0.00  0.00     0.086 A 
ATOM     11  C   UNL d   1      50.843  34.161  51.758  0.00  0.00     0.019 A 
ATOM     12  C   UNL d   1      50.051  34.311  51.633  0.00  0.00     0.002 A 
ATOM     13  C   UNL d   1      49.569  34.562  52.256  0.00  0.00     0.000 A 
ATOM     14  C   UNL d   1      49.878  34.664  53.008  0.00  0.00     0.002 A 
ATOM     15  C   UNL d   1      50.664  34.518  53.142  0.00  0.00     0.019 A 
ENDBRANCH   8  10
ENDBRANCH   2   6
BRANCH   1  16
ATOM     16  C   UNL d   1      54.518  32.932  53.854  0.00  0.00     0.308 C 
ATOM     17  O   UNL d   1      55.081  33.164  53.293  0.00  0.00    -0.258 OA
BRANCH  16  18
ATOM     18  O   UNL d   1      54.527  33.277  54.590  0.00  0.00    -0.271 OA
BRANCH  18  19
ATOM     19  C   UNL d   1      55.233  33.682  54.856  0.00  0.00     0.126 C 
ATOM     20  C   UNL d   1      55.211  34.044  55.628  0.00  0.00     0.029 C 
ENDBRANCH  18  19
ENDBRANCH  16  18
ENDBRANCH   1  16
BRANCH   4  21
ATOM     21  C   UNL d   1      53.191  30.388  53.673  0.00  0.00     0.006 A 
ATOM     22  C   UNL d   1      53.378  30.015  54.402  0.00  0.00     0.001 A 
ATOM     23  C   UNL d   1      53.268  29.204  54.497  0.00  0.00     0.000 A 
ATOM     24  C   UNL d   1      52.985  28.763  53.901  0.00  0.00     0.000 A 
ATOM     25  C   UNL d   1      52.786  29.125  53.141  0.00  0.00     0.000 A 
ATOM     26  C   UNL d   1      52.896  29.928  53.053  0.00  0.00     0.001 A 
ENDBRANCH   4  21
TORSDOF 6
ENDMDL
MODEL 2
REMARK VINA RESULT:      -7.8      1.152      3.003
REMARK  6 active torsions:
REMARK  status: ('A' for Active; 'I' for Inactive)
REMARK    1  A    between atoms: C_8  and  C_1 
REMARK    2  A    between atoms: N_7  and  C_2 
REMARK    3  A    between atoms: C_10  and  C_4 
REMARK       I    between atoms: C_6  and  N_7 
REMARK       I    between atoms: N_9  and  C_6 
REMARK    4  A    between atoms: O_13  and  C_8 
REMARK    5  A    between atoms: C_14  and  N_9 
REMARK    6  A    between atoms: C_17  and  O_13 
ROOT
ATOM      1  C   UNL d   1      53.114  31.862  53.393  0.00  0.00     0.111 A 
ATOM      2  C   UNL d   1      52.632  32.519  53.373  0.00  0.00     0.098 A 
ATOM      3  S   UNL d   1      53.801  32.081  53.787  0.00  0.00    -0.080 SA
ATOM      4  C   UNL d   1      53.731  32.872  54.004  0.00  0.00     0.031 A 
ATOM      5  C   UNL d   1      52.994  33.143  53.741  0.00  0.00     0.026 A 
ENDROOT
BRANCH   2   6
ATOM      6  N   UNL d   1      51.888  32.505  53.017  0.00  0.00    -0.190 NA
ATOM      7  C   UNL d   1      51.445  33.174  52.997  0.00  0.00     0.369 C 
ATOM      8  N   UNL d   1      50.697  33.180  52.645  0.00  0.00    -0.191 NA
ATOM      9  O   UNL d   1      51.742  33.859  53.332  0.00  0.00    -0.242 OA
BRANCH   8  10
ATOM     10  C   UNL d   1      50.239  33.882  52.627  0.00  0.00     0.086 A 
ATOM     11  C   UNL d   1      49.987  34.169  51.887  0.00  0.00     0.019 A 
ATOM     12  C   UNL d   1      49.540  34.852  51.865  0.00  0.00     0.002 A 
ATOM     13  C   UNL d   1      49.345  35.246  52.565  0.00  0.00     0.000 A 
ATOM     14  C   UNL d   1      49.595  34.959  53.290  0.00  0.00     0.002 A 
ATOM     15  C   UNL d   1      50.040  34.281  53.322  0.00  0.00     0.019 A 
ENDBRANCH   8  10
ENDBRANCH   2   6
BRANCH   1  16
ATOM     16  C   UNL d   1      52.940  31.105  53.072  0.00  0.00     0.308 C 
ATOM     17  O   UNL d   1      52.966  30.971  52.255  0.00  0.00    -0.258 OA
BRANCH  16  18
ATOM     18  O   UNL d   1      52.742  30.493  53.567  0.00  0.00    -0.271 OA
BRANCH  18  19
ATOM     19  C   UNL d   1      52.929  29.689  53.339  0.00  0.00     0.126 C 
ATOM     20  C   UNL d   1      52.926  29.095  53.952  0.00  0.00     0.029 C 
ENDBRANCH  18  19
ENDBRANCH  16  18
ENDBRANCH   1  16
BRANCH   4  21
ATOM     21  C   UNL d   1      54.336  33.235  54.404  0.00  0.00     0.006 A 
ATOM     22  C   UNL d   1      54.274  33.398  55.226  0.00  0.00     0.001 A 
ATOM     23  C   UNL d   1      54.893  33.767  55.627  0.00  0.00     0.000 A 
ATOM     24  C   UNL d   1      55.556  33.974  55.243  0.00  0.00     0.000 A 
ATOM     25  C   UNL d   1      55.642  33.816  54.396  0.00  0.00     0.000 A 
ATOM     26  C   UNL d   1      55.027  33.451  54.005  0.00  0.00     0.001 A 
ENDBRANCH   4  21
TORSDOF 6
ENDMDL
MODEL 3
REMARK VINA RESULT:      -7.2      1.003      4.226
REMARK  6 active torsions:
REMARK  status: ('A' for Active; 'I' for Inactive)
REMARK    1  A    between atoms: C_8  and  C_1 
REMARK    2  A    between atoms: N_7  and  C_2 
REMARK    3  A    between atoms: C_10  and  C_4 
REMARK       I    between atoms: C_6  and  N_7 
REMARK       I    between atoms: N_9  and  C_6 
REMARK    4  A    between atoms: O_13  and  C_8 
REMARK    5  A    between atoms: C_14  and  N_9 
REMARK    6  A    between atoms: C_17  and  O_13 
ROOT
ATOM      1  C   UNL d   1      53.250  33.480  53.450  0.00  0.00     0.111 A 
ATOM      2  C   UNL d   1      53.038  32.739  53.183  0.00  0.00     0.098 A 
ATOM      3  S   UNL d   1      52.615  33.980  53.302  0.00  0.00    -0.080 SA
ATOM      4  C   UNL d   1      52.019  33.538  52.946  0.00  0.00     0.031 A 
ATOM      5  C   UNL d   1      52.290  32.759  52.873  0.00  0.00     0.026 A 
ENDROOT
BRANCH   2   6
ATOM      6  N   UNL d   1      53.544  32.091  53.241  0.00  0.00    -0.190 NA
ATOM      7  C   UNL d   1      53.250  31.377  53.462  0.00  0.00     0.369 C 
ATOM      8  N   UNL d   1      53.741  30.716  53.526  0.00  0.00    -0.191 NA
ATOM      9  O   UNL d   1      52.452  31.307  53.624  0.00  0.00    -0.242 OA
BRANCH   8  10
ATOM     10  C   UNL d   1      53.430  29.972  53.756  0.00  0.00     0.086 A 
ATOM     11  C   UNL d   1      53.627  29.679  54.510  0.00  0.00     0.019 A 
ATOM     12  C   UNL d   1      53.326  28.955  54.738  0.00  0.00     0.002 A 
ATOM     13  C   UNL d   1      52.836  28.527  54.229  0.00  0.00     0.000 A 
ATOM     14  C   UNL d   1      52.645  28.821  53.488  0.00  0.00     0.002 A 
ATOM     15  C   UNL d   1      52.939  29.539  53.252  0.00  0.00     0.019 A 
ENDBRANCH   8  10
ENDBRANCH   2   6
BRANCH   1  16
ATOM     16  C   UNL d   1      53.981  33.690  53.808  0.00  0.00     0.308 C 
ATOM     17  O   UNL d   1      54.660  33.821  53.351  0.00  0.00    -0.258 OA
BRANCH  16  18
ATOM     18  O   UNL d   1      54.027  33.766  54.615  0.00  0.00    -0.271 OA
BRANCH  18  19
ATOM     19  C   UNL d   1      54.776  33.971  54.976  0.00  0.00     0.126 C 
ATOM     20  C   UNL d   1      54.890  33.757  55.795  0.00  0.00     0.029 C 
ENDBRANCH  18  19
ENDBRANCH  16  18
ENDBRANCH   1  16
BRANCH   4  21
ATOM     21  C   UNL d   1      51.322  33.897  52.738  0.00  0.00     0.006 A 
ATOM     22  C   UNL d   1      50.755  34.112  53.320  0.00  0.00     0.001 A 
ATOM     23  C   UNL d   1      50.049  34.476  53.101  0.00  0.00     0.000 A 
ATOM     24  C   UNL d   1      49.892  34.628  52.339  0.00  0.00     0.000 A 
ATOM     25  C   UNL d   1      50.461  34.416  51.722  0.00  0.00     0.000 A 
ATOM     26  C   UNL d   1      51.158  34.056  51.944  0.00  0.00     0.001 A 
ENDBRANCH   4  21
TORSDOF 6
ENDMDL
MODEL 4
REMARK VINA RESULT:      -6.0      1.680      4.823
REMARK  6 active torsions:
REMARK  status: ('A' for Active; 'I' for Inactive)
REMARK    1  A    between atoms: C_8  and  C_1 
REMARK    2  A    between atoms: N_7  and  C_2 
REMARK    3  A    between atoms: C_10  and  C_4 
REMARK       I    between atoms: C_6  and  N_7 
REMARK       I    between atoms: N_9  and  C_6 
REMARK    4  A    between atoms: O_13  and  C_8 
REMARK    5  A    between atoms: C_14  and  N_9 
REMARK    6  A    between atoms: C_17  and  O_13 
ROOT
ATOM      1  C   UNL d   1      51.855  34.005  52.734  0.00  0.00     0.111 A 
ATOM      2  C   UNL d   1      52.311  33.371  52.967  0.00  0.00     0.098 A 
ATOM      3  S   UNL d   1      52.058  34.638  53.218  0.00  0.00    -0.080 SA
ATOM      4  C   UNL d   1      52.637  34.383  53.743  0.00  0.00     0.031 A 
ATOM      5  C   UNL d   1      52.793  33.585  53.581  0.00  0.00     0.026 A 
ENDROOT
BRANCH   2   6
ATOM      6  N   UNL d   1      52.255  32.634  52.600  0.00  0.00    -0.190 NA
ATOM      7  C   UNL d   1      52.545  31.984  52.972  0.00  0.00     0.369 C 
ATOM      8  N   UNL d   1      52.499  31.237  52.622  0.00  0.00    -0.191 NA
ATOM      9  O   UNL d   1      52.890  32.067  53.709  0.00  0.00    -0.242 OA
BRANCH   8  10
ATOM     10  C   UNL d   1      52.803  30.561  53.014  0.00  0.00     0.086 A 
ATOM     11  C   UNL d   1      52.263  29.996  53.301  0.00  0.00     0.019 A 
ATOM     12  C   UNL d   1      52.555  29.337  53.683  0.00  0.00     0.002 A 
ATOM     13  C   UNL d   1      53.369  29.237  53.780  0.00  0.00     0.000 A 
ATOM     14  C   UNL d   1      53.896  29.796  53.496  0.00  0.00     0.002 A 
ATOM     15  C   UNL d   1      53.616  30.454  53.115  0.00  0.00     0.019 A 
ENDBRANCH   8  10
ENDBRANCH   2   6
BRANCH   1  16
ATOM     16  C   UNL d   1      51.285  34.009  52.116  0.00  0.00     0.308 C 
ATOM     17  O   UNL d   1      51.515  33.981  51.321  0.00  0.00    -0.258 OA
BRANCH  16  18
ATOM     18  O   UNL d   1      50.493  34.041  52.298  0.00  0.00    -0.271 OA
BRANCH  18  19
ATOM     19  C   UNL d   1      49.936  34.310  51.705  0.00  0.00     0.126 C 
ATOM     20  C   UNL d   1      49.138  34.471  51.961  0.00  0.00     0.029 C 
ENDBRANCH  18  19
ENDBRANCH  16  18
ENDBRANCH   1  16
BRANCH   4  21
ATOM     21  C   UNL d   1      52.942  34.900  54.289  0.00  0.00     0.006 A 
ATOM     22  C   UNL d   1      52.951  35.727  54.144  0.00  0.00     0.001 A 
ATOM     23  C   UNL d   1      53.262  36.246  54.703  0.00  0.00     0.000 A 
ATOM     24  C   UNL d   1      53.558  35.973  55.387  0.00  0.00     0.000 A 
ATOM     25  C   UNL d   1      53.560  35.125  55.558  0.00  0.00     0.000 A 
ATOM     26  C   UNL d   1      53.251  34.616  55.001  0.00  0.00     0.001 A 
ENDBRANCH   4  21
TORSDOF 6
ENDMDL
