MODEL 1
REMARK VINA RESULT:      -5.8      0.000      0.000
REMARK  5 active torsions:
REMARK  status: ('A' for Active; 'I' for Inactive)
REMARK    1  A    between atoms: N_2  and  S_1 
REMARK    2  A    between atoms: C_4  and  S_1 
REMARK    3  A    between atoms: C_5  and  N_3 
REMARK    4  A    between atoms: C_11  and  C_4 
REMARK    5  A    between atoms: C_15  and  C_11 
ROOT
ATOM      1  N   UNL d   1     -41.541-122.735 -51.144  0.00  0.00    -0.226 N 
ATOM      2  N   UNL d   1     -41.708-123.031 -49.539  0.00  0.00    -0.301 N 
ATOM      3  C   UNL d   1     -41.213-123.411 -50.821  0.00  0.00     0.111 A 
ATOM      4  C   UNL d   1     -41.954-122.206 -50.666  0.00  0.00     0.111 A 
ATOM      5  C   UNL d   1     -42.034-122.358 -49.870  0.00  0.00     0.100 A 
ATOM      6  C   UNL d   1     -41.295-123.560 -50.017  0.00  0.00     0.100 A 
ENDROOT
BRANCH   1   7
ATOM      7  S   UNL d   1     -41.454-122.586 -51.965  0.00  0.00     0.272 S 
ATOM      8  O   UNL d   1     -41.125-121.838 -51.792  0.00  0.00    -0.200 OA
ATOM      9  O   UNL d   1     -41.782-123.329 -52.131  0.00  0.00    -0.200 OA
BRANCH   7  10
ATOM     10  C   UNL d   1     -41.368-122.437 -52.773  0.00  0.00     0.116 C 
BRANCH  10  11
ATOM     11  C   UNL d   1     -42.047-122.343 -53.252  0.00  0.00     0.014 C 
BRANCH  11  12
ATOM     12  C   UNL d   1     -41.966-122.243 -54.071  0.00  0.00     0.001 A 
ATOM     13  C   UNL d   1     -41.388-122.682 -54.486  0.00  0.00     0.000 A 
ATOM     14  C   UNL d   1     -41.303-122.583 -55.311  0.00  0.00     0.000 A 
ATOM     15  C   UNL d   1     -41.791-122.052 -55.717  0.00  0.00     0.000 A 
ATOM     16  C   UNL d   1     -42.374-121.608 -55.305  0.00  0.00     0.000 A 
ATOM     17  C   UNL d   1     -42.459-121.706 -54.480  0.00  0.00     0.000 A 
ENDBRANCH  11  12
ENDBRANCH  10  11
ENDBRANCH   7  10
ENDBRANCH   1   7
BRANCH   2  18
ATOM     18  C   UNL d   1     -41.792-123.176 -48.741  0.00  0.00     0.065 A 
ATOM     19  C   UNL d   1     -42.514-123.422 -48.449  0.00  0.00     0.029 A 
ATOM     20  C   UNL d   1     -42.601-123.567 -47.654  0.00  0.00     0.059 A 
ATOM     21 CL   UNL d   1     -43.333-123.818 -47.354  0.00  0.00    -0.082 Cl
ATOM     22  C   UNL d   1     -41.962-123.467 -47.143  0.00  0.00     0.011 A 
ATOM     23  C   UNL d   1     -41.242-123.220 -47.441  0.00  0.00     0.002 A 
ATOM     24  C   UNL d   1     -41.157-123.075 -48.239  0.00  0.00     0.018 A 
ENDBRANCH   2  18
TORSDOF 5
ENDMDL
MODEL 2
REMARK VINA RESULT:      -5.5      1.888      5.622
REMARK  5 active torsions:
REMARK  status: ('A' for Active; 'I' for Inactive)
REMARK    1  A    between atoms: N_2  and  S_1 
REMARK    2  A    between atoms: C_4  and  S_1 
REMARK    3  A    between atoms: C_5  and  N_3 
REMARK    4  A    between atoms: C_11  and  C_4 
REMARK    5  A    between atoms: C_15  and  C_11 
ROOT
ATOM      1  N   UNL d   1     -41.367-122.906 -51.414  0.00  0.00    -0.226 N 
ATOM      2  N   UNL d   1     -41.501-122.722 -53.038  0.00  0.00    -0.301 N 
ATOM      3  C   UNL d   1     -41.513-122.165 -51.727  0.00  0.00     0.111 A 
ATOM      4  C   UNL d   1     -41.288-123.558 -51.912  0.00  0.00     0.111 A 
ATOM      5  C   UNL d   1     -41.356-123.461 -52.718  0.00  0.00     0.100 A 
ATOM      6  C   UNL d   1     -41.580-122.071 -52.540  0.00  0.00     0.100 A 
ENDROOT
BRANCH   1   7
ATOM      7  S   UNL d   1     -41.298-122.997 -50.583  0.00  0.00     0.272 S 
ATOM      8  O   UNL d   1     -41.218-122.170 -50.501  0.00  0.00    -0.200 OA
ATOM      9  O   UNL d   1     -41.378-123.817 -50.669  0.00  0.00    -0.200 OA
BRANCH   7  10
ATOM     10  C   UNL d   1     -41.231-123.085 -49.764  0.00  0.00     0.116 C 
BRANCH  10  11
ATOM     11  C   UNL d   1     -41.897-122.948 -49.277  0.00  0.00     0.014 C 
BRANCH  11  12
ATOM     12  C   UNL d   1     -41.880-123.175 -48.479  0.00  0.00     0.001 A 
ATOM     13  C   UNL d   1     -42.533-123.581 -48.151  0.00  0.00     0.000 A 
ATOM     14  C   UNL d   1     -42.520-123.811 -47.348  0.00  0.00     0.000 A 
ATOM     15  C   UNL d   1     -41.861-123.637 -46.879  0.00  0.00     0.000 A 
ATOM     16  C   UNL d   1     -41.201-123.230 -47.203  0.00  0.00     0.000 A 
ATOM     17  C   UNL d   1     -41.214-122.999 -48.006  0.00  0.00     0.000 A 
ENDBRANCH  11  12
ENDBRANCH  10  11
ENDBRANCH   7  10
ENDBRANCH   1   7
BRANCH   2  18
ATOM     18  C   UNL d   1     -41.568-122.634 -53.846  0.00  0.00     0.065 A 
ATOM     19  C   UNL d   1     -42.080-122.076 -54.151  0.00  0.00     0.029 A 
ATOM     20  C   UNL d   1     -42.148-121.985 -54.956  0.00  0.00     0.059 A 
ATOM     21 CL   UNL d   1     -42.668-121.419 -55.268  0.00  0.00    -0.082 Cl
ATOM     22  C   UNL d   1     -41.702-122.455 -55.464  0.00  0.00     0.011 A 
ATOM     23  C   UNL d   1     -41.191-123.012 -55.154  0.00  0.00     0.002 A 
ATOM     24  C   UNL d   1     -41.124-123.101 -54.346  0.00  0.00     0.018 A 
ENDBRANCH   2  18
TORSDOF 5
ENDMDL
