MODEL 1
REMARK VINA RESULT:      26.7      0.000      0.000
REMARK  4 active torsions:
REMARK  status: ('A' for Active; 'I' for Inactive)
REMARK    1  A    between atoms: N_14  and  C_6 
REMARK    2  A    between atoms: C_19  and  N_14 
REMARK    3  A    between atoms: O_17  and  C_20 
REMARK    4  A    between atoms: C_20  and  C_19 
ROOT
ATOM      1  N   UNL d   1     -58.423 -98.756 -45.189  0.00  0.00    -0.183 N 
ATOM      2  C   UNL d   1     -57.987 -98.757 -44.482  0.00  0.00     0.169 A 
ATOM      3  C   UNL d   1     -57.169 -98.757 -44.497  0.00  0.00     0.073 A 
ATOM      4  C   UNL d   1     -56.790 -98.756 -45.221  0.00  0.00     0.185 A 
ATOM      5  N   UNL d   1     -57.226 -98.756 -45.928  0.00  0.00    -0.142 NA
ATOM      6  C   UNL d   1     -59.240 -98.756 -45.154  0.00  0.00     0.218 A 
ATOM      7  N   UNL d   1     -58.380 -98.757 -43.761  0.00  0.00    -0.226 NA
ATOM      8  C   UNL d   1     -56.738 -98.757 -43.799  0.00  0.00     0.007 A 
ATOM      9  N   UNL d   1     -55.962 -98.756 -45.253  0.00  0.00    -0.225 NA
ATOM     10  C   UNL d   1     -59.633 -98.757 -44.442  0.00  0.00     0.071 A 
ATOM     11  C   UNL d   1     -55.921 -98.757 -43.813  0.00  0.00     0.019 A 
ATOM     12  C   UNL d   1     -59.197 -98.757 -43.736  0.00  0.00     0.087 A 
ATOM     13  C   UNL d   1     -55.526 -98.756 -44.547  0.00  0.00     0.083 A 
ATOM     14  C   UNL d   1     -57.133 -98.758 -43.074  0.00  0.00     0.000 C 
ATOM     15  C   UNL d   1     -59.608 -98.758 -42.987  0.00  0.00     0.021 C 
ATOM     16  C   UNL d   1     -54.712 -98.756 -44.568  0.00  0.00     0.021 C 
ENDROOT
BRANCH   6  17
ATOM     17  N   UNL d   1     -59.682 -98.756 -45.887  0.00  0.00    -0.378 NA
BRANCH  17  18
ATOM     18  C   UNL d   1     -59.961 -98.756 -46.685  0.00  0.00     0.189 C 
BRANCH  18  19
ATOM     19  C   UNL d   1     -59.548 -99.198 -47.280  0.00  0.00     0.151 C 
BRANCH  19  20
ATOM     20  O   UNL d   1     -59.919 -99.362 -48.016  0.00  0.00    -0.323 OA
ATOM     21  C   UNL d   1     -59.785 -98.867 -48.698  0.00  0.00     0.182 C 
ENDBRANCH  19  20
ENDBRANCH  18  19
ENDBRANCH  17  18
ENDBRANCH   6  17
TORSDOF 4
ENDMDL
