MODEL 1
REMARK VINA RESULT:      -2.7      0.000      0.000
REMARK  3 active torsions:
REMARK  status: ('A' for Active; 'I' for Inactive)
REMARK    1  A    between atoms: C_7  and  C_1 
REMARK    2  A    between atoms: C_9  and  C_6 
REMARK    3  A    between atoms: O_13  and  C_7 
ROOT
ATOM      1  C   UNL d   1      31.282  16.720 -24.017  0.00  0.00     0.097 A 
ATOM      2  C   UNL d   1      30.620  16.233 -24.020  0.00  0.00     0.073 A 
ATOM      3  C   UNL d   1      29.858  17.275 -24.629  0.00  0.00     0.206 A 
ATOM      4  N   UNL d   1      29.906  16.505 -24.325  0.00  0.00    -0.280 N 
ATOM      5  N   UNL d   1      30.521  17.762 -24.626  0.00  0.00    -0.218 NA
ATOM      6  C   UNL d   1      31.245  17.489 -24.317  0.00  0.00     0.090 A 
ATOM      7  S   UNL d   1      29.142  17.549 -24.936  0.00  0.00    -0.038 SA
ATOM      8  C   UNL d   1      30.674  15.454 -23.711  0.00  0.00     0.019 C 
ATOM      9  C   UNL d   1      29.240  16.016 -24.329  0.00  0.00     0.101 C 
ENDROOT
BRANCH   6  10
ATOM     10  C   UNL d   1      31.915  17.980 -24.313  0.00  0.00     0.018 A 
ATOM     11  C   UNL d   1      32.113  18.393 -23.627  0.00  0.00     0.002 A 
ATOM     12  C   UNL d   1      32.775  18.880 -23.623  0.00  0.00     0.000 A 
ATOM     13  C   UNL d   1      33.241  18.954 -24.306  0.00  0.00     0.000 A 
ATOM     14  C   UNL d   1      33.034  18.538 -24.984  0.00  0.00     0.000 A 
ATOM     15  C   UNL d   1      32.372  18.052 -24.988  0.00  0.00     0.002 A 
ENDBRANCH   6  10
BRANCH   1  16
ATOM     16  C   UNL d   1      32.014  16.438 -23.703  0.00  0.00     0.299 C 
ATOM     17  O   UNL d   1      32.236  16.630 -22.926  0.00  0.00    -0.259 OA
BRANCH  16  18
ATOM     18  O   UNL d   1      32.504  15.969 -24.181  0.00  0.00    -0.296 OA
ATOM     19  C   UNL d   1      33.079  15.487 -23.847  0.00  0.00     0.185 C 
ENDBRANCH  16  18
ENDBRANCH   1  16
TORSDOF 3
ENDMDL
MODEL 2
REMARK VINA RESULT:      -1.2      1.734      3.436
REMARK  3 active torsions:
REMARK  status: ('A' for Active; 'I' for Inactive)
REMARK    1  A    between atoms: C_7  and  C_1 
REMARK    2  A    between atoms: C_9  and  C_6 
REMARK    3  A    between atoms: O_13  and  C_7 
ROOT
ATOM      1  C   UNL d   1      31.147  17.250 -24.507  0.00  0.00     0.097 A 
ATOM      2  C   UNL d   1      31.858  17.579 -24.755  0.00  0.00     0.073 A 
ATOM      3  C   UNL d   1      32.478  16.297 -24.677  0.00  0.00     0.206 A 
ATOM      4  N   UNL d   1      32.526  17.109 -24.842  0.00  0.00    -0.280 N 
ATOM      5  N   UNL d   1      31.767  15.968 -24.429  0.00  0.00    -0.218 NA
ATOM      6  C   UNL d   1      31.088  16.443 -24.340  0.00  0.00     0.090 A 
ATOM      7  S   UNL d   1      33.148  15.822 -24.764  0.00  0.00    -0.038 SA
ATOM      8  C   UNL d   1      31.901  18.402 -24.920  0.00  0.00     0.019 C 
ATOM      9  C   UNL d   1      33.241  17.439 -25.092  0.00  0.00     0.101 C 
ENDROOT
BRANCH   6  10
ATOM     10  C   UNL d   1      30.369  16.111 -24.089  0.00  0.00     0.018 A 
ATOM     11  C   UNL d   1      30.192  16.085 -23.283  0.00  0.00     0.002 A 
ATOM     12  C   UNL d   1      29.481  15.756 -23.034  0.00  0.00     0.000 A 
ATOM     13  C   UNL d   1      28.946  15.453 -23.591  0.00  0.00     0.000 A 
ATOM     14  C   UNL d   1      29.133  15.484 -24.391  0.00  0.00     0.000 A 
ATOM     15  C   UNL d   1      29.844  15.813 -24.640  0.00  0.00     0.002 A 
ENDBRANCH   6  10
BRANCH   1  16
ATOM     16  C   UNL d   1      30.463  17.737 -24.418  0.00  0.00     0.299 C 
ATOM     17  O   UNL d   1      30.276  18.064 -23.677  0.00  0.00    -0.259 OA
BRANCH  16  18
ATOM     18  O   UNL d   1      29.982  17.882 -25.079  0.00  0.00    -0.296 OA
ATOM     19  C   UNL d   1      29.477  18.530 -25.097  0.00  0.00     0.185 C 
ENDBRANCH  16  18
ENDBRANCH   1  16
TORSDOF 3
ENDMDL
MODEL 3
REMARK VINA RESULT:       0.2      1.818      2.457
REMARK  3 active torsions:
REMARK  status: ('A' for Active; 'I' for Inactive)
REMARK    1  A    between atoms: C_7  and  C_1 
REMARK    2  A    between atoms: C_9  and  C_6 
REMARK    3  A    between atoms: O_13  and  C_7 
ROOT
ATOM      1  C   UNL d   1      31.854  17.625 -24.298  0.00  0.00     0.097 A 
ATOM      2  C   UNL d   1      31.641  16.864 -24.525  0.00  0.00     0.073 A 
ATOM      3  C   UNL d   1      32.750  16.338 -23.797  0.00  0.00     0.206 A 
ATOM      4  N   UNL d   1      32.084  16.218 -24.278  0.00  0.00    -0.280 N 
ATOM      5  N   UNL d   1      32.963  17.099 -23.570  0.00  0.00    -0.218 NA
ATOM      6  C   UNL d   1      32.514  17.756 -23.820  0.00  0.00     0.090 A 
ATOM      7  S   UNL d   1      33.196  15.690 -23.548  0.00  0.00    -0.038 SA
ATOM      8  C   UNL d   1      30.966  16.748 -25.012  0.00  0.00     0.019 C 
ATOM      9  C   UNL d   1      31.871  15.453 -24.505  0.00  0.00     0.101 C 
ENDROOT
BRANCH   6  10
ATOM     10  C   UNL d   1      32.729  18.526 -23.591  0.00  0.00     0.018 A 
ATOM     11  C   UNL d   1      32.645  18.754 -22.802  0.00  0.00     0.002 A 
ATOM     12  C   UNL d   1      32.858  19.515 -22.576  0.00  0.00     0.000 A 
ATOM     13  C   UNL d   1      33.155  20.049 -23.138  0.00  0.00     0.000 A 
ATOM     14  C   UNL d   1      33.234  19.810 -23.920  0.00  0.00     0.000 A 
ATOM     15  C   UNL d   1      33.021  19.049 -24.147  0.00  0.00     0.002 A 
ENDBRANCH   6  10
BRANCH   1  16
ATOM     16  C   UNL d   1      31.396  18.287 -24.554  0.00  0.00     0.299 C 
ATOM     17  O   UNL d   1      31.714  18.830 -25.097  0.00  0.00    -0.259 OA
BRANCH  16  18
ATOM     18  O   UNL d   1      30.628  18.386 -24.255  0.00  0.00    -0.296 OA
ATOM     19  C   UNL d   1      30.000  18.552 -24.759  0.00  0.00     0.185 C 
ENDBRANCH  16  18
ENDBRANCH   1  16
TORSDOF 3
ENDMDL
MODEL 4
REMARK VINA RESULT:       0.2      2.015      3.985
REMARK  3 active torsions:
REMARK  status: ('A' for Active; 'I' for Inactive)
REMARK    1  A    between atoms: C_7  and  C_1 
REMARK    2  A    between atoms: C_9  and  C_6 
REMARK    3  A    between atoms: O_13  and  C_7 
ROOT
ATOM      1  C   UNL d   1      29.592  17.164 -24.455  0.00  0.00     0.097 A 
ATOM      2  C   UNL d   1      30.299  17.470 -24.740  0.00  0.00     0.073 A 
ATOM      3  C   UNL d   1      30.923  16.200 -24.555  0.00  0.00     0.206 A 
ATOM      4  N   UNL d   1      30.967  16.994 -24.792  0.00  0.00    -0.280 N 
ATOM      5  N   UNL d   1      30.216  15.894 -24.269  0.00  0.00    -0.218 NA
ATOM      6  C   UNL d   1      29.537  16.375 -24.215  0.00  0.00     0.090 A 
ATOM      7  S   UNL d   1      31.593  15.721 -24.606  0.00  0.00    -0.038 SA
ATOM      8  C   UNL d   1      30.338  18.275 -24.979  0.00  0.00     0.019 C 
ATOM      9  C   UNL d   1      31.678  17.302 -25.079  0.00  0.00     0.101 C 
ENDROOT
BRANCH   6  10
ATOM     10  C   UNL d   1      28.821  16.066 -23.927  0.00  0.00     0.018 A 
ATOM     11  C   UNL d   1      28.676  16.067 -23.115  0.00  0.00     0.002 A 
ATOM     12  C   UNL d   1      27.968  15.761 -22.830  0.00  0.00     0.000 A 
ATOM     13  C   UNL d   1      27.405  15.453 -23.356  0.00  0.00     0.000 A 
ATOM     14  C   UNL d   1      27.562  15.457 -24.163  0.00  0.00     0.000 A 
ATOM     15  C   UNL d   1      28.269  15.764 -24.449  0.00  0.00     0.002 A 
ENDBRANCH   6  10
BRANCH   1  16
ATOM     16  C   UNL d   1      28.907  17.656 -24.402  0.00  0.00     0.299 C 
ATOM     17  O   UNL d   1      28.564  17.816 -23.662  0.00  0.00    -0.259 OA
BRANCH  16  18
ATOM     18  O   UNL d   1      28.586  17.975 -25.097  0.00  0.00    -0.296 OA
ATOM     19  C   UNL d   1      28.137  18.664 -25.075  0.00  0.00     0.185 C 
ENDBRANCH  16  18
ENDBRANCH   1  16
TORSDOF 3
ENDMDL
