MODEL 1
REMARK VINA RESULT:      40.2      0.000      0.000
REMARK  3 active torsions:
REMARK  status: ('A' for Active; 'I' for Inactive)
REMARK    1  A    between atoms: C_5  and  C_1 
REMARK    2  A    between atoms: C_4  and  C_2 
REMARK       I    between atoms: N_8  and  C_4 
REMARK    3  A    between atoms: C_10  and  N_8 
ROOT
ATOM      1  C   UNL d   1      14.581  13.934  -1.219  0.00  0.00     0.118 A 
ATOM      2  C   UNL d   1      14.334  14.046  -2.000  0.00  0.00     0.103 A 
ATOM      3  N   UNL d   1      14.754  14.678  -0.914  0.00  0.00    -0.126 NA
ATOM      4  O   UNL d   1      14.619  15.244  -1.489  0.00  0.00    -0.211 OA
ATOM      5  C   UNL d   1      14.358  14.849  -2.164  0.00  0.00     0.131 A 
ATOM      6  C   UNL d   1      14.152  15.196  -2.888  0.00  0.00     0.029 C 
ENDROOT
BRANCH   2   7
ATOM      7  C   UNL d   1      14.103  13.444  -2.521  0.00  0.00     0.283 C 
ATOM      8  N   UNL d   1      13.604  13.621  -3.153  0.00  0.00    -0.204 NA
ATOM      9  O   UNL d   1      14.378  12.682  -2.396  0.00  0.00    -0.265 OA
BRANCH   8  10
ATOM     10  C   UNL d   1      13.376  13.024  -3.669  0.00  0.00     0.130 A 
ATOM     11  C   UNL d   1      13.068  13.134  -4.422  0.00  0.00     0.243 A 
ATOM     12  S   UNL d   1      12.913  12.388  -4.751  0.00  0.00    -0.044 SA
ATOM     13  O   UNL d   1      12.935  13.852  -4.792  0.00  0.00    -0.278 OA
ATOM     14  C   UNL d   1      13.126  11.819  -4.199  0.00  0.00     0.040 A 
ATOM     15  C   UNL d   1      13.415  12.213  -3.523  0.00  0.00     0.030 A 
ENDBRANCH   8  10
ENDBRANCH   2   7
BRANCH   1  16
ATOM     16  C   UNL d   1      14.643  13.221  -0.821  0.00  0.00     0.058 A 
ATOM     17  C   UNL d   1      13.989  12.907  -0.415  0.00  0.00     0.142 A 
ATOM     18  F   UNL d   1      13.278  13.325  -0.418  0.00  0.00    -0.204 F 
ATOM     19  C   UNL d   1      14.064  12.193  -0.021  0.00  0.00     0.030 A 
ATOM     20  C   UNL d   1      14.777  11.780  -0.020  0.00  0.00     0.003 A 
ATOM     21  C   UNL d   1      15.431  12.096  -0.429  0.00  0.00     0.012 A 
ATOM     22  C   UNL d   1      15.361  12.813  -0.826  0.00  0.00     0.061 A 
ATOM     23 CL   UNL d   1      16.136  12.890  -1.134  0.00  0.00    -0.082 Cl
ENDBRANCH   1  16
TORSDOF 3
ENDMDL
MODEL 2
REMARK VINA RESULT:      41.0      1.532      2.211
REMARK  3 active torsions:
REMARK  status: ('A' for Active; 'I' for Inactive)
REMARK    1  A    between atoms: C_5  and  C_1 
REMARK    2  A    between atoms: C_4  and  C_2 
REMARK       I    between atoms: N_8  and  C_4 
REMARK    3  A    between atoms: C_10  and  N_8 
ROOT
ATOM      1  C   UNL d   1      14.384  12.843  -0.641  0.00  0.00     0.118 A 
ATOM      2  C   UNL d   1      13.917  12.674  -1.303  0.00  0.00     0.103 A 
ATOM      3  N   UNL d   1      14.107  12.373  -0.027  0.00  0.00    -0.126 NA
ATOM      4  O   UNL d   1      13.481  11.919  -0.294  0.00  0.00    -0.211 OA
ATOM      5  C   UNL d   1      13.365  12.108  -1.088  0.00  0.00     0.131 A 
ATOM      6  C   UNL d   1      12.790  11.786  -1.591  0.00  0.00     0.029 C 
ENDROOT
BRANCH   2   7
ATOM      7  C   UNL d   1      14.001  13.022  -2.050  0.00  0.00     0.283 C 
ATOM      8  N   UNL d   1      13.396  12.945  -2.605  0.00  0.00    -0.204 NA
ATOM      9  O   UNL d   1      14.686  13.437  -2.223  0.00  0.00    -0.265 OA
BRANCH   8  10
ATOM     10  C   UNL d   1      13.479  13.290  -3.346  0.00  0.00     0.130 A 
ATOM     11  C   UNL d   1      13.399  12.903  -4.066  0.00  0.00     0.243 A 
ATOM     12  S   UNL d   1      13.526  13.454  -4.673  0.00  0.00    -0.044 SA
ATOM     13  O   UNL d   1      13.223  12.111  -4.175  0.00  0.00    -0.278 OA
ATOM     14  C   UNL d   1      13.685  14.181  -4.326  0.00  0.00     0.040 A 
ATOM     15  C   UNL d   1      13.656  14.081  -3.497  0.00  0.00     0.030 A 
ENDBRANCH   8  10
ENDBRANCH   2   7
BRANCH   1  16
ATOM     16  C   UNL d   1      15.005  13.376  -0.602  0.00  0.00     0.058 A 
ATOM     17  C   UNL d   1      15.767  13.154  -0.850  0.00  0.00     0.142 A 
ATOM     18  F   UNL d   1      15.888  12.390  -1.136  0.00  0.00    -0.204 F 
ATOM     19  C   UNL d   1      16.379  13.696  -0.806  0.00  0.00     0.030 A 
ATOM     20  C   UNL d   1      16.253  14.458  -0.520  0.00  0.00     0.003 A 
ATOM     21  C   UNL d   1      15.488  14.679  -0.272  0.00  0.00     0.012 A 
ATOM     22  C   UNL d   1      14.870  14.138  -0.314  0.00  0.00     0.061 A 
ATOM     23 CL   UNL d   1      14.242  14.604  -0.014  0.00  0.00    -0.082 Cl
ENDBRANCH   1  16
TORSDOF 3
ENDMDL
