MODEL 1
REMARK VINA RESULT:      -8.0      0.000      0.000
REMARK  3 active torsions:
REMARK  status: ('A' for Active; 'I' for Inactive)
REMARK    1  A    between atoms: C_6  and  C_1 
REMARK    2  A    between atoms: O_9  and  C_6 
REMARK    3  A    between atoms: C_12  and  O_9 
ROOT
ATOM      1  C   UNL d   1      53.390  32.210  53.614  0.00  0.00     0.182 A 
ATOM      2  C   UNL d   1      53.005  32.929  53.806  0.00  0.00     0.133 A 
ATOM      3  O   UNL d   1      54.145  32.223  53.964  0.00  0.00    -0.300 OA
ATOM      4  C   UNL d   1      53.524  33.379  54.270  0.00  0.00     0.044 A 
ATOM      5  C   UNL d   1      54.230  32.947  54.371  0.00  0.00     0.102 A 
ATOM      6  N   UNL d   1      52.244  33.150  53.573  0.00  0.00    -0.146 N 
ATOM      7  C   UNL d   1      53.455  34.117  54.615  0.00  0.00     0.004 A 
ATOM      8  C   UNL d   1      54.842  33.269  54.812  0.00  0.00     0.025 A 
ATOM      9  C   UNL d   1      54.070  34.436  55.056  0.00  0.00     0.000 A 
ATOM     10  C   UNL d   1      54.772  34.006  55.155  0.00  0.00     0.002 A 
ENDROOT
BRANCH   1  11
ATOM     11  C   UNL d   1      53.079  31.596  53.161  0.00  0.00     0.325 C 
ATOM     12  O   UNL d   1      52.833  31.744  52.394  0.00  0.00    -0.257 OA
BRANCH  11  13
ATOM     13  O   UNL d   1      53.016  30.839  53.478  0.00  0.00    -0.269 OA
BRANCH  13  14
ATOM     14  C   UNL d   1      52.807  30.206  52.992  0.00  0.00     0.126 C 
ATOM     15  C   UNL d   1      52.748  29.446  53.306  0.00  0.00     0.029 C 
ENDBRANCH  13  14
ENDBRANCH  11  13
ENDBRANCH   1  11
TORSDOF 3
ENDMDL
MODEL 2
REMARK VINA RESULT:      -7.7      1.946      2.729
REMARK  3 active torsions:
REMARK  status: ('A' for Active; 'I' for Inactive)
REMARK    1  A    between atoms: C_6  and  C_1 
REMARK    2  A    between atoms: O_9  and  C_6 
REMARK    3  A    between atoms: C_12  and  O_9 
ROOT
ATOM      1  C   UNL d   1      52.311  33.784  53.292  0.00  0.00     0.182 A 
ATOM      2  C   UNL d   1      52.684  33.038  53.367  0.00  0.00     0.133 A 
ATOM      3  O   UNL d   1      52.670  34.304  53.836  0.00  0.00    -0.300 OA
ATOM      4  C   UNL d   1      53.268  33.101  53.953  0.00  0.00     0.044 A 
ATOM      5  C   UNL d   1      53.263  33.882  54.246  0.00  0.00     0.102 A 
ATOM      6  N   UNL d   1      52.502  32.359  52.933  0.00  0.00    -0.146 N 
ATOM      7  C   UNL d   1      53.800  32.563  54.260  0.00  0.00     0.004 A 
ATOM      8  C   UNL d   1      53.791  34.096  54.835  0.00  0.00     0.025 A 
ATOM      9  C   UNL d   1      54.327  32.781  54.850  0.00  0.00     0.000 A 
ATOM     10  C   UNL d   1      54.322  33.557  55.141  0.00  0.00     0.002 A 
ENDROOT
BRANCH   1  11
ATOM     11  C   UNL d   1      51.699  33.975  52.775  0.00  0.00     0.325 C 
ATOM     12  O   UNL d   1      51.846  34.012  51.971  0.00  0.00    -0.257 OA
BRANCH  11  13
ATOM     13  O   UNL d   1      50.944  34.127  53.067  0.00  0.00    -0.269 OA
BRANCH  13  14
ATOM     14  C   UNL d   1      50.359  34.414  52.562  0.00  0.00     0.126 C 
ATOM     15  C   UNL d   1      49.636  34.666  52.868  0.00  0.00     0.029 C 
ENDBRANCH  13  14
ENDBRANCH  11  13
ENDBRANCH   1  11
TORSDOF 3
ENDMDL
MODEL 3
REMARK VINA RESULT:      -7.5      0.968      3.349
REMARK  3 active torsions:
REMARK  status: ('A' for Active; 'I' for Inactive)
REMARK    1  A    between atoms: C_6  and  C_1 
REMARK    2  A    between atoms: O_9  and  C_6 
REMARK    3  A    between atoms: C_12  and  O_9 
ROOT
ATOM      1  C   UNL d   1      53.559  32.183  54.103  0.00  0.00     0.182 A 
ATOM      2  C   UNL d   1      53.160  32.043  53.380  0.00  0.00     0.133 A 
ATOM      3  O   UNL d   1      53.723  31.443  54.450  0.00  0.00    -0.300 OA
ATOM      4  C   UNL d   1      53.081  31.223  53.286  0.00  0.00     0.044 A 
ATOM      5  C   UNL d   1      53.428  30.848  53.945  0.00  0.00     0.102 A 
ATOM      6  N   UNL d   1      52.893  32.620  52.853  0.00  0.00    -0.146 N 
ATOM      7  C   UNL d   1      52.746  30.766  52.698  0.00  0.00     0.004 A 
ATOM      8  C   UNL d   1      53.426  30.030  53.992  0.00  0.00     0.025 A 
ATOM      9  C   UNL d   1      52.746  29.947  52.748  0.00  0.00     0.000 A 
ATOM     10  C   UNL d   1      53.090  29.574  53.403  0.00  0.00     0.002 A 
ENDROOT
BRANCH   1  11
ATOM     11  C   UNL d   1      53.755  32.918  54.418  0.00  0.00     0.325 C 
ATOM     12  O   UNL d   1      53.161  33.452  54.598  0.00  0.00    -0.257 OA
BRANCH  11  13
ATOM     13  O   UNL d   1      54.544  33.113  54.551  0.00  0.00    -0.269 OA
BRANCH  13  14
ATOM     14  C   UNL d   1      54.733  33.727  55.069  0.00  0.00     0.126 C 
ATOM     15  C   UNL d   1      55.514  33.982  55.138  0.00  0.00     0.029 C 
ENDBRANCH  13  14
ENDBRANCH  11  13
ENDBRANCH   1  11
TORSDOF 3
ENDMDL
MODEL 4
REMARK VINA RESULT:      -7.5      1.753      3.169
REMARK  3 active torsions:
REMARK  status: ('A' for Active; 'I' for Inactive)
REMARK    1  A    between atoms: C_6  and  C_1 
REMARK    2  A    between atoms: O_9  and  C_6 
REMARK    3  A    between atoms: C_12  and  O_9 
ROOT
ATOM      1  C   UNL d   1      52.319  33.024  52.983  0.00  0.00     0.182 A 
ATOM      2  C   UNL d   1      52.931  32.925  53.546  0.00  0.00     0.133 A 
ATOM      3  O   UNL d   1      52.182  32.285  52.624  0.00  0.00    -0.300 OA
ATOM      4  C   UNL d   1      53.166  32.130  53.532  0.00  0.00     0.044 A 
ATOM      5  C   UNL d   1      52.706  31.730  52.963  0.00  0.00     0.102 A 
ATOM      6  N   UNL d   1      53.245  33.516  54.031  0.00  0.00    -0.146 N 
ATOM      7  C   UNL d   1      53.730  31.715  53.952  0.00  0.00     0.004 A 
ATOM      8  C   UNL d   1      52.826  30.929  52.836  0.00  0.00     0.025 A 
ATOM      9  C   UNL d   1      53.848  30.913  53.822  0.00  0.00     0.000 A 
ATOM     10  C   UNL d   1      53.391  30.515  53.257  0.00  0.00     0.002 A 
ENDROOT
BRANCH   1  11
ATOM     11  C   UNL d   1      51.922  33.725  52.811  0.00  0.00     0.325 C 
ATOM     12  O   UNL d   1      52.335  34.354  52.489  0.00  0.00    -0.257 OA
BRANCH  11  13
ATOM     13  O   UNL d   1      51.116  33.791  52.963  0.00  0.00    -0.269 OA
BRANCH  13  14
ATOM     14  C   UNL d   1      50.690  34.425  52.652  0.00  0.00     0.126 C 
ATOM     15  C   UNL d   1      49.878  34.480  52.784  0.00  0.00     0.029 C 
ENDBRANCH  13  14
ENDBRANCH  11  13
ENDBRANCH   1  11
TORSDOF 3
ENDMDL
MODEL 5
REMARK VINA RESULT:      -7.0      1.645      3.162
REMARK  3 active torsions:
REMARK  status: ('A' for Active; 'I' for Inactive)
REMARK    1  A    between atoms: C_6  and  C_1 
REMARK    2  A    between atoms: O_9  and  C_6 
REMARK    3  A    between atoms: C_12  and  O_9 
ROOT
ATOM      1  C   UNL d   1      53.214  33.376  53.553  0.00  0.00     0.182 A 
ATOM      2  C   UNL d   1      52.606  32.828  53.375  0.00  0.00     0.133 A 
ATOM      3  O   UNL d   1      52.906  34.142  53.445  0.00  0.00    -0.300 OA
ATOM      4  C   UNL d   1      51.931  33.258  53.159  0.00  0.00     0.044 A 
ATOM      5  C   UNL d   1      52.111  34.071  53.201  0.00  0.00     0.102 A 
ATOM      6  N   UNL d   1      52.669  32.005  53.408  0.00  0.00    -0.146 N 
ATOM      7  C   UNL d   1      51.181  33.027  52.932  0.00  0.00     0.004 A 
ATOM      8  C   UNL d   1      51.535  34.623  53.014  0.00  0.00     0.025 A 
ATOM      9  C   UNL d   1      50.607  33.582  52.745  0.00  0.00     0.000 A 
ATOM     10  C   UNL d   1      50.786  34.391  52.786  0.00  0.00     0.002 A 
ENDROOT
BRANCH   1  11
ATOM     11  C   UNL d   1      53.981  33.194  53.793  0.00  0.00     0.325 C 
ATOM     12  O   UNL d   1      54.509  32.879  53.253  0.00  0.00    -0.257 OA
BRANCH  11  13
ATOM     13  O   UNL d   1      54.213  33.327  54.572  0.00  0.00    -0.269 OA
BRANCH  13  14
ATOM     14  C   UNL d   1      55.010  33.448  54.747  0.00  0.00     0.126 C 
ATOM     15  C   UNL d   1      55.229  33.761  55.478  0.00  0.00     0.029 C 
ENDBRANCH  13  14
ENDBRANCH  11  13
ENDBRANCH   1  11
TORSDOF 3
ENDMDL
