MODEL 1
REMARK VINA RESULT:      37.1      0.000      0.000
REMARK  6 active torsions:
REMARK  status: ('A' for Active; 'I' for Inactive)
REMARK       I    between atoms: N_3  and  C_1 
REMARK    1  A    between atoms: O_5  and  C_1 
REMARK    2  A    between atoms: C_6  and  C_2 
REMARK    3  A    between atoms: C_4  and  O_5 
REMARK    4  A    between atoms: C_7  and  C_6 
REMARK    5  A    between atoms: C_9  and  C_7 
REMARK    6  A    between atoms: C_8  and  C_9 
ROOT
ATOM      1  C   UNL d   1      13.283  13.358  -4.058  0.00  0.00     0.063 A 
ATOM      2  C   UNL d   1      13.472  12.745  -3.524  0.00  0.00     0.108 A 
ATOM      3  C   UNL d   1      13.072  13.170  -4.833  0.00  0.00     0.017 A 
ATOM      4  C   UNL d   1      13.445  11.965  -3.777  0.00  0.00     0.026 A 
ATOM      5  C   UNL d   1      13.047  12.386  -5.078  0.00  0.00     0.058 A 
ATOM      6  C   UNL d   1      13.234  11.779  -4.549  0.00  0.00     0.013 A 
ATOM      7 CL   UNL d   1      12.835  12.201  -5.855  0.00  0.00    -0.082 Cl
ENDROOT
BRANCH   1   8
ATOM      8  C   UNL d   1      13.308  14.144  -3.810  0.00  0.00     0.198 C 
ATOM      9  O   UNL d   1      12.843  14.389  -3.172  0.00  0.00    -0.286 OA
BRANCH   8  10
ATOM     10  C   UNL d   1      13.795  14.684  -4.196  0.00  0.00     0.043 C 
BRANCH  10  11
ATOM     11  C   UNL d   1      13.805  15.475  -3.961  0.00  0.00     0.010 C 
BRANCH  11  12
ATOM     12  C   UNL d   1      14.423  15.975  -4.204  0.00  0.00     0.030 A 
ATOM     13  S   UNL d   1      14.976  16.334  -3.701  0.00  0.00    -0.086 SA
ATOM     14  C   UNL d   1      15.488  16.782  -4.184  0.00  0.00     0.035 A 
ATOM     15  C   UNL d   1      15.246  16.695  -4.967  0.00  0.00     0.007 A 
ATOM     16  C   UNL d   1      14.589  16.196  -4.974  0.00  0.00     0.007 A 
ENDBRANCH  11  12
ENDBRANCH  10  11
ENDBRANCH   8  10
ENDBRANCH   1   8
BRANCH   2  17
ATOM     17  O   UNL d   1      13.683  12.930  -2.753  0.00  0.00    -0.259 OA
BRANCH  17  18
ATOM     18  C   UNL d   1      13.580  12.368  -2.155  0.00  0.00     0.378 C 
ATOM     19  N   UNL d   1      14.058  12.387  -1.483  0.00  0.00    -0.247 N 
ATOM     20  C   UNL d   1      13.956  11.827  -0.889  0.00  0.00     0.112 A 
ATOM     21  C   UNL d   1      14.645  12.975  -1.407  0.00  0.00     0.112 A 
ATOM     22  C   UNL d   1      14.443  11.852  -0.210  0.00  0.00     0.142 A 
ATOM     23  O   UNL d   1      15.025  12.440  -0.141  0.00  0.00    -0.300 OA
ATOM     24  C   UNL d   1      15.124  13.000  -0.740  0.00  0.00     0.142 A 
ATOM     25  O   UNL d   1      12.999  11.780  -2.224  0.00  0.00    -0.237 OA
ENDBRANCH  17  18
ENDBRANCH   2  17
TORSDOF 6
ENDMDL
