MODEL 1
REMARK VINA RESULT:      59.9      0.000      0.000
REMARK  12 active torsions:
REMARK  status: ('A' for Active; 'I' for Inactive)
REMARK    1  A    between atoms: C_8  and  C_1 
REMARK    2  A    between atoms: C_9  and  C_2 
REMARK    3  A    between atoms: C_7  and  C_3 
REMARK    4  A    between atoms: S_10  and  C_4 
REMARK    5  A    between atoms: O_23  and  C_8 
REMARK    6  A    between atoms: C_20  and  S_10 
REMARK    7  A    between atoms: O_25  and  C_13 
REMARK    8  A    between atoms: C_14  and  C_20 
REMARK    9  A    between atoms: O_26  and  C_14 
REMARK   10  A    between atoms: C_21  and  C_28 
REMARK   11  A    between atoms: C_28  and  O_23 
REMARK   12  A    between atoms: C_29  and  O_26 
ROOT
ATOM      1  C   UNL d   1      14.326  15.379  -3.091  0.00  0.00     0.081 A 
ATOM      2  C   UNL d   1      14.359  15.657  -4.497  0.00  0.00     0.045 A 
ATOM      3  C   UNL d   1      14.171  15.157  -3.880  0.00  0.00     0.010 A 
ATOM      4  C   UNL d   1      14.701  16.378  -4.340  0.00  0.00     0.112 A 
ATOM      5  C   UNL d   1      14.661  16.085  -2.938  0.00  0.00     0.087 A 
ATOM      6  N   UNL d   1      14.857  16.604  -3.564  0.00  0.00    -0.239 NA
ATOM      7  C   UNL d   1      14.802  16.275  -2.126  0.00  0.00     0.021 C 
ENDROOT
BRANCH   3   8
ATOM      8  C   UNL d   1      13.825  14.424  -4.039  0.00  0.00     0.003 A 
ATOM      9  C   UNL d   1      14.198  13.719  -3.791  0.00  0.00     0.028 A 
ATOM     10  C   UNL d   1      13.851  12.987  -3.951  0.00  0.00     0.133 A 
ATOM     11  C   UNL d   1      13.134  12.966  -4.357  0.00  0.00     0.218 A 
ATOM     12  C   UNL d   1      12.772  13.659  -4.598  0.00  0.00     0.044 A 
ATOM     13  O   UNL d   1      12.769  12.260  -4.528  0.00  0.00    -0.284 OA
ATOM     14  C   UNL d   1      13.118  14.391  -4.439  0.00  0.00     0.003 A 
BRANCH  10  15
ATOM     15  O   UNL d   1      14.220  12.269  -3.705  0.00  0.00    -0.325 OA
ATOM     16  C   UNL d   1      13.893  11.823  -3.093  0.00  0.00     0.181 C 
ENDBRANCH  10  15
ENDBRANCH   3   8
BRANCH   2  17
ATOM     17  C   UNL d   1      14.202  15.428  -5.286  0.00  0.00     0.124 C 
ATOM     18  N   UNL d   1      14.825  15.414  -5.844  0.00  0.00    -0.146 N 
ENDBRANCH   2  17
BRANCH   1  19
ATOM     19  C   UNL d   1      14.142  14.881  -2.430  0.00  0.00     0.302 C 
ATOM     20  O   UNL d   1      13.513  14.357  -2.466  0.00  0.00    -0.259 OA
BRANCH  19  21
ATOM     21  O   UNL d   1      14.601  14.935  -1.761  0.00  0.00    -0.271 OA
BRANCH  21  22
ATOM     22  C   UNL d   1      14.617  14.321  -1.208  0.00  0.00     0.126 C 
BRANCH  22  23
ATOM     23  C   UNL d   1      15.207  14.311  -0.642  0.00  0.00     0.027 C 
ATOM     24  C   UNL d   1      15.218  13.764  -0.057  0.00  0.00     0.002 C 
ENDBRANCH  22  23
ENDBRANCH  21  22
ENDBRANCH  19  21
ENDBRANCH   1  19
BRANCH   4  25
ATOM     25  S   UNL d   1      14.906  16.911  -4.927  0.00  0.00    -0.062 SA
BRANCH  25  26
ATOM     26  C   UNL d   1      14.688  17.688  -4.849  0.00  0.00     0.105 C 
BRANCH  26  27
ATOM     27  C   UNL d   1      14.941  18.235  -5.417  0.00  0.00     0.307 C 
ATOM     28  O   UNL d   1      15.742  18.376  -5.523  0.00  0.00    -0.258 OA
BRANCH  27  29
ATOM     29  O   UNL d   1      14.384  18.628  -5.866  0.00  0.00    -0.271 OA
BRANCH  29  30
ATOM     30  C   UNL d   1      14.397  19.445  -5.878  0.00  0.00     0.126 C 
ATOM     31  C   UNL d   1      13.762  19.866  -5.592  0.00  0.00     0.029 C 
ENDBRANCH  29  30
ENDBRANCH  27  29
ENDBRANCH  26  27
ENDBRANCH  25  26
ENDBRANCH   4  25
TORSDOF 12
ENDMDL
MODEL 2
REMARK VINA RESULT:      61.2      1.895      4.855
REMARK  12 active torsions:
REMARK  status: ('A' for Active; 'I' for Inactive)
REMARK    1  A    between atoms: C_8  and  C_1 
REMARK    2  A    between atoms: C_9  and  C_2 
REMARK    3  A    between atoms: C_7  and  C_3 
REMARK    4  A    between atoms: S_10  and  C_4 
REMARK    5  A    between atoms: O_23  and  C_8 
REMARK    6  A    between atoms: C_20  and  S_10 
REMARK    7  A    between atoms: O_25  and  C_13 
REMARK    8  A    between atoms: C_14  and  C_20 
REMARK    9  A    between atoms: O_26  and  C_14 
REMARK   10  A    between atoms: C_21  and  C_28 
REMARK   11  A    between atoms: C_28  and  O_23 
REMARK   12  A    between atoms: C_29  and  O_26 
ROOT
ATOM      1  C   UNL d   1      13.509  13.596  -3.573  0.00  0.00     0.081 A 
ATOM      2  C   UNL d   1      14.176  14.485  -2.668  0.00  0.00     0.045 A 
ATOM      3  C   UNL d   1      13.843  14.340  -3.400  0.00  0.00     0.010 A 
ATOM      4  C   UNL d   1      14.181  13.898  -2.105  0.00  0.00     0.112 A 
ATOM      5  C   UNL d   1      13.513  13.022  -3.021  0.00  0.00     0.087 A 
ATOM      6  N   UNL d   1      13.852  13.162  -2.270  0.00  0.00    -0.239 NA
ATOM      7  C   UNL d   1      13.165  12.281  -3.234  0.00  0.00     0.021 C 
ENDROOT
BRANCH   3   8
ATOM      8  C   UNL d   1      13.838  14.936  -3.971  0.00  0.00     0.003 A 
ATOM      9  C   UNL d   1      14.538  15.359  -4.145  0.00  0.00     0.028 A 
ATOM     10  C   UNL d   1      14.533  15.954  -4.716  0.00  0.00     0.133 A 
ATOM     11  C   UNL d   1      13.828  16.122  -5.110  0.00  0.00     0.218 A 
ATOM     12  C   UNL d   1      13.145  15.706  -4.937  0.00  0.00     0.044 A 
ATOM     13  O   UNL d   1      13.793  16.704  -5.678  0.00  0.00    -0.284 OA
ATOM     14  C   UNL d   1      13.150  15.111  -4.366  0.00  0.00     0.003 A 
BRANCH  10  15
ATOM     15  O   UNL d   1      15.234  16.386  -4.898  0.00  0.00    -0.325 OA
ATOM     16  C   UNL d   1      15.808  16.058  -5.392  0.00  0.00     0.181 C 
ENDBRANCH  10  15
ENDBRANCH   3   8
BRANCH   2  17
ATOM     17  C   UNL d   1      14.510  15.234  -2.500  0.00  0.00     0.124 C 
ATOM     18  N   UNL d   1      14.535  15.506  -1.709  0.00  0.00    -0.146 N 
ENDBRANCH   2  17
BRANCH   1  19
ATOM     19  C   UNL d   1      13.156  13.415  -4.323  0.00  0.00     0.302 C 
ATOM     20  O   UNL d   1      13.028  14.008  -4.875  0.00  0.00    -0.259 OA
BRANCH  19  21
ATOM     21  O   UNL d   1      12.948  12.646  -4.481  0.00  0.00    -0.271 OA
BRANCH  21  22
ATOM     22  C   UNL d   1      13.393  12.186  -5.003  0.00  0.00     0.126 C 
BRANCH  22  23
ATOM     23  C   UNL d   1      13.354  12.342  -5.805  0.00  0.00     0.027 C 
ATOM     24  C   UNL d   1      13.519  11.780  -6.351  0.00  0.00     0.002 C 
ENDBRANCH  22  23
ENDBRANCH  21  22
ENDBRANCH  19  21
ENDBRANCH   1  19
BRANCH   4  25
ATOM     25  S   UNL d   1      14.503  13.999  -1.359  0.00  0.00    -0.062 SA
BRANCH  25  26
ATOM     26  C   UNL d   1      14.459  13.392  -0.824  0.00  0.00     0.105 C 
BRANCH  26  27
ATOM     27  C   UNL d   1      15.158  13.029  -0.571  0.00  0.00     0.307 C 
ATOM     28  O   UNL d   1      15.884  13.373  -0.735  0.00  0.00    -0.258 OA
BRANCH  27  29
ATOM     29  O   UNL d   1      15.114  12.326  -0.157  0.00  0.00    -0.271 OA
BRANCH  29  30
ATOM     30  C   UNL d   1      14.545  11.781  -0.371  0.00  0.00     0.126 C 
ATOM     31  C   UNL d   1      13.812  11.798  -0.017  0.00  0.00     0.029 C 
ENDBRANCH  29  30
ENDBRANCH  27  29
ENDBRANCH  26  27
ENDBRANCH  25  26
ENDBRANCH   4  25
TORSDOF 12
ENDMDL
MODEL 3
REMARK VINA RESULT:      61.4      1.019      2.905
REMARK  12 active torsions:
REMARK  status: ('A' for Active; 'I' for Inactive)
REMARK    1  A    between atoms: C_8  and  C_1 
REMARK    2  A    between atoms: C_9  and  C_2 
REMARK    3  A    between atoms: C_7  and  C_3 
REMARK    4  A    between atoms: S_10  and  C_4 
REMARK    5  A    between atoms: O_23  and  C_8 
REMARK    6  A    between atoms: C_20  and  S_10 
REMARK    7  A    between atoms: O_25  and  C_13 
REMARK    8  A    between atoms: C_14  and  C_20 
REMARK    9  A    between atoms: O_26  and  C_14 
REMARK   10  A    between atoms: C_21  and  C_28 
REMARK   11  A    between atoms: C_28  and  O_23 
REMARK   12  A    between atoms: C_29  and  O_26 
ROOT
ATOM      1  C   UNL d   1      13.645  15.220  -4.213  0.00  0.00     0.081 A 
ATOM      2  C   UNL d   1      14.525  16.351  -4.199  0.00  0.00     0.045 A 
ATOM      3  C   UNL d   1      14.214  15.693  -3.829  0.00  0.00     0.010 A 
ATOM      4  C   UNL d   1      14.275  16.547  -4.949  0.00  0.00     0.112 A 
ATOM      5  C   UNL d   1      13.400  15.411  -4.946  0.00  0.00     0.087 A 
ATOM      6  N   UNL d   1      13.713  16.084  -5.332  0.00  0.00    -0.239 NA
ATOM      7  C   UNL d   1      12.822  14.908  -5.302  0.00  0.00     0.021 C 
ENDROOT
BRANCH   3   8
ATOM      8  C   UNL d   1      14.468  15.495  -3.068  0.00  0.00     0.003 A 
ATOM      9  C   UNL d   1      14.429  16.058  -2.452  0.00  0.00     0.028 A 
ATOM     10  C   UNL d   1      14.682  15.861  -1.692  0.00  0.00     0.133 A 
ATOM     11  C   UNL d   1      14.972  15.101  -1.554  0.00  0.00     0.218 A 
ATOM     12  C   UNL d   1      15.008  14.553  -2.161  0.00  0.00     0.044 A 
ATOM     13  O   UNL d   1      15.229  14.878  -0.815  0.00  0.00    -0.284 OA
ATOM     14  C   UNL d   1      14.755  14.750  -2.920  0.00  0.00     0.003 A 
BRANCH  10  15
ATOM     15  O   UNL d   1      14.648  16.421  -1.063  0.00  0.00    -0.325 OA
ATOM     16  C   UNL d   1      15.310  16.876  -0.875  0.00  0.00     0.181 C 
ENDBRANCH  10  15
ENDBRANCH   3   8
BRANCH   2  17
ATOM     17  C   UNL d   1      15.096  16.823  -3.810  0.00  0.00     0.124 C 
ATOM     18  N   UNL d   1      15.855  16.915  -4.148  0.00  0.00    -0.146 N 
ENDBRANCH   2  17
BRANCH   1  19
ATOM     19  C   UNL d   1      13.304  14.531  -3.854  0.00  0.00     0.302 C 
ATOM     20  O   UNL d   1      12.808  14.602  -3.205  0.00  0.00    -0.259 OA
BRANCH  19  21
ATOM     21  O   UNL d   1      13.479  13.802  -4.166  0.00  0.00    -0.271 OA
BRANCH  21  22
ATOM     22  C   UNL d   1      12.947  13.174  -4.101  0.00  0.00     0.126 C 
BRANCH  22  23
ATOM     23  C   UNL d   1      13.038  12.522  -4.587  0.00  0.00     0.027 C 
ATOM     24  C   UNL d   1      12.892  11.779  -4.325  0.00  0.00     0.002 C 
ENDBRANCH  22  23
ENDBRANCH  21  22
ENDBRANCH  19  21
ENDBRANCH   1  19
BRANCH   4  25
ATOM     25  S   UNL d   1      14.558  17.197  -5.357  0.00  0.00    -0.062 SA
BRANCH  25  26
ATOM     26  C   UNL d   1      14.033  17.692  -5.726  0.00  0.00     0.105 C 
BRANCH  26  27
ATOM     27  C   UNL d   1      14.307  18.407  -6.040  0.00  0.00     0.307 C 
ATOM     28  O   UNL d   1      15.102  18.498  -6.221  0.00  0.00    -0.258 OA
BRANCH  27  29
ATOM     29  O   UNL d   1      13.778  19.016  -6.166  0.00  0.00    -0.271 OA
BRANCH  29  30
ATOM     30  C   UNL d   1      14.069  19.759  -6.336  0.00  0.00     0.126 C 
ATOM     31  C   UNL d   1      13.774  20.411  -5.948  0.00  0.00     0.029 C 
ENDBRANCH  29  30
ENDBRANCH  27  29
ENDBRANCH  26  27
ENDBRANCH  25  26
ENDBRANCH   4  25
TORSDOF 12
ENDMDL
