MODEL 1
REMARK VINA RESULT:      -5.0      0.000      0.000
REMARK  2 active torsions:
REMARK  status: ('A' for Active; 'I' for Inactive)
REMARK    1  A    between atoms: C_4  and  C_3 
REMARK    2  A    between atoms: S_11  and  C_6 
ROOT
ATOM      1  N   UNL d   1      57.340  -0.929  30.963  0.00  0.00    -0.146 NA
ATOM      2  N   UNL d   1      57.817  -0.665  30.341  0.00  0.00    -0.142 NA
ATOM      3  C   UNL d   1      57.028  -0.387  31.497  0.00  0.00     0.126 A 
ATOM      4  C   UNL d   1      57.978   0.140  30.256  0.00  0.00     0.128 A 
ATOM      5  C   UNL d   1      57.189   0.418  31.413  0.00  0.00     0.025 A 
ATOM      6  C   UNL d   1      57.663   0.681  30.793  0.00  0.00     0.029 A 
ENDROOT
BRANCH   3   7
ATOM      7  C   UNL d   1      56.555  -0.640  32.116  0.00  0.00     0.119 A 
ATOM      8  O   UNL d   1      56.311  -1.415  32.249  0.00  0.00    -0.304 OA
ATOM      9  C   UNL d   1      55.842  -1.433  32.931  0.00  0.00     0.123 A 
ATOM     10  C   UNL d   1      55.794  -0.657  33.224  0.00  0.00     0.029 A 
ATOM     11  C   UNL d   1      56.235  -0.171  32.719  0.00  0.00     0.028 A 
ENDBRANCH   3   7
BRANCH   4  12
ATOM     12  S   UNL d   1      58.454   0.403  29.634  0.00  0.00    -0.092 SA
ATOM     13  C   UNL d   1      59.273   0.310  29.672  0.00  0.00     0.076 C 
ENDBRANCH   4  12
TORSDOF 2
ENDMDL
MODEL 2
REMARK VINA RESULT:      -4.8      1.635      3.237
REMARK  2 active torsions:
REMARK  status: ('A' for Active; 'I' for Inactive)
REMARK    1  A    between atoms: C_4  and  C_3 
REMARK    2  A    between atoms: S_11  and  C_6 
ROOT
ATOM      1  N   UNL d   1      57.126  -0.903  31.131  0.00  0.00    -0.146 NA
ATOM      2  N   UNL d   1      56.661  -1.186  31.754  0.00  0.00    -0.142 NA
ATOM      3  C   UNL d   1      57.335  -0.108  31.105  0.00  0.00     0.126 A 
ATOM      4  C   UNL d   1      56.408  -0.672  32.347  0.00  0.00     0.128 A 
ATOM      5  C   UNL d   1      57.081   0.407  31.698  0.00  0.00     0.025 A 
ATOM      6  C   UNL d   1      56.618   0.125  32.318  0.00  0.00     0.029 A 
ENDROOT
BRANCH   3   7
ATOM      7  C   UNL d   1      57.795   0.180  30.492  0.00  0.00     0.119 A 
ATOM      8  O   UNL d   1      57.517   0.435  29.760  0.00  0.00    -0.304 OA
ATOM      9  C   UNL d   1      58.160   0.682  29.302  0.00  0.00     0.123 A 
ATOM     10  C   UNL d   1      58.847   0.577  29.757  0.00  0.00     0.029 A 
ATOM     11  C   UNL d   1      58.618   0.268  30.490  0.00  0.00     0.028 A 
ENDBRANCH   3   7
BRANCH   4  12
ATOM     12  S   UNL d   1      55.943  -0.955  32.970  0.00  0.00    -0.092 SA
ATOM     13  C   UNL d   1      55.421  -0.449  33.359  0.00  0.00     0.076 C 
ENDBRANCH   4  12
TORSDOF 2
ENDMDL
MODEL 3
REMARK VINA RESULT:      -4.7      1.901      3.336
REMARK  2 active torsions:
REMARK  status: ('A' for Active; 'I' for Inactive)
REMARK    1  A    between atoms: C_4  and  C_3 
REMARK    2  A    between atoms: S_11  and  C_6 
ROOT
ATOM      1  N   UNL d   1      56.551   0.648  32.007  0.00  0.00    -0.146 NA
ATOM      2  N   UNL d   1      56.003   0.630  32.626  0.00  0.00    -0.142 NA
ATOM      3  C   UNL d   1      56.883  -0.054  31.734  0.00  0.00     0.126 A 
ATOM      4  C   UNL d   1      55.790  -0.089  32.969  0.00  0.00     0.128 A 
ATOM      5  C   UNL d   1      56.670  -0.773  32.077  0.00  0.00     0.025 A 
ATOM      6  C   UNL d   1      56.125  -0.791  32.693  0.00  0.00     0.029 A 
ENDROOT
BRANCH   3   7
ATOM      7  C   UNL d   1      57.426  -0.044  31.121  0.00  0.00     0.119 A 
ATOM      8  O   UNL d   1      57.549  -0.650  30.577  0.00  0.00    -0.304 OA
ATOM      9  C   UNL d   1      58.146  -0.419  30.052  0.00  0.00     0.123 A 
ATOM     10  C   UNL d   1      58.395   0.342  30.274  0.00  0.00     0.029 A 
ATOM     11  C   UNL d   1      57.949   0.570  30.934  0.00  0.00     0.028 A 
ENDBRANCH   3   7
BRANCH   4  12
ATOM     12  S   UNL d   1      55.242  -0.107  33.588  0.00  0.00    -0.092 SA
ATOM     13  C   UNL d   1      54.988   0.597  33.935  0.00  0.00     0.076 C 
ENDBRANCH   4  12
TORSDOF 2
ENDMDL
MODEL 4
REMARK VINA RESULT:      -4.2      0.940      1.173
REMARK  2 active torsions:
REMARK  status: ('A' for Active; 'I' for Inactive)
REMARK    1  A    between atoms: C_4  and  C_3 
REMARK    2  A    between atoms: S_11  and  C_6 
ROOT
ATOM      1  N   UNL d   1      56.592  -0.685  31.828  0.00  0.00    -0.146 NA
ATOM      2  N   UNL d   1      57.125  -0.692  31.195  0.00  0.00    -0.142 NA
ATOM      3  C   UNL d   1      56.490   0.002  32.269  0.00  0.00     0.126 A 
ATOM      4  C   UNL d   1      57.552  -0.012  31.008  0.00  0.00     0.128 A 
ATOM      5  C   UNL d   1      56.917   0.682  32.081  0.00  0.00     0.025 A 
ATOM      6  C   UNL d   1      57.447   0.675  31.452  0.00  0.00     0.029 A 
ENDROOT
BRANCH   3   7
ATOM      7  C   UNL d   1      55.964   0.017  32.897  0.00  0.00     0.119 A 
ATOM      8  O   UNL d   1      55.274  -0.429  32.958  0.00  0.00    -0.304 OA
ATOM      9  C   UNL d   1      54.905  -0.250  33.676  0.00  0.00     0.123 A 
ATOM     10  C   UNL d   1      55.373   0.315  34.066  0.00  0.00     0.029 A 
ATOM     11  C   UNL d   1      56.026   0.477  33.583  0.00  0.00     0.028 A 
ENDBRANCH   3   7
BRANCH   4  12
ATOM     12  S   UNL d   1      58.085  -0.019  30.375  0.00  0.00    -0.092 SA
ATOM     13  C   UNL d   1      57.963   0.477  29.727  0.00  0.00     0.076 C 
ENDBRANCH   4  12
TORSDOF 2
ENDMDL
MODEL 5
REMARK VINA RESULT:      -3.5      1.657      2.152
REMARK  2 active torsions:
REMARK  status: ('A' for Active; 'I' for Inactive)
REMARK    1  A    between atoms: C_4  and  C_3 
REMARK    2  A    between atoms: S_11  and  C_6 
ROOT
ATOM      1  N   UNL d   1      56.038  -0.804  32.857  0.00  0.00    -0.146 NA
ATOM      2  N   UNL d   1      56.495  -1.066  32.219  0.00  0.00    -0.142 NA
ATOM      3  C   UNL d   1      56.031  -0.005  33.054  0.00  0.00     0.126 A 
ATOM      4  C   UNL d   1      56.942  -0.528  31.783  0.00  0.00     0.128 A 
ATOM      5  C   UNL d   1      56.478   0.533  32.618  0.00  0.00     0.025 A 
ATOM      6  C   UNL d   1      56.933   0.272  31.983  0.00  0.00     0.029 A 
ENDROOT
BRANCH   3   7
ATOM      7  C   UNL d   1      55.580   0.261  33.684  0.00  0.00     0.119 A 
ATOM      8  O   UNL d   1      55.861   0.427  34.440  0.00  0.00    -0.304 OA
ATOM      9  C   UNL d   1      55.228   0.682  34.909  0.00  0.00     0.123 A 
ATOM     10  C   UNL d   1      54.545   0.673  34.435  0.00  0.00     0.029 A 
ATOM     11  C   UNL d   1      54.766   0.413  33.681  0.00  0.00     0.028 A 
ENDBRANCH   3   7
BRANCH   4  12
ATOM     12  S   UNL d   1      57.399  -0.790  31.146  0.00  0.00    -0.092 SA
ATOM     13  C   UNL d   1      57.762  -0.243  30.646  0.00  0.00     0.076 C 
ENDBRANCH   4  12
TORSDOF 2
ENDMDL
MODEL 6
REMARK VINA RESULT:      -3.4      0.953      1.417
REMARK  2 active torsions:
REMARK  status: ('A' for Active; 'I' for Inactive)
REMARK    1  A    between atoms: C_4  and  C_3 
REMARK    2  A    between atoms: S_11  and  C_6 
ROOT
ATOM      1  N   UNL d   1      57.938  -0.602  29.829  0.00  0.00    -0.146 NA
ATOM      2  N   UNL d   1      58.451  -0.444  29.200  0.00  0.00    -0.142 NA
ATOM      3  C   UNL d   1      57.944  -0.117  30.494  0.00  0.00     0.126 A 
ATOM      4  C   UNL d   1      58.968   0.197  29.240  0.00  0.00     0.128 A 
ATOM      5  C   UNL d   1      58.461   0.524  30.534  0.00  0.00     0.025 A 
ATOM      6  C   UNL d   1      58.972   0.681  29.908  0.00  0.00     0.029 A 
ENDROOT
BRANCH   3   7
ATOM      7  C   UNL d   1      57.439  -0.267  31.121  0.00  0.00     0.119 A 
ATOM      8  O   UNL d   1      57.133  -1.003  31.327  0.00  0.00    -0.304 OA
ATOM      9  C   UNL d   1      56.648  -0.913  31.992  0.00  0.00     0.123 A 
ATOM     10  C   UNL d   1      56.654  -0.108  32.200  0.00  0.00     0.029 A 
ATOM     11  C   UNL d   1      57.143   0.287  31.661  0.00  0.00     0.028 A 
ENDBRANCH   3   7
BRANCH   4  12
ATOM     12  S   UNL d   1      59.481   0.355  28.611  0.00  0.00    -0.092 SA
ATOM     13  C   UNL d   1      60.284   0.178  28.678  0.00  0.00     0.076 C 
ENDBRANCH   4  12
TORSDOF 2
ENDMDL
MODEL 7
REMARK VINA RESULT:      -2.8      2.599      3.773
REMARK  2 active torsions:
REMARK  status: ('A' for Active; 'I' for Inactive)
REMARK    1  A    between atoms: C_4  and  C_3 
REMARK    2  A    between atoms: S_11  and  C_6 
ROOT
ATOM      1  N   UNL d   1      58.130  -1.718  29.802  0.00  0.00    -0.146 NA
ATOM      2  N   UNL d   1      57.945  -0.946  30.035  0.00  0.00    -0.142 NA
ATOM      3  C   UNL d   1      58.708  -1.845  29.231  0.00  0.00     0.126 A 
ATOM      4  C   UNL d   1      58.340  -0.307  29.696  0.00  0.00     0.128 A 
ATOM      5  C   UNL d   1      59.103  -1.206  28.891  0.00  0.00     0.025 A 
ATOM      6  C   UNL d   1      58.919  -0.438  29.123  0.00  0.00     0.029 A 
ENDROOT
BRANCH   3   7
ATOM      7  C   UNL d   1      58.897  -2.607  28.995  0.00  0.00     0.119 A 
ATOM      8  O   UNL d   1      58.361  -3.181  28.749  0.00  0.00    -0.304 OA
ATOM      9  C   UNL d   1      58.777  -3.871  28.560  0.00  0.00     0.123 A 
ATOM     10  C   UNL d   1      59.584  -3.721  28.691  0.00  0.00     0.029 A 
ATOM     11  C   UNL d   1      59.654  -2.940  28.959  0.00  0.00     0.028 A 
ENDBRANCH   3   7
BRANCH   4  12
ATOM     12  S   UNL d   1      58.155   0.465  29.929  0.00  0.00    -0.092 SA
ATOM     13  C   UNL d   1      57.949   0.622  30.711  0.00  0.00     0.076 C 
ENDBRANCH   4  12
TORSDOF 2
ENDMDL
MODEL 8
REMARK VINA RESULT:      -2.8      9.702      9.758
REMARK  2 active torsions:
REMARK  status: ('A' for Active; 'I' for Inactive)
REMARK    1  A    between atoms: C_4  and  C_3 
REMARK    2  A    between atoms: S_11  and  C_6 
ROOT
ATOM      1  N   UNL d   1      59.410  -9.196  33.880  0.00  0.00    -0.146 NA
ATOM      2  N   UNL d   1      59.501  -9.457  33.100  0.00  0.00    -0.142 NA
ATOM      3  C   UNL d   1      60.075  -9.037  34.337  0.00  0.00     0.126 A 
ATOM      4  C   UNL d   1      60.256  -9.557  32.783  0.00  0.00     0.128 A 
ATOM      5  C   UNL d   1      60.830  -9.137  34.020  0.00  0.00     0.025 A 
ATOM      6  C   UNL d   1      60.920  -9.396  33.244  0.00  0.00     0.029 A 
ENDROOT
BRANCH   3   7
ATOM      7  C   UNL d   1      59.994  -8.778  35.110  0.00  0.00     0.119 A 
ATOM      8  O   UNL d   1      60.575  -8.402  35.556  0.00  0.00    -0.304 OA
ATOM      9  C   UNL d   1      60.268  -8.234  36.306  0.00  0.00     0.123 A 
ATOM     10  C   UNL d   1      59.484  -8.509  36.324  0.00  0.00     0.029 A 
ATOM     11  C   UNL d   1      59.319  -8.844  35.585  0.00  0.00     0.028 A 
ENDBRANCH   3   7
BRANCH   4  12
ATOM     12  S   UNL d   1      60.346  -9.818  32.003  0.00  0.00    -0.092 SA
ATOM     13  C   UNL d   1      61.072  -9.733  31.621  0.00  0.00     0.076 C 
ENDBRANCH   4  12
TORSDOF 2
ENDMDL
MODEL 9
REMARK VINA RESULT:      -2.6      8.452      9.290
REMARK  2 active torsions:
REMARK  status: ('A' for Active; 'I' for Inactive)
REMARK    1  A    between atoms: C_4  and  C_3 
REMARK    2  A    between atoms: S_11  and  C_6 
ROOT
ATOM      1  N   UNL d   1      59.361  -7.715  34.786  0.00  0.00    -0.146 NA
ATOM      2  N   UNL d   1      59.050  -8.393  34.429  0.00  0.00    -0.142 NA
ATOM      3  C   UNL d   1      59.925  -7.787  35.381  0.00  0.00     0.126 A 
ATOM      4  C   UNL d   1      59.305  -9.140  34.670  0.00  0.00     0.128 A 
ATOM      5  C   UNL d   1      60.179  -8.534  35.621  0.00  0.00     0.025 A 
ATOM      6  C   UNL d   1      59.870  -9.209  35.266  0.00  0.00     0.029 A 
ENDROOT
BRANCH   3   7
ATOM      7  C   UNL d   1      60.237  -7.120  35.739  0.00  0.00     0.119 A 
ATOM      8  O   UNL d   1      59.829  -6.423  35.897  0.00  0.00    -0.304 OA
ATOM      9  C   UNL d   1      60.346  -5.889  36.262  0.00  0.00     0.123 A 
ATOM     10  C   UNL d   1      61.085  -6.262  36.330  0.00  0.00     0.029 A 
ATOM     11  C   UNL d   1      61.014  -7.021  36.006  0.00  0.00     0.028 A 
ENDBRANCH   3   7
BRANCH   4  12
ATOM     12  S   UNL d   1      58.994  -9.818  34.313  0.00  0.00    -0.092 SA
ATOM     13  C   UNL d   1      58.799  -9.811  33.511  0.00  0.00     0.076 C 
ENDBRANCH   4  12
TORSDOF 2
ENDMDL
