MODEL 1
REMARK VINA RESULT:      58.3      0.000      0.000
REMARK  3 active torsions:
REMARK  status: ('A' for Active; 'I' for Inactive)
REMARK    1  A    between atoms: S_12  and  C_6 
REMARK    2  A    between atoms: C_10  and  C_14 
REMARK       I    between atoms: N_11  and  C_10 
REMARK    3  A    between atoms: C_14  and  S_12 
ROOT
ATOM      1  C   UNL d   1      57.868  49.698  51.383  0.00  0.00     0.155 A 
ATOM      2  C   UNL d   1      58.165  49.700  50.609  0.00  0.00     0.107 A 
ATOM      3  N   UNL d   1      59.204  49.702  51.892  0.00  0.00    -0.250 N 
ATOM      4  C   UNL d   1      58.383  49.699  52.020  0.00  0.00     0.285 A 
ATOM      5  N   UNL d   1      58.984  49.703  50.480  0.00  0.00    -0.220 NA
ATOM      6  C   UNL d   1      59.494  49.704  51.126  0.00  0.00     0.182 A 
ATOM      7  N   UNL d   1      57.045  49.695  51.342  0.00  0.00    -0.239 NA
ATOM      8  C   UNL d   1      57.530  49.699  50.087  0.00  0.00     0.037 A 
ATOM      9  C   UNL d   1      56.829  49.695  50.541  0.00  0.00     0.083 A 
ATOM     10  O   UNL d   1      58.094  49.697  52.799  0.00  0.00    -0.265 OA
ATOM     11  C   UNL d   1      59.726  49.703  52.535  0.00  0.00     0.104 C 
ATOM     12  C   UNL d   1      57.485  49.700  49.266  0.00  0.00     0.003 A 
ATOM     13  C   UNL d   1      56.091  49.693  50.166  0.00  0.00     0.019 A 
ATOM     14  C   UNL d   1      56.747  49.697  48.891  0.00  0.00     0.000 A 
ATOM     15  C   UNL d   1      56.056  49.694  49.341  0.00  0.00     0.002 A 
ENDROOT
BRANCH   6  16
ATOM     16  S   UNL d   1      60.311  49.708  51.000  0.00  0.00    -0.044 SA
BRANCH  16  17
ATOM     17  C   UNL d   1      60.735  49.000  51.001  0.00  0.00     0.099 C 
BRANCH  17  18
ATOM     18  C   UNL d   1      61.065  48.716  50.303  0.00  0.00     0.271 C 
ATOM     19  N   UNL d   1      61.207  47.913  50.225  0.00  0.00    -0.272 N 
ATOM     20  C   UNL d   1      61.537  47.617  49.531  0.00  0.00     0.083 A 
ATOM     21  C   UNL d   1      61.020  47.397  50.841  0.00  0.00     0.083 A 
ATOM     22  C   UNL d   1      61.678  46.817  49.454  0.00  0.00     0.019 A 
ATOM     23  C   UNL d   1      61.496  46.298  50.059  0.00  0.00     0.003 A 
ATOM     24  C   UNL d   1      61.165  46.586  50.758  0.00  0.00     0.019 A 
ATOM     25  O   UNL d   1      61.253  49.222  49.688  0.00  0.00    -0.266 OA
ENDBRANCH  17  18
ENDBRANCH  16  17
ENDBRANCH   6  16
TORSDOF 3
ENDMDL
