MODEL 1
REMARK VINA RESULT:      59.0      0.000      0.000
REMARK  7 active torsions:
REMARK  status: ('A' for Active; 'I' for Inactive)
REMARK    1  A    between atoms: C_11  and  C_3 
REMARK    2  A    between atoms: C_10  and  C_4 
REMARK    3  A    between atoms: O_15  and  C_10 
REMARK    4  A    between atoms: N_14  and  C_11 
REMARK    5  A    between atoms: C_20  and  N_14 
REMARK    6  A    between atoms: C_22  and  O_15 
REMARK    7  A    between atoms: C_21  and  C_20 
ROOT
ATOM      1  C   UNL d   1     -57.494 -98.767 -43.946  0.00  0.00     0.035 A 
ATOM      2  C   UNL d   1     -58.319 -98.767 -43.950  0.00  0.00     0.100 A 
ATOM      3  C   UNL d   1     -57.082 -98.766 -44.659  0.00  0.00     0.060 A 
ATOM      4  C   UNL d   1     -57.219 -98.768 -43.161  0.00  0.00     0.088 A 
ATOM      5  O   UNL d   1     -58.558 -98.768 -43.142  0.00  0.00    -0.307 OA
ATOM      6  C   UNL d   1     -57.879 -98.768 -42.670  0.00  0.00     0.105 A 
ATOM      7  C   UNL d   1     -57.494 -98.766 -45.376  0.00  0.00     0.197 A 
ATOM      8  C   UNL d   1     -58.726 -98.767 -44.659  0.00  0.00     0.026 A 
ATOM      9  C   UNL d   1     -58.313 -98.766 -45.372  0.00  0.00     0.041 A 
ATOM     10  O   UNL d   1     -57.074 -98.765 -46.101  0.00  0.00    -0.286 OA
ATOM     11  C   UNL d   1     -57.857 -98.769 -41.809  0.00  0.00     0.027 C 
ATOM     12  C   UNL d   1     -59.559 -98.767 -44.667  0.00  0.00     0.002 A 
ATOM     13  C   UNL d   1     -58.733 -98.765 -46.093  0.00  0.00     0.003 A 
ATOM     14  C   UNL d   1     -59.548 -98.765 -46.087  0.00  0.00     0.000 A 
ATOM     15  C   UNL d   1     -59.961 -98.766 -45.374  0.00  0.00     0.000 A 
ENDROOT
BRANCH   3  16
ATOM     16  C   UNL d   1     -56.248 -98.767 -44.623  0.00  0.00     0.102 C 
BRANCH  16  17
ATOM     17  N   UNL d   1     -55.817 -99.212 -45.194  0.00  0.00    -0.239 NA
BRANCH  17  18
ATOM     18  C   UNL d   1     -55.075 -99.534 -44.983  0.00  0.00     0.144 C 
BRANCH  18  19
ATOM     19  C   UNL d   1     -55.041-100.289 -44.666  0.00  0.00     0.255 C 
ATOM     20  O   UNL d   1     -54.811-100.934 -45.126  0.00  0.00    -0.281 OA
ENDBRANCH  18  19
ENDBRANCH  17  18
ENDBRANCH  16  17
ENDBRANCH   3  16
BRANCH   4  21
ATOM     21  C   UNL d   1     -56.412 -98.768 -42.876  0.00  0.00     0.302 C 
ATOM     22  O   UNL d   1     -55.782 -98.758 -43.407  0.00  0.00    -0.259 OA
BRANCH  21  23
ATOM     23  O   UNL d   1     -56.283 -98.779 -42.074  0.00  0.00    -0.271 OA
BRANCH  23  24
ATOM     24  C   UNL d   1     -55.532 -98.896 -41.762  0.00  0.00     0.126 C 
ATOM     25  C   UNL d   1     -54.868 -98.859 -42.258  0.00  0.00     0.029 C 
ENDBRANCH  23  24
ENDBRANCH  21  23
ENDBRANCH   4  21
TORSDOF 7
ENDMDL
