MODEL 1
REMARK VINA RESULT:      -5.3      0.000      0.000
REMARK  2 active torsions:
REMARK  status: ('A' for Active; 'I' for Inactive)
REMARK    1  A    between atoms: C_6  and  C_1 
REMARK    2  A    between atoms: C_7  and  C_5 
ROOT
ATOM      1  C   UNL d   1     -41.668-122.533 -54.376  0.00  0.00     0.085 A 
ATOM      2  C   UNL d   1     -41.301-123.272 -54.413  0.00  0.00     0.137 A 
ATOM      3  C   UNL d   1     -41.754-122.312 -53.599  0.00  0.00     0.013 A 
ATOM      4  S   UNL d   1     -41.159-123.505 -53.637  0.00  0.00    -0.066 SA
ATOM      5  C   UNL d   1     -41.432-122.927 -53.142  0.00  0.00     0.031 A 
ATOM      6  N   UNL d   1     -41.124-123.671 -55.115  0.00  0.00    -0.141 N 
ENDROOT
BRANCH   5   7
ATOM      7  C   UNL d   1     -41.419-122.901 -52.326  0.00  0.00     0.006 A 
ATOM      8  C   UNL d   1     -41.326-122.189 -51.948  0.00  0.00     0.001 A 
ATOM      9  C   UNL d   1     -41.312-122.156 -51.121  0.00  0.00     0.000 A 
ATOM     10  C   UNL d   1     -41.391-122.841 -50.683  0.00  0.00     0.000 A 
ATOM     11  C   UNL d   1     -41.485-123.565 -51.066  0.00  0.00     0.000 A 
ATOM     12  C   UNL d   1     -41.498-123.592 -51.882  0.00  0.00     0.001 A 
ENDBRANCH   5   7
BRANCH   1  13
ATOM     13  C   UNL d   1     -41.921-122.069 -55.031  0.00  0.00     0.299 C 
ATOM     14  O   UNL d   1     -41.402-121.555 -55.389  0.00  0.00    -0.264 OA
ATOM     15  N   UNL d   1     -42.693-122.145 -55.298  0.00  0.00    -0.102 N 
ENDBRANCH   1  13
TORSDOF 2
ENDMDL
MODEL 2
REMARK VINA RESULT:      -5.2      1.995      3.322
REMARK  2 active torsions:
REMARK  status: ('A' for Active; 'I' for Inactive)
REMARK    1  A    between atoms: C_6  and  C_1 
REMARK    2  A    between atoms: C_7  and  C_5 
ROOT
ATOM      1  C   UNL d   1     -41.567-122.470 -52.061  0.00  0.00     0.085 A 
ATOM      2  C   UNL d   1     -41.342-123.242 -52.253  0.00  0.00     0.137 A 
ATOM      3  C   UNL d   1     -41.745-122.063 -52.740  0.00  0.00     0.013 A 
ATOM      4  S   UNL d   1     -41.386-123.304 -53.072  0.00  0.00    -0.066 SA
ATOM      5  C   UNL d   1     -41.629-122.593 -53.370  0.00  0.00     0.031 A 
ATOM      6  N   UNL d   1     -41.123-123.815 -51.699  0.00  0.00    -0.141 N 
ENDROOT
BRANCH   5   7
ATOM      7  C   UNL d   1     -41.755-122.378 -54.148  0.00  0.00     0.006 A 
ATOM      8  C   UNL d   1     -42.348-121.856 -54.329  0.00  0.00     0.001 A 
ATOM      9  C   UNL d   1     -42.481-121.634 -55.116  0.00  0.00     0.000 A 
ATOM     10  C   UNL d   1     -42.014-121.941 -55.712  0.00  0.00     0.000 A 
ATOM     11  C   UNL d   1     -41.411-122.473 -55.529  0.00  0.00     0.000 A 
ATOM     12  C   UNL d   1     -41.284-122.688 -54.750  0.00  0.00     0.001 A 
ENDBRANCH   5   7
BRANCH   1  13
ATOM     13  C   UNL d   1     -41.609-122.142 -51.287  0.00  0.00     0.299 C 
ATOM     14  O   UNL d   1     -42.117-122.461 -50.737  0.00  0.00    -0.264 OA
ATOM     15  N   UNL d   1     -41.133-121.500 -51.100  0.00  0.00    -0.102 N 
ENDBRANCH   1  13
TORSDOF 2
ENDMDL
MODEL 3
REMARK VINA RESULT:      -4.5      3.430      4.392
REMARK  2 active torsions:
REMARK  status: ('A' for Active; 'I' for Inactive)
REMARK    1  A    between atoms: C_6  and  C_1 
REMARK    2  A    between atoms: C_7  and  C_5 
ROOT
ATOM      1  C   UNL d   1     -42.270-123.158 -49.257  0.00  0.00     0.085 A 
ATOM      2  C   UNL d   1     -41.525-123.494 -49.135  0.00  0.00     0.137 A 
ATOM      3  C   UNL d   1     -42.330-122.905 -50.026  0.00  0.00     0.013 A 
ATOM      4  S   UNL d   1     -41.123-123.444 -49.850  0.00  0.00    -0.066 SA
ATOM      5  C   UNL d   1     -41.607-123.088 -50.392  0.00  0.00     0.031 A 
ATOM      6  N   UNL d   1     -41.268-123.811 -48.416  0.00  0.00    -0.141 N 
ENDROOT
BRANCH   5   7
ATOM      7  C   UNL d   1     -41.459-122.914 -51.176  0.00  0.00     0.006 A 
ATOM      8  C   UNL d   1     -41.500-122.146 -51.431  0.00  0.00     0.001 A 
ATOM      9  C   UNL d   1     -41.352-121.963 -52.225  0.00  0.00     0.000 A 
ATOM     10  C   UNL d   1     -41.164-122.557 -52.754  0.00  0.00     0.000 A 
ATOM     11  C   UNL d   1     -41.123-123.339 -52.495  0.00  0.00     0.000 A 
ATOM     12  C   UNL d   1     -41.270-123.513 -51.710  0.00  0.00     0.001 A 
ENDBRANCH   5   7
BRANCH   1  13
ATOM     13  C   UNL d   1     -42.882-123.082 -48.684  0.00  0.00     0.299 C 
ATOM     14  O   UNL d   1     -42.972-122.383 -48.276  0.00  0.00    -0.264 OA
ATOM     15  N   UNL d   1     -43.379-123.720 -48.546  0.00  0.00    -0.102 N 
ENDBRANCH   1  13
TORSDOF 2
ENDMDL
MODEL 4
REMARK VINA RESULT:      -4.4      2.426      3.320
REMARK  2 active torsions:
REMARK  status: ('A' for Active; 'I' for Inactive)
REMARK    1  A    between atoms: C_6  and  C_1 
REMARK    2  A    between atoms: C_7  and  C_5 
ROOT
ATOM      1  C   UNL d   1     -41.593-122.499 -51.125  0.00  0.00     0.085 A 
ATOM      2  C   UNL d   1     -41.382-123.288 -51.247  0.00  0.00     0.137 A 
ATOM      3  C   UNL d   1     -41.819-122.395 -50.351  0.00  0.00     0.013 A 
ATOM      4  S   UNL d   1     -41.482-123.674 -50.528  0.00  0.00    -0.066 SA
ATOM      5  C   UNL d   1     -41.747-123.137 -49.984  0.00  0.00     0.031 A 
ATOM      6  N   UNL d   1     -41.123-123.596 -51.969  0.00  0.00    -0.141 N 
ENDROOT
BRANCH   5   7
ATOM      7  C   UNL d   1     -41.927-123.251 -49.195  0.00  0.00     0.006 A 
ATOM      8  C   UNL d   1     -42.699-123.213 -48.950  0.00  0.00     0.001 A 
ATOM      9  C   UNL d   1     -42.889-123.327 -48.153  0.00  0.00     0.000 A 
ATOM     10  C   UNL d   1     -42.298-123.479 -47.610  0.00  0.00     0.000 A 
ATOM     11  C   UNL d   1     -41.512-123.518 -47.857  0.00  0.00     0.000 A 
ATOM     12  C   UNL d   1     -41.331-123.404 -48.646  0.00  0.00     0.001 A 
ENDBRANCH   5   7
BRANCH   1  13
ATOM     13  C   UNL d   1     -41.582-121.885 -51.701  0.00  0.00     0.299 C 
ATOM     14  O   UNL d   1     -42.021-121.959 -52.382  0.00  0.00    -0.264 OA
ATOM     15  N   UNL d   1     -41.124-121.219 -51.563  0.00  0.00    -0.102 N 
ENDBRANCH   1  13
TORSDOF 2
ENDMDL
MODEL 5
REMARK VINA RESULT:      -3.8      1.763      2.551
REMARK  2 active torsions:
REMARK  status: ('A' for Active; 'I' for Inactive)
REMARK    1  A    between atoms: C_6  and  C_1 
REMARK    2  A    between atoms: C_7  and  C_5 
ROOT
ATOM      1  C   UNL d   1     -41.453-122.600 -52.177  0.00  0.00     0.085 A 
ATOM      2  C   UNL d   1     -41.316-121.838 -51.891  0.00  0.00     0.137 A 
ATOM      3  C   UNL d   1     -41.628-123.095 -51.557  0.00  0.00     0.013 A 
ATOM      4  S   UNL d   1     -41.410-121.871 -51.075  0.00  0.00    -0.066 SA
ATOM      5  C   UNL d   1     -41.599-122.630 -50.870  0.00  0.00     0.031 A 
ATOM      6  N   UNL d   1     -41.123-121.189 -52.366  0.00  0.00    -0.141 N 
ENDROOT
BRANCH   5   7
ATOM      7  C   UNL d   1     -41.746-122.940 -50.128  0.00  0.00     0.006 A 
ATOM      8  C   UNL d   1     -42.491-122.887 -49.812  0.00  0.00     0.001 A 
ATOM      9  C   UNL d   1     -42.647-123.199 -49.061  0.00  0.00     0.000 A 
ATOM     10  C   UNL d   1     -42.051-123.561 -48.637  0.00  0.00     0.000 A 
ATOM     11  C   UNL d   1     -41.293-123.616 -48.958  0.00  0.00     0.000 A 
ATOM     12  C   UNL d   1     -41.145-123.306 -49.699  0.00  0.00     0.001 A 
ENDBRANCH   5   7
BRANCH   1  13
ATOM     13  C   UNL d   1     -41.420-122.843 -52.983  0.00  0.00     0.299 C 
ATOM     14  O   UNL d   1     -41.682-122.344 -53.569  0.00  0.00    -0.264 OA
ATOM     15  N   UNL d   1     -41.123-123.587 -53.162  0.00  0.00    -0.102 N 
ENDBRANCH   1  13
TORSDOF 2
ENDMDL
