MODEL 1
REMARK VINA RESULT:      -3.1      0.000      0.000
REMARK  4 active torsions:
REMARK  status: ('A' for Active; 'I' for Inactive)
REMARK       I    between atoms: C_3  and  N_1 
REMARK    1  A    between atoms: C_5  and  N_2 
REMARK    2  A    between atoms: C_4  and  C_3 
REMARK    3  A    between atoms: C_7  and  C_4 
REMARK    4  A    between atoms: C_13  and  C_7 
ROOT
ATOM      1  N   UNL d   1      33.022  20.426 -22.819  0.00  0.00    -0.269 N 
ATOM      2  N   UNL d   1      33.020  21.588 -21.640  0.00  0.00    -0.301 N 
ATOM      3  C   UNL d   1      33.026  19.858 -23.409  0.00  0.00     0.265 C 
ATOM      4  C   UNL d   1      33.233  21.215 -23.002  0.00  0.00     0.102 A 
ATOM      5  C   UNL d   1      32.814  20.233 -22.046  0.00  0.00     0.102 A 
ATOM      6  C   UNL d   1      33.232  21.795 -22.412  0.00  0.00     0.100 A 
ATOM      7  C   UNL d   1      32.811  20.808 -21.454  0.00  0.00     0.100 A 
ATOM      8  O   UNL d   1      33.234  20.050 -24.178  0.00  0.00    -0.267 OA
ENDROOT
BRANCH   3   9
ATOM      9  C   UNL d   1      32.818  19.076 -23.229  0.00  0.00     0.061 C 
BRANCH   9  10
ATOM     10  C   UNL d   1      32.825  18.496 -23.819  0.00  0.00     0.005 C 
BRANCH  10  11
ATOM     11  C   UNL d   1      32.549  17.741 -23.653  0.00  0.00     0.000 A 
ATOM     12  C   UNL d   1      33.062  17.187 -23.330  0.00  0.00     0.002 A 
ATOM     13  C   UNL d   1      32.791  16.427 -23.162  0.00  0.00     0.030 A 
ATOM     14  C   UNL d   1      32.001  16.228 -23.321  0.00  0.00     0.140 A 
ATOM     15  C   UNL d   1      31.498  16.790 -23.644  0.00  0.00     0.030 A 
ATOM     16  F   UNL d   1      31.730  15.468 -23.153  0.00  0.00    -0.204 F 
ATOM     17  C   UNL d   1      31.774  17.544 -23.809  0.00  0.00     0.002 A 
ENDBRANCH  10  11
ENDBRANCH   9  10
ENDBRANCH   3   9
BRANCH   2  18
ATOM     18  C   UNL d   1      33.018  22.165 -21.047  0.00  0.00     0.065 A 
ATOM     19  C   UNL d   1      33.124  21.943 -20.258  0.00  0.00     0.029 A 
ATOM     20  C   UNL d   1      33.122  22.514 -19.664  0.00  0.00     0.059 A 
ATOM     21 CL   UNL d   1      33.228  22.291 -18.875  0.00  0.00    -0.082 Cl
ATOM     22  C   UNL d   1      33.013  23.311 -19.856  0.00  0.00     0.011 A 
ATOM     23  C   UNL d   1      32.907  23.528 -20.650  0.00  0.00     0.002 A 
ATOM     24  C   UNL d   1      32.909  22.954 -21.246  0.00  0.00     0.018 A 
ENDBRANCH   2  18
TORSDOF 4
ENDMDL
MODEL 2
REMARK VINA RESULT:      -2.6      2.871      5.836
REMARK  4 active torsions:
REMARK  status: ('A' for Active; 'I' for Inactive)
REMARK       I    between atoms: C_3  and  N_1 
REMARK    1  A    between atoms: C_5  and  N_2 
REMARK    2  A    between atoms: C_4  and  C_3 
REMARK    3  A    between atoms: C_7  and  C_4 
REMARK    4  A    between atoms: C_13  and  C_7 
ROOT
ATOM      1  N   UNL d   1      33.034  22.090 -21.559  0.00  0.00    -0.269 N 
ATOM      2  N   UNL d   1      33.064  20.628 -22.334  0.00  0.00    -0.301 N 
ATOM      3  C   UNL d   1      33.020  22.819 -21.184  0.00  0.00     0.265 C 
ATOM      4  C   UNL d   1      33.131  22.054 -22.389  0.00  0.00     0.102 A 
ATOM      5  C   UNL d   1      32.953  21.391 -21.131  0.00  0.00     0.102 A 
ATOM      6  C   UNL d   1      33.146  21.322 -22.775  0.00  0.00     0.100 A 
ATOM      7  C   UNL d   1      32.968  20.659 -21.511  0.00  0.00     0.100 A 
ATOM      8  O   UNL d   1      33.100  23.513 -21.610  0.00  0.00    -0.267 OA
ENDROOT
BRANCH   3   9
ATOM      9  C   UNL d   1      32.924  22.856 -20.361  0.00  0.00     0.061 C 
BRANCH   9  10
ATOM     10  C   UNL d   1      32.656  23.553 -20.004  0.00  0.00     0.005 C 
BRANCH  10  11
ATOM     11  C   UNL d   1      32.568  23.587 -19.189  0.00  0.00     0.000 A 
ATOM     12  C   UNL d   1      33.235  23.647 -18.714  0.00  0.00     0.002 A 
ATOM     13  C   UNL d   1      33.154  23.682 -17.895  0.00  0.00     0.030 A 
ATOM     14  C   UNL d   1      32.396  23.656 -17.557  0.00  0.00     0.140 A 
ATOM     15  C   UNL d   1      31.737  23.597 -18.041  0.00  0.00     0.030 A 
ATOM     16  F   UNL d   1      32.314  23.691 -16.737  0.00  0.00    -0.204 F 
ATOM     17  C   UNL d   1      31.825  23.562 -18.856  0.00  0.00     0.002 A 
ENDBRANCH  10  11
ENDBRANCH   9  10
ENDBRANCH   3   9
BRANCH   2  18
ATOM     18  C   UNL d   1      33.079  19.894 -22.716  0.00  0.00     0.065 A 
ATOM     19  C   UNL d   1      33.112  19.861 -23.541  0.00  0.00     0.029 A 
ATOM     20  C   UNL d   1      33.126  19.132 -23.926  0.00  0.00     0.059 A 
ATOM     21 CL   UNL d   1      33.159  19.100 -24.751  0.00  0.00    -0.082 Cl
ATOM     22  C   UNL d   1      33.108  18.432 -23.486  0.00  0.00     0.011 A 
ATOM     23  C   UNL d   1      33.075  18.471 -22.658  0.00  0.00     0.002 A 
ATOM     24  C   UNL d   1      33.060  19.204 -22.272  0.00  0.00     0.018 A 
ENDBRANCH   2  18
TORSDOF 4
ENDMDL
MODEL 3
REMARK VINA RESULT:      -1.4      1.474      2.054
REMARK  4 active torsions:
REMARK  status: ('A' for Active; 'I' for Inactive)
REMARK       I    between atoms: C_3  and  N_1 
REMARK    1  A    between atoms: C_5  and  N_2 
REMARK    2  A    between atoms: C_4  and  C_3 
REMARK    3  A    between atoms: C_7  and  C_4 
REMARK    4  A    between atoms: C_13  and  C_7 
ROOT
ATOM      1  N   UNL d   1      32.734  18.836 -22.528  0.00  0.00    -0.269 N 
ATOM      2  N   UNL d   1      32.737  20.338 -21.833  0.00  0.00    -0.301 N 
ATOM      3  C   UNL d   1      32.740  18.089 -22.865  0.00  0.00     0.265 C 
ATOM      4  C   UNL d   1      33.240  19.003 -21.883  0.00  0.00     0.102 A 
ATOM      5  C   UNL d   1      32.236  19.427 -22.814  0.00  0.00     0.102 A 
ATOM      6  C   UNL d   1      33.241  19.755 -21.537  0.00  0.00     0.100 A 
ATOM      7  C   UNL d   1      32.233  20.178 -22.472  0.00  0.00     0.100 A 
ATOM      8  O   UNL d   1      33.235  17.502 -22.580  0.00  0.00    -0.267 OA
ENDROOT
BRANCH   3   9
ATOM      9  C   UNL d   1      32.238  17.922 -23.504  0.00  0.00     0.061 C 
BRANCH   9  10
ATOM     10  C   UNL d   1      32.182  17.152 -23.800  0.00  0.00     0.005 C 
BRANCH  10  11
ATOM     11  C   UNL d   1      31.472  16.885 -24.113  0.00  0.00     0.000 A 
ATOM     12  C   UNL d   1      30.964  17.420 -24.473  0.00  0.00     0.002 A 
ATOM     13  C   UNL d   1      30.249  17.158 -24.789  0.00  0.00     0.030 A 
ATOM     14  C   UNL d   1      30.050  16.353 -24.741  0.00  0.00     0.140 A 
ATOM     15  C   UNL d   1      30.565  15.829 -24.379  0.00  0.00     0.030 A 
ATOM     16  F   UNL d   1      29.335  16.091 -25.057  0.00  0.00    -0.204 F 
ATOM     17  C   UNL d   1      31.275  16.096 -24.066  0.00  0.00     0.002 A 
ENDBRANCH  10  11
ENDBRANCH   9  10
ENDBRANCH   3   9
BRANCH   2  18
ATOM     18  C   UNL d   1      32.734  21.091 -21.490  0.00  0.00     0.065 A 
ATOM     19  C   UNL d   1      32.636  21.760 -21.967  0.00  0.00     0.029 A 
ATOM     20  C   UNL d   1      32.633  22.511 -21.629  0.00  0.00     0.059 A 
ATOM     21 CL   UNL d   1      32.536  23.179 -22.106  0.00  0.00    -0.082 Cl
ATOM     22  C   UNL d   1      32.727  22.599 -20.812  0.00  0.00     0.011 A 
ATOM     23  C   UNL d   1      32.824  21.924 -20.339  0.00  0.00     0.002 A 
ATOM     24  C   UNL d   1      32.827  21.169 -20.678  0.00  0.00     0.018 A 
ENDBRANCH   2  18
TORSDOF 4
ENDMDL
