MODEL 1
REMARK VINA RESULT:      72.0      0.000      0.000
REMARK  3 active torsions:
REMARK  status: ('A' for Active; 'I' for Inactive)
REMARK    1  A    between atoms: C_4  and  C_1 
REMARK    2  A    between atoms: C_11  and  C_10 
REMARK    3  A    between atoms: O_20  and  C_11 
ROOT
ATOM      1  C   UNL d   1      14.118  13.291  -2.921  0.00  0.00     0.004 A 
ATOM      2  C   UNL d   1      14.518  14.596  -2.500  0.00  0.00     0.102 A 
ATOM      3  C   UNL d   1      14.134  14.106  -3.042  0.00  0.00     0.023 A 
ATOM      4  O   UNL d   1      14.885  14.272  -1.838  0.00  0.00    -0.307 OA
ATOM      5  C   UNL d   1      14.868  13.457  -1.718  0.00  0.00     0.102 A 
ATOM      6  C   UNL d   1      14.485  12.967  -2.260  0.00  0.00     0.023 A 
ATOM      7  C   UNL d   1      14.534  15.410  -2.619  0.00  0.00     0.046 A 
ATOM      8  C   UNL d   1      13.767  14.430  -3.703  0.00  0.00     0.004 A 
ATOM      9  C   UNL d   1      15.236  13.133  -1.056  0.00  0.00     0.046 A 
ATOM     10  C   UNL d   1      14.166  15.738  -3.284  0.00  0.00     0.105 A 
ATOM     11  C   UNL d   1      13.782  15.248  -3.826  0.00  0.00     0.021 A 
ATOM     12  C   UNL d   1      14.469  12.153  -2.139  0.00  0.00     0.004 A 
ATOM     13  N   UNL d   1      14.180  16.559  -3.408  0.00  0.00    -0.148 N 
ATOM     14  C   UNL d   1      15.221  12.313  -0.932  0.00  0.00     0.105 A 
ATOM     15  C   UNL d   1      14.838  11.822  -1.474  0.00  0.00     0.021 A 
ATOM     16  N   UNL d   1      15.590  11.985  -0.268  0.00  0.00    -0.148 N 
ENDROOT
BRANCH   1  17
ATOM     17  C   UNL d   1      13.735  12.801  -3.463  0.00  0.00     0.005 A 
ATOM     18  C   UNL d   1      13.928  12.838  -4.262  0.00  0.00     0.063 A 
ATOM     19  C   UNL d   1      13.542  12.346  -4.806  0.00  0.00     0.005 A 
ATOM     20  C   UNL d   1      12.965  11.818  -4.549  0.00  0.00     0.000 A 
ATOM     21  C   UNL d   1      12.770  11.779  -3.746  0.00  0.00     0.000 A 
ATOM     22  C   UNL d   1      13.155  12.272  -3.202  0.00  0.00     0.000 A 
BRANCH  18  23
ATOM     23  C   UNL d   1      14.405  13.198  -4.867  0.00  0.00     0.296 C 
ATOM     24  O   UNL d   1      14.419  12.687  -5.634  0.00  0.00    -0.259 OA
BRANCH  23  25
ATOM     25  O   UNL d   1      14.909  13.746  -5.265  0.00  0.00    -0.296 OA
ATOM     26  C   UNL d   1      15.116  13.814  -6.201  0.00  0.00     0.185 C 
ENDBRANCH  23  25
ENDBRANCH  18  23
ENDBRANCH   1  17
TORSDOF 3
ENDMDL
MODEL 2
REMARK VINA RESULT:      72.4      0.396      2.659
REMARK  3 active torsions:
REMARK  status: ('A' for Active; 'I' for Inactive)
REMARK    1  A    between atoms: C_4  and  C_1 
REMARK    2  A    between atoms: C_11  and  C_10 
REMARK    3  A    between atoms: O_20  and  C_11 
ROOT
ATOM      1  C   UNL d   1      14.017  13.270  -3.288  0.00  0.00     0.004 A 
ATOM      2  C   UNL d   1      14.637  13.420  -2.010  0.00  0.00     0.102 A 
ATOM      3  C   UNL d   1      14.326  12.936  -2.601  0.00  0.00     0.023 A 
ATOM      4  O   UNL d   1      14.640  14.239  -2.106  0.00  0.00    -0.307 OA
ATOM      5  C   UNL d   1      14.331  14.571  -2.793  0.00  0.00     0.102 A 
ATOM      6  C   UNL d   1      14.020  14.087  -3.384  0.00  0.00     0.023 A 
ATOM      7  C   UNL d   1      14.945  13.088  -1.323  0.00  0.00     0.046 A 
ATOM      8  C   UNL d   1      14.323  12.119  -2.505  0.00  0.00     0.004 A 
ATOM      9  C   UNL d   1      14.335  15.390  -2.889  0.00  0.00     0.046 A 
ATOM     10  C   UNL d   1      14.943  12.266  -1.225  0.00  0.00     0.105 A 
ATOM     11  C   UNL d   1      14.632  11.782  -1.816  0.00  0.00     0.021 A 
ATOM     12  C   UNL d   1      13.712  14.421  -4.071  0.00  0.00     0.004 A 
ATOM     13  N   UNL d   1      15.253  11.927  -0.533  0.00  0.00    -0.148 N 
ATOM     14  C   UNL d   1      14.025  15.729  -3.581  0.00  0.00     0.105 A 
ATOM     15  C   UNL d   1      13.713  15.244  -4.172  0.00  0.00     0.021 A 
ATOM     16  N   UNL d   1      14.027  16.550  -3.679  0.00  0.00    -0.148 N 
ENDROOT
BRANCH   1  17
ATOM     17  C   UNL d   1      13.706  12.785  -3.879  0.00  0.00     0.005 A 
ATOM     18  C   UNL d   1      14.012  12.817  -4.642  0.00  0.00     0.063 A 
ATOM     19  C   UNL d   1      13.699  12.330  -5.236  0.00  0.00     0.005 A 
ATOM     20  C   UNL d   1      13.082  11.813  -5.064  0.00  0.00     0.000 A 
ATOM     21  C   UNL d   1      12.774  11.779  -4.297  0.00  0.00     0.000 A 
ATOM     22  C   UNL d   1      13.086  12.266  -3.703  0.00  0.00     0.000 A 
BRANCH  18  23
ATOM     23  C   UNL d   1      14.576  13.168  -5.174  0.00  0.00     0.296 C 
ATOM     24  O   UNL d   1      14.446  12.881  -6.040  0.00  0.00    -0.259 OA
BRANCH  23  25
ATOM     25  O   UNL d   1      15.219  13.633  -5.460  0.00  0.00    -0.296 OA
ATOM     26  C   UNL d   1      15.517  13.769  -6.364  0.00  0.00     0.185 C 
ENDBRANCH  23  25
ENDBRANCH  18  23
ENDBRANCH   1  17
TORSDOF 3
ENDMDL
