MODEL 1
REMARK VINA RESULT:      -3.6      0.000      0.000
REMARK  8 active torsions:
REMARK  status: ('A' for Active; 'I' for Inactive)
REMARK    1  A    between atoms: C_14  and  N_1 
REMARK    2  A    between atoms: S_10  and  C_2 
REMARK    3  A    between atoms: C_7  and  C_9 
REMARK       I    between atoms: N_8  and  C_7 
REMARK    4  A    between atoms: C_26  and  S_10 
REMARK    5  A    between atoms: C_13  and  C_18 
REMARK    6  A    between atoms: C_16  and  C_26 
REMARK    7  A    between atoms: O_28  and  C_16 
REMARK    8  A    between atoms: C_31  and  O_28 
ROOT
ATOM      1  N   UNL d   1     -48.069  12.105  22.979  0.00  0.00    -0.254 N 
ATOM      2  C   UNL d   1     -47.676  12.817  22.941  0.00  0.00     0.182 A 
ATOM      3  C   UNL d   1     -47.640  11.398  23.028  0.00  0.00     0.268 A 
ATOM      4  N   UNL d   1     -46.858  12.839  22.952  0.00  0.00    -0.222 NA
ATOM      5  C   UNL d   1     -46.823  11.413  23.039  0.00  0.00     0.074 A 
ATOM      6  C   UNL d   1     -46.418  12.138  23.001  0.00  0.00     0.088 A 
ATOM      7  C   UNL d   1     -45.156  11.452  23.062  0.00  0.00     0.058 A 
ATOM      8  C   UNL d   1     -45.587  12.162  23.013  0.00  0.00     0.024 A 
ATOM      9  C   UNL d   1     -46.381  10.710  23.089  0.00  0.00     0.006 A 
ATOM     10  O   UNL d   1     -48.044  10.673  23.066  0.00  0.00    -0.267 OA
ATOM     11  C   UNL d   1     -45.565  10.734  23.100  0.00  0.00     0.005 A 
ENDROOT
BRANCH   7  12
ATOM     12  C   UNL d   1     -44.333  11.480  23.073  0.00  0.00     0.265 C 
ATOM     13  N   UNL d   1     -43.920  11.900  22.522  0.00  0.00    -0.272 N 
ATOM     14  C   UNL d   1     -44.349  12.313  21.929  0.00  0.00     0.083 A 
ATOM     15  C   UNL d   1     -43.109  11.929  22.530  0.00  0.00     0.083 A 
ATOM     16  C   UNL d   1     -43.922  12.740  21.367  0.00  0.00     0.024 A 
ATOM     17  C   UNL d   1     -43.100  12.771  21.375  0.00  0.00     0.062 A 
ATOM     18  C   UNL d   1     -42.682  12.354  21.972  0.00  0.00     0.024 A 
ATOM     19  O   UNL d   1     -43.927  11.053  23.684  0.00  0.00    -0.267 OA
BRANCH  17  20
ATOM     20  C   UNL d   1     -42.686  13.202  20.808  0.00  0.00     0.297 C 
ATOM     21  O   UNL d   1     -42.962  13.232  20.027  0.00  0.00    -0.264 OA
ATOM     22  N   UNL d   1     -41.990  13.609  21.013  0.00  0.00    -0.102 N 
ENDBRANCH  17  20
ENDBRANCH   7  12
BRANCH   2  23
ATOM     23  S   UNL d   1     -48.110  13.531  22.891  0.00  0.00    -0.044 SA
BRANCH  23  24
ATOM     24  C   UNL d   1     -47.712  14.245  22.887  0.00  0.00     0.107 C 
BRANCH  24  25
ATOM     25  C   UNL d   1     -48.146  14.945  22.758  0.00  0.00     0.307 C 
ATOM     26  O   UNL d   1     -48.051  15.376  22.063  0.00  0.00    -0.258 OA
BRANCH  25  27
ATOM     27  O   UNL d   1     -48.676  15.199  23.344  0.00  0.00    -0.271 OA
BRANCH  27  28
ATOM     28  C   UNL d   1     -49.296  15.704  23.123  0.00  0.00     0.126 C 
ATOM     29  C   UNL d   1     -49.826  15.920  23.689  0.00  0.00     0.029 C 
ENDBRANCH  27  28
ENDBRANCH  25  27
ENDBRANCH  24  25
ENDBRANCH  23  24
ENDBRANCH   2  23
BRANCH   1  30
ATOM     30  C   UNL d   1     -48.888  12.083  22.968  0.00  0.00     0.069 A 
ATOM     31  C   UNL d   1     -49.309  12.077  23.665  0.00  0.00     0.018 A 
ATOM     32  C   UNL d   1     -50.131  12.055  23.656  0.00  0.00     0.002 A 
ATOM     33  C   UNL d   1     -50.536  12.039  22.923  0.00  0.00     0.000 A 
ATOM     34  C   UNL d   1     -50.105  12.044  22.224  0.00  0.00     0.002 A 
ATOM     35  C   UNL d   1     -49.279  12.067  22.227  0.00  0.00     0.018 A 
ENDBRANCH   1  30
TORSDOF 8
ENDMDL
MODEL 2
REMARK VINA RESULT:      -3.5      1.669      5.602
REMARK  8 active torsions:
REMARK  status: ('A' for Active; 'I' for Inactive)
REMARK    1  A    between atoms: C_14  and  N_1 
REMARK    2  A    between atoms: S_10  and  C_2 
REMARK    3  A    between atoms: C_7  and  C_9 
REMARK       I    between atoms: N_8  and  C_7 
REMARK    4  A    between atoms: C_26  and  S_10 
REMARK    5  A    between atoms: C_13  and  C_18 
REMARK    6  A    between atoms: C_16  and  C_26 
REMARK    7  A    between atoms: O_28  and  C_16 
REMARK    8  A    between atoms: C_31  and  O_28 
ROOT
ATOM      1  N   UNL d   1     -44.837  11.894  22.826  0.00  0.00    -0.254 N 
ATOM      2  C   UNL d   1     -44.591  12.490  22.328  0.00  0.00     0.182 A 
ATOM      3  C   UNL d   1     -45.580  11.940  23.191  0.00  0.00     0.268 A 
ATOM      4  N   UNL d   1     -45.074  13.135  22.185  0.00  0.00    -0.222 NA
ATOM      5  C   UNL d   1     -46.066  12.581  23.052  0.00  0.00     0.074 A 
ATOM      6  C   UNL d   1     -45.819  13.192  22.545  0.00  0.00     0.088 A 
ATOM      7  C   UNL d   1     -47.054  13.893  22.766  0.00  0.00     0.058 A 
ATOM      8  C   UNL d   1     -46.309  13.847  22.399  0.00  0.00     0.024 A 
ATOM      9  C   UNL d   1     -46.814  12.638  23.413  0.00  0.00     0.006 A 
ATOM     10  O   UNL d   1     -45.827  11.330  23.698  0.00  0.00    -0.267 OA
ATOM     11  C   UNL d   1     -47.294  13.283  23.269  0.00  0.00     0.005 A 
ENDROOT
BRANCH   7  12
ATOM     12  C   UNL d   1     -47.536  14.545  22.619  0.00  0.00     0.265 C 
ATOM     13  N   UNL d   1     -48.301  14.456  22.379  0.00  0.00    -0.272 N 
ATOM     14  C   UNL d   1     -48.602  13.678  22.281  0.00  0.00     0.083 A 
ATOM     15  C   UNL d   1     -48.778  15.097  22.233  0.00  0.00     0.083 A 
ATOM     16  C   UNL d   1     -49.385  13.593  22.036  0.00  0.00     0.024 A 
ATOM     17  C   UNL d   1     -49.869  14.241  21.888  0.00  0.00     0.062 A 
ATOM     18  C   UNL d   1     -49.557  15.014  21.990  0.00  0.00     0.024 A 
ATOM     19  O   UNL d   1     -47.204  15.319  22.726  0.00  0.00    -0.267 OA
BRANCH  17  20
ATOM     20  C   UNL d   1     -50.650  14.141  21.644  0.00  0.00     0.297 C 
ATOM     21  O   UNL d   1     -51.027  14.739  21.211  0.00  0.00    -0.264 OA
ATOM     22  N   UNL d   1     -51.064  13.444  21.828  0.00  0.00    -0.102 N 
ENDBRANCH  17  20
ENDBRANCH   7  12
BRANCH   2  23
ATOM     23  S   UNL d   1     -43.841  12.443  21.959  0.00  0.00    -0.044 SA
BRANCH  23  24
ATOM     24  C   UNL d   1     -43.581  13.064  21.495  0.00  0.00     0.107 C 
BRANCH  24  25
ATOM     25  C   UNL d   1     -42.847  12.994  21.108  0.00  0.00     0.307 C 
ATOM     26  O   UNL d   1     -42.779  12.563  20.409  0.00  0.00    -0.258 OA
BRANCH  25  27
ATOM     27  O   UNL d   1     -42.183  13.366  21.440  0.00  0.00    -0.271 OA
BRANCH  27  28
ATOM     28  C   UNL d   1     -41.801  13.957  21.002  0.00  0.00     0.126 C 
ATOM     29  C   UNL d   1     -41.005  14.036  21.088  0.00  0.00     0.029 C 
ENDBRANCH  27  28
ENDBRANCH  25  27
ENDBRANCH  24  25
ENDBRANCH  23  24
ENDBRANCH   2  23
BRANCH   1  30
ATOM     30  C   UNL d   1     -44.354  11.248  22.968  0.00  0.00     0.069 A 
ATOM     31  C   UNL d   1     -44.559  10.511  22.690  0.00  0.00     0.018 A 
ATOM     32  C   UNL d   1     -44.075   9.862  22.832  0.00  0.00     0.002 A 
ATOM     33  C   UNL d   1     -43.366   9.961  23.266  0.00  0.00     0.000 A 
ATOM     34  C   UNL d   1     -43.165  10.707  23.544  0.00  0.00     0.002 A 
ATOM     35  C   UNL d   1     -43.648  11.364  23.404  0.00  0.00     0.018 A 
ENDBRANCH   1  30
TORSDOF 8
ENDMDL
MODEL 3
REMARK VINA RESULT:      -3.3      4.704      8.439
REMARK  8 active torsions:
REMARK  status: ('A' for Active; 'I' for Inactive)
REMARK    1  A    between atoms: C_14  and  N_1 
REMARK    2  A    between atoms: S_10  and  C_2 
REMARK    3  A    between atoms: C_7  and  C_9 
REMARK       I    between atoms: N_8  and  C_7 
REMARK    4  A    between atoms: C_26  and  S_10 
REMARK    5  A    between atoms: C_13  and  C_18 
REMARK    6  A    between atoms: C_16  and  C_26 
REMARK    7  A    between atoms: O_28  and  C_16 
REMARK    8  A    between atoms: C_31  and  O_28 
ROOT
ATOM      1  N   UNL d   1     -39.710  14.300  21.054  0.00  0.00    -0.254 N 
ATOM      2  C   UNL d   1     -40.473  14.187  20.794  0.00  0.00     0.182 A 
ATOM      3  C   UNL d   1     -39.139  14.607  20.537  0.00  0.00     0.268 A 
ATOM      4  N   UNL d   1     -40.681  14.374  20.025  0.00  0.00    -0.222 NA
ATOM      5  C   UNL d   1     -39.340  14.796  19.768  0.00  0.00     0.074 A 
ATOM      6  C   UNL d   1     -40.118  14.682  19.499  0.00  0.00     0.088 A 
ATOM      7  C   UNL d   1     -39.757  15.181  18.200  0.00  0.00     0.058 A 
ATOM      8  C   UNL d   1     -40.330  14.873  18.719  0.00  0.00     0.024 A 
ATOM      9  C   UNL d   1     -38.775  15.105  19.241  0.00  0.00     0.006 A 
ATOM     10  O   UNL d   1     -38.361  14.721  20.805  0.00  0.00    -0.267 OA
ATOM     11  C   UNL d   1     -38.985  15.292  18.474  0.00  0.00     0.005 A 
ENDROOT
BRANCH   7  12
ATOM     12  C   UNL d   1     -39.972  15.368  17.428  0.00  0.00     0.265 C 
ATOM     13  N   UNL d   1     -39.542  15.107  16.798  0.00  0.00    -0.272 N 
ATOM     14  C   UNL d   1     -38.863  14.634  16.944  0.00  0.00     0.083 A 
ATOM     15  C   UNL d   1     -39.751  15.290  16.034  0.00  0.00     0.083 A 
ATOM     16  C   UNL d   1     -38.426  14.369  16.296  0.00  0.00     0.024 A 
ATOM     17  C   UNL d   1     -38.637  14.554  15.523  0.00  0.00     0.062 A 
ATOM     18  C   UNL d   1     -39.318  15.027  15.388  0.00  0.00     0.024 A 
ATOM     19  O   UNL d   1     -40.663  15.847  17.311  0.00  0.00    -0.267 OA
BRANCH  17  20
ATOM     20  C   UNL d   1     -38.193  14.283  14.885  0.00  0.00     0.297 C 
ATOM     21  O   UNL d   1     -37.978  14.806  14.278  0.00  0.00    -0.264 OA
ATOM     22  N   UNL d   1     -37.957  13.486  14.843  0.00  0.00    -0.102 N 
ENDBRANCH  17  20
ENDBRANCH   7  12
BRANCH   2  23
ATOM     23  S   UNL d   1     -41.050  13.876  21.315  0.00  0.00    -0.044 SA
BRANCH  23  24
ATOM     24  C   UNL d   1     -41.666  13.431  21.016  0.00  0.00     0.107 C 
BRANCH  24  25
ATOM     25  C   UNL d   1     -42.364  13.360  21.466  0.00  0.00     0.307 C 
ATOM     26  O   UNL d   1     -42.806  14.026  21.664  0.00  0.00    -0.258 OA
BRANCH  25  27
ATOM     27  O   UNL d   1     -42.606  12.604  21.711  0.00  0.00    -0.271 OA
BRANCH  27  28
ATOM     28  C   UNL d   1     -43.413  12.473  21.848  0.00  0.00     0.126 C 
ATOM     29  C   UNL d   1     -43.618  11.926  22.401  0.00  0.00     0.029 C 
ENDBRANCH  27  28
ENDBRANCH  25  27
ENDBRANCH  24  25
ENDBRANCH  23  24
ENDBRANCH   2  23
BRANCH   1  30
ATOM     30  C   UNL d   1     -39.502  14.112  21.823  0.00  0.00     0.069 A 
ATOM     31  C   UNL d   1     -39.292  13.350  22.018  0.00  0.00     0.018 A 
ATOM     32  C   UNL d   1     -39.083  13.159  22.790  0.00  0.00     0.002 A 
ATOM     33  C   UNL d   1     -39.087  13.755  23.379  0.00  0.00     0.000 A 
ATOM     34  C   UNL d   1     -39.300  14.521  23.175  0.00  0.00     0.002 A 
ATOM     35  C   UNL d   1     -39.511  14.718  22.400  0.00  0.00     0.018 A 
ENDBRANCH   1  30
TORSDOF 8
ENDMDL
MODEL 4
REMARK VINA RESULT:      -2.6      3.315      7.785
REMARK  8 active torsions:
REMARK  status: ('A' for Active; 'I' for Inactive)
REMARK    1  A    between atoms: C_14  and  N_1 
REMARK    2  A    between atoms: S_10  and  C_2 
REMARK    3  A    between atoms: C_7  and  C_9 
REMARK       I    between atoms: N_8  and  C_7 
REMARK    4  A    between atoms: C_26  and  S_10 
REMARK    5  A    between atoms: C_13  and  C_18 
REMARK    6  A    between atoms: C_16  and  C_26 
REMARK    7  A    between atoms: O_28  and  C_16 
REMARK    8  A    between atoms: C_31  and  O_28 
ROOT
ATOM      1  N   UNL d   1     -40.268  14.406  20.498  0.00  0.00    -0.254 N 
ATOM      2  C   UNL d   1     -40.695  14.368  19.805  0.00  0.00     0.182 A 
ATOM      3  C   UNL d   1     -40.585  14.088  21.196  0.00  0.00     0.268 A 
ATOM      4  N   UNL d   1     -41.435  14.019  19.793  0.00  0.00    -0.222 NA
ATOM      5  C   UNL d   1     -41.323  13.738  21.190  0.00  0.00     0.074 A 
ATOM      6  C   UNL d   1     -41.761  13.698  20.484  0.00  0.00     0.088 A 
ATOM      7  C   UNL d   1     -42.830  13.025  21.171  0.00  0.00     0.058 A 
ATOM      8  C   UNL d   1     -42.512  13.343  20.471  0.00  0.00     0.024 A 
ATOM      9  C   UNL d   1     -41.650  13.416  21.884  0.00  0.00     0.006 A 
ATOM     10  O   UNL d   1     -40.147  14.128  21.901  0.00  0.00    -0.267 OA
ATOM     11  C   UNL d   1     -42.389  13.067  21.869  0.00  0.00     0.005 A 
ENDROOT
BRANCH   7  12
ATOM     12  C   UNL d   1     -43.575  12.674  21.152  0.00  0.00     0.265 C 
ATOM     13  N   UNL d   1     -44.204  13.005  21.534  0.00  0.00    -0.272 N 
ATOM     14  C   UNL d   1     -44.085  13.721  21.956  0.00  0.00     0.083 A 
ATOM     15  C   UNL d   1     -44.940  12.661  21.517  0.00  0.00     0.083 A 
ATOM     16  C   UNL d   1     -44.732  14.055  22.344  0.00  0.00     0.024 A 
ATOM     17  C   UNL d   1     -45.477  13.708  22.328  0.00  0.00     0.062 A 
ATOM     18  C   UNL d   1     -45.584  12.992  21.903  0.00  0.00     0.024 A 
ATOM     19  O   UNL d   1     -43.664  11.950  20.718  0.00  0.00    -0.267 OA
BRANCH  17  20
ATOM     20  C   UNL d   1     -46.115  14.052  22.720  0.00  0.00     0.297 C 
ATOM     21  O   UNL d   1     -46.301  14.849  22.588  0.00  0.00    -0.264 OA
ATOM     22  N   UNL d   1     -46.575  13.605  23.250  0.00  0.00    -0.102 N 
ENDBRANCH  17  20
ENDBRANCH   7  12
BRANCH   2  23
ATOM     23  S   UNL d   1     -40.375  14.689  19.101  0.00  0.00    -0.044 SA
BRANCH  23  24
ATOM     24  C   UNL d   1     -40.702  14.484  18.381  0.00  0.00     0.107 C 
BRANCH  24  25
ATOM     25  C   UNL d   1     -40.413  14.852  17.691  0.00  0.00     0.307 C 
ATOM     26  O   UNL d   1     -40.664  15.608  17.482  0.00  0.00    -0.258 OA
BRANCH  25  27
ATOM     27  O   UNL d   1     -39.867  14.442  17.218  0.00  0.00    -0.271 OA
BRANCH  27  28
ATOM     28  C   UNL d   1     -39.445  14.866  16.645  0.00  0.00     0.126 C 
ATOM     29  C   UNL d   1     -38.852  14.486  16.255  0.00  0.00     0.029 C 
ENDBRANCH  27  28
ENDBRANCH  25  27
ENDBRANCH  24  25
ENDBRANCH  23  24
ENDBRANCH   2  23
BRANCH   1  30
ATOM     30  C   UNL d   1     -39.528  14.755  20.511  0.00  0.00     0.069 A 
ATOM     31  C   UNL d   1     -38.860  14.311  20.370  0.00  0.00     0.018 A 
ATOM     32  C   UNL d   1     -38.116  14.660  20.382  0.00  0.00     0.002 A 
ATOM     33  C   UNL d   1     -38.047  15.479  20.540  0.00  0.00     0.000 A 
ATOM     34  C   UNL d   1     -38.724  15.921  20.681  0.00  0.00     0.002 A 
ATOM     35  C   UNL d   1     -39.475  15.575  20.670  0.00  0.00     0.018 A 
ENDBRANCH   1  30
TORSDOF 8
ENDMDL
MODEL 5
REMARK VINA RESULT:      -2.1      5.052      8.704
REMARK  8 active torsions:
REMARK  status: ('A' for Active; 'I' for Inactive)
REMARK    1  A    between atoms: C_14  and  N_1 
REMARK    2  A    between atoms: S_10  and  C_2 
REMARK    3  A    between atoms: C_7  and  C_9 
REMARK       I    between atoms: N_8  and  C_7 
REMARK    4  A    between atoms: C_26  and  S_10 
REMARK    5  A    between atoms: C_13  and  C_18 
REMARK    6  A    between atoms: C_16  and  C_26 
REMARK    7  A    between atoms: O_28  and  C_16 
REMARK    8  A    between atoms: C_31  and  O_28 
ROOT
ATOM      1  N   UNL d   1     -39.128  14.918  21.161  0.00  0.00    -0.254 N 
ATOM      2  C   UNL d   1     -39.750  14.549  20.787  0.00  0.00     0.182 A 
ATOM      3  C   UNL d   1     -38.576  15.349  20.717  0.00  0.00     0.268 A 
ATOM      4  N   UNL d   1     -39.834  14.600  19.974  0.00  0.00    -0.222 NA
ATOM      5  C   UNL d   1     -38.654  15.404  19.906  0.00  0.00     0.074 A 
ATOM      6  C   UNL d   1     -39.288  15.028  19.521  0.00  0.00     0.088 A 
ATOM      7  C   UNL d   1     -38.819  15.511  18.250  0.00  0.00     0.058 A 
ATOM      8  C   UNL d   1     -39.373  15.079  18.696  0.00  0.00     0.024 A 
ATOM      9  C   UNL d   1     -38.105  15.833  19.451  0.00  0.00     0.006 A 
ATOM     10  O   UNL d   1     -37.942  15.724  21.102  0.00  0.00    -0.267 OA
ATOM     11  C   UNL d   1     -38.191  15.883  18.639  0.00  0.00     0.005 A 
ENDROOT
BRANCH   7  12
ATOM     12  C   UNL d   1     -38.908  15.559  17.433  0.00  0.00     0.265 C 
ATOM     13  N   UNL d   1     -39.636  15.636  17.094  0.00  0.00    -0.272 N 
ATOM     14  C   UNL d   1     -40.310  15.667  17.595  0.00  0.00     0.083 A 
ATOM     15  C   UNL d   1     -39.727  15.684  16.288  0.00  0.00     0.083 A 
ATOM     16  C   UNL d   1     -41.052  15.745  17.242  0.00  0.00     0.024 A 
ATOM     17  C   UNL d   1     -41.145  15.794  16.427  0.00  0.00     0.062 A 
ATOM     18  C   UNL d   1     -40.464  15.762  15.936  0.00  0.00     0.024 A 
ATOM     19  O   UNL d   1     -38.209  15.526  16.953  0.00  0.00    -0.267 OA
BRANCH  17  20
ATOM     20  C   UNL d   1     -41.892  15.872  16.088  0.00  0.00     0.297 C 
ATOM     21  O   UNL d   1     -41.970  15.910  15.264  0.00  0.00    -0.264 OA
ATOM     22  N   UNL d   1     -42.570  15.913  16.568  0.00  0.00    -0.102 N 
ENDBRANCH  17  20
ENDBRANCH   7  12
BRANCH   2  23
ATOM     23  S   UNL d   1     -40.308  14.115  21.235  0.00  0.00    -0.044 SA
BRANCH  23  24
ATOM     24  C   UNL d   1     -41.043  13.952  20.916  0.00  0.00     0.107 C 
BRANCH  24  25
ATOM     25  C   UNL d   1     -41.510  13.359  21.269  0.00  0.00     0.307 C 
ATOM     26  O   UNL d   1     -41.172  12.800  21.770  0.00  0.00    -0.258 OA
BRANCH  25  27
ATOM     27  O   UNL d   1     -42.324  13.342  21.105  0.00  0.00    -0.271 OA
BRANCH  27  28
ATOM     28  C   UNL d   1     -42.804  12.824  21.540  0.00  0.00     0.126 C 
ATOM     29  C   UNL d   1     -43.599  12.944  21.525  0.00  0.00     0.029 C 
ENDBRANCH  27  28
ENDBRANCH  25  27
ENDBRANCH  24  25
ENDBRANCH  23  24
ENDBRANCH   2  23
BRANCH   1  30
ATOM     30  C   UNL d   1     -39.044  14.867  21.974  0.00  0.00     0.069 A 
ATOM     31  C   UNL d   1     -39.387  15.425  22.459  0.00  0.00     0.018 A 
ATOM     32  C   UNL d   1     -39.304  15.375  23.276  0.00  0.00     0.002 A 
ATOM     33  C   UNL d   1     -38.864  14.746  23.609  0.00  0.00     0.000 A 
ATOM     34  C   UNL d   1     -38.521  14.187  23.114  0.00  0.00     0.002 A 
ATOM     35  C   UNL d   1     -38.601  14.232  22.293  0.00  0.00     0.018 A 
ENDBRANCH   1  30
TORSDOF 8
ENDMDL
