MODEL 1
REMARK VINA RESULT:       0.2      0.000      0.000
REMARK  5 active torsions:
REMARK  status: ('A' for Active; 'I' for Inactive)
REMARK    1  A    between atoms: C_3  and  C_1 
REMARK    2  A    between atoms: S_2  and  C_3 
REMARK    3  A    between atoms: C_8  and  S_2 
REMARK    4  A    between atoms: C_9  and  C_3 
REMARK    5  A    between atoms: N_7  and  C_4 
ROOT
ATOM      1  C   UNL d   1      59.307  -1.372  29.264  0.00  0.00     0.128 A 
ATOM      2  C   UNL d   1      60.073  -1.408  29.557  0.00  0.00     0.166 A 
ATOM      3  N   UNL d   1      58.952  -2.043  28.944  0.00  0.00    -0.240 NA
ATOM      4  N   UNL d   1      60.490  -2.116  29.532  0.00  0.00    -0.225 NA
ATOM      5  C   UNL d   1      59.373  -2.747  28.922  0.00  0.00     0.099 A 
ATOM      6  C   UNL d   1      60.139  -2.792  29.212  0.00  0.00     0.101 A 
ATOM      7  C   UNL d   1      60.549  -3.499  29.185  0.00  0.00     0.021 A 
ATOM      8  C   UNL d   1      59.018  -3.422  28.600  0.00  0.00     0.021 A 
ATOM      9  C   UNL d   1      60.201  -4.166  28.869  0.00  0.00     0.002 A 
ATOM     10  C   UNL d   1      59.435  -4.126  28.577  0.00  0.00     0.002 A 
ENDROOT
BRANCH   1  11
ATOM     11  C   UNL d   1      58.885  -0.669  29.286  0.00  0.00     0.129 C 
BRANCH  11  12
ATOM     12  S   UNL d   1      58.043  -0.695  29.569  0.00  0.00     0.213 S 
ATOM     13  O   UNL d   1      57.405  -0.705  28.952  0.00  0.00    -0.217 OA
ATOM     14  O   UNL d   1      58.005  -0.687  28.739  0.00  0.00    -0.217 OA
BRANCH  12  15
ATOM     15  C   UNL d   1      57.697  -0.712  30.326  0.00  0.00     0.088 A 
ATOM     16  C   UNL d   1      57.536   0.004  30.717  0.00  0.00     0.011 A 
ATOM     17  C   UNL d   1      57.192  -0.019  31.469  0.00  0.00     0.001 A 
ATOM     18  C   UNL d   1      57.028   0.682  31.864  0.00  0.00     0.000 C 
ATOM     19  C   UNL d   1      57.010  -0.743  31.829  0.00  0.00     0.000 A 
ATOM     20  C   UNL d   1      57.177  -1.455  31.427  0.00  0.00     0.001 A 
ATOM     21  C   UNL d   1      57.520  -1.427  30.677  0.00  0.00     0.011 A 
ENDBRANCH  12  15
ENDBRANCH  11  12
BRANCH  11  22
ATOM     22  C   UNL d   1      59.131   0.134  29.071  0.00  0.00     0.135 C 
ATOM     23  N   UNL d   1      58.761   0.681  28.483  0.00  0.00    -0.146 N 
ENDBRANCH  11  22
ENDBRANCH   1  11
BRANCH   2  24
ATOM     24  N   UNL d   1      60.424  -0.730  29.878  0.00  0.00    -0.284 N 
ATOM     25  C   UNL d   1      60.462  -0.637  30.708  0.00  0.00     0.108 A 
ATOM     26  C   UNL d   1      60.818   0.051  31.021  0.00  0.00     0.142 A 
ATOM     27  O   UNL d   1      61.130   0.636  30.514  0.00  0.00    -0.300 OA
ATOM     28  C   UNL d   1      61.085   0.532  29.695  0.00  0.00     0.142 A 
ATOM     29  C   UNL d   1      60.735  -0.145  29.371  0.00  0.00     0.108 A 
ENDBRANCH   2  24
TORSDOF 5
ENDMDL
