MODEL 1
REMARK VINA RESULT:      80.8      0.000      0.000
REMARK  9 active torsions:
REMARK  status: ('A' for Active; 'I' for Inactive)
REMARK    1  A    between atoms: C_5  and  C_1 
REMARK    2  A    between atoms: C_10  and  C_2 
REMARK    3  A    between atoms: S_11  and  C_3 
REMARK    4  A    between atoms: C_9  and  C_4 
REMARK       I    between atoms: N_8  and  C_5 
REMARK    5  A    between atoms: C_13  and  N_8 
REMARK    6  A    between atoms: C_18  and  S_11 
REMARK    7  A    between atoms: C_16  and  C_18 
REMARK    8  A    between atoms: C_23  and  C_16 
REMARK    9  A    between atoms: O_25  and  C_20 
ROOT
ATOM      1  C   UNL d   1      44.107 -13.909  38.233  0.00  0.00     0.077 A 
ATOM      2  C   UNL d   1      45.291 -13.279  38.716  0.00  0.00     0.047 A 
ATOM      3  C   UNL d   1      44.850 -12.906  39.311  0.00  0.00     0.112 A 
ATOM      4  C   UNL d   1      44.920 -13.781  38.176  0.00  0.00     0.032 A 
ATOM      5  C   UNL d   1      43.666 -13.536  38.828  0.00  0.00     0.087 A 
ATOM      6  N   UNL d   1      44.037 -13.035  39.367  0.00  0.00    -0.239 NA
ATOM      7  C   UNL d   1      42.839 -13.660  38.893  0.00  0.00     0.021 C 
ENDROOT
BRANCH   1   8
ATOM      8  C   UNL d   1      43.739 -14.421  37.679  0.00  0.00     0.281 C 
ATOM      9  N   UNL d   1      43.347 -15.088  37.946  0.00  0.00    -0.206 NA
ATOM     10  O   UNL d   1      43.776 -14.250  36.881  0.00  0.00    -0.265 OA
BRANCH   9  11
ATOM     11  C   UNL d   1      42.988 -15.590  37.412  0.00  0.00     0.107 A 
ATOM     12  C   UNL d   1      43.322 -16.313  37.229  0.00  0.00     0.112 A 
ATOM     13  C   UNL d   1      42.945 -16.808  36.687  0.00  0.00     0.026 A 
ATOM     14  C   UNL d   1      42.228 -16.569  36.331  0.00  0.00     0.002 A 
ATOM     15  C   UNL d   1      41.899 -15.844  36.518  0.00  0.00     0.002 A 
ATOM     16  C   UNL d   1      42.276 -15.349  37.060  0.00  0.00     0.021 A 
BRANCH  12  17
ATOM     17  O   UNL d   1      44.039 -16.563  37.579  0.00  0.00    -0.327 OA
ATOM     18  C   UNL d   1      44.566 -17.400  37.549  0.00  0.00     0.181 C 
ENDBRANCH  12  17
ENDBRANCH   9  11
ENDBRANCH   1   8
BRANCH   4  19
ATOM     19  C   UNL d   1      45.364 -14.156  37.577  0.00  0.00     0.100 A 
ATOM     20  O   UNL d   1      45.789 -13.703  37.039  0.00  0.00    -0.305 OA
ATOM     21  C   UNL d   1      46.168 -14.231  36.518  0.00  0.00     0.123 A 
ATOM     22  C   UNL d   1      45.983 -14.981  36.728  0.00  0.00     0.029 A 
ATOM     23  C   UNL d   1      45.491 -14.962  37.375  0.00  0.00     0.027 A 
ENDBRANCH   4  19
BRANCH   2  24
ATOM     24  C   UNL d   1      46.123 -13.153  38.652  0.00  0.00     0.124 C 
ATOM     25  N   UNL d   1      46.643 -13.645  39.044  0.00  0.00    -0.146 N 
ENDBRANCH   2  24
BRANCH   3  26
ATOM     26  S   UNL d   1      45.223 -12.392  39.866  0.00  0.00    -0.064 SA
BRANCH  26  27
ATOM     27  C   UNL d   1      44.951 -12.354  40.635  0.00  0.00     0.079 C 
BRANCH  27  28
ATOM     28  C   UNL d   1      45.487 -12.344  41.239  0.00  0.00     0.202 C 
ATOM     29  O   UNL d   1      46.274 -12.130  41.085  0.00  0.00    -0.286 OA
BRANCH  28  30
ATOM     30  C   UNL d   1      45.255 -12.543  41.998  0.00  0.00     0.040 A 
ATOM     31  C   UNL d   1      45.535 -12.108  42.649  0.00  0.00     0.003 A 
ATOM     32  C   UNL d   1      45.304 -12.305  43.415  0.00  0.00     0.000 A 
ATOM     33  C   UNL d   1      44.775 -12.961  43.530  0.00  0.00     0.000 A 
ATOM     34  C   UNL d   1      44.509 -13.380  42.871  0.00  0.00     0.000 A 
ATOM     35  C   UNL d   1      44.744 -13.176  42.114  0.00  0.00     0.003 A 
ENDBRANCH  28  30
ENDBRANCH  27  28
ENDBRANCH  26  27
ENDBRANCH   3  26
TORSDOF 9
ENDMDL
