MODEL 1
REMARK VINA RESULT:      11.3      0.000      0.000
REMARK  3 active torsions:
REMARK  status: ('A' for Active; 'I' for Inactive)
REMARK    1  A    between atoms: C_4  and  N_1 
REMARK    2  A    between atoms: C_2  and  O_5 
REMARK       I    between atoms: N_3  and  C_2 
REMARK    3  A    between atoms: O_5  and  C_10 
ROOT
ATOM      1  C   UNL d   1      46.370 -18.805  43.228  0.00  0.00     0.129 A 
ATOM      2  C   UNL d   1      46.360 -17.990  43.330  0.00  0.00     0.048 A 
ATOM      3  C   UNL d   1      46.336 -17.677  44.088  0.00  0.00     0.106 A 
ATOM      4  C   UNL d   1      46.356 -19.305  43.885  0.00  0.00     0.024 A 
ATOM      5  C   UNL d   1      46.333 -18.982  44.636  0.00  0.00     0.004 A 
ATOM      6  C   UNL d   1      46.323 -18.166  44.738  0.00  0.00     0.025 A 
ENDROOT
BRANCH   3   7
ATOM      7  O   UNL d   1      46.326 -16.856  44.191  0.00  0.00    -0.259 OA
BRANCH   7   8
ATOM      8  C   UNL d   1      45.699 -16.481  44.565  0.00  0.00     0.377 C 
ATOM      9  N   UNL d   1      45.627 -15.649  44.561  0.00  0.00    -0.252 N 
ATOM     10  C   UNL d   1      44.979 -15.284  44.948  0.00  0.00     0.085 A 
ATOM     11  C   UNL d   1      46.191 -15.171  44.178  0.00  0.00     0.085 A 
ATOM     12  C   UNL d   1      44.907 -14.448  44.945  0.00  0.00     0.019 A 
ATOM     13  C   UNL d   1      45.483 -13.986  44.555  0.00  0.00     0.003 A 
ATOM     14  C   UNL d   1      46.120 -14.347  44.174  0.00  0.00     0.019 A 
ATOM     15  O   UNL d   1      45.124 -16.957  44.955  0.00  0.00    -0.237 OA
ENDBRANCH   7   8
ENDBRANCH   3   7
BRANCH   1  16
ATOM     16  N   UNL d   1      46.394 -19.131  42.468  0.00  0.00    -0.114 N 
ATOM     17  O   UNL d   1      46.293 -19.945  42.359  0.00  0.00    -0.532 OA
ATOM     18  O   UNL d   1      46.520 -18.635  41.818  0.00  0.00    -0.532 OA
ENDBRANCH   1  16
TORSDOF 3
ENDMDL
MODEL 2
REMARK VINA RESULT:      14.1      1.463      4.208
REMARK  3 active torsions:
REMARK  status: ('A' for Active; 'I' for Inactive)
REMARK    1  A    between atoms: C_4  and  N_1 
REMARK    2  A    between atoms: C_2  and  O_5 
REMARK       I    between atoms: N_3  and  C_2 
REMARK    3  A    between atoms: O_5  and  C_10 
ROOT
ATOM      1  C   UNL d   1      45.183 -14.414  44.562  0.00  0.00     0.129 A 
ATOM      2  C   UNL d   1      45.163 -15.236  44.572  0.00  0.00     0.048 A 
ATOM      3  C   UNL d   1      45.842 -15.655  44.768  0.00  0.00     0.106 A 
ATOM      4  C   UNL d   1      45.880 -14.014  44.748  0.00  0.00     0.024 A 
ATOM      5  C   UNL d   1      46.551 -14.442  44.942  0.00  0.00     0.004 A 
ATOM      6  C   UNL d   1      46.531 -15.263  44.952  0.00  0.00     0.025 A 
ENDROOT
BRANCH   3   7
ATOM      7  O   UNL d   1      45.822 -16.481  44.778  0.00  0.00    -0.259 OA
BRANCH   7   8
ATOM      8  C   UNL d   1      45.989 -16.920  44.104  0.00  0.00     0.377 C 
ATOM      9  N   UNL d   1      46.191 -17.728  44.152  0.00  0.00    -0.252 N 
ATOM     10  C   UNL d   1      46.358 -18.160  43.454  0.00  0.00     0.085 A 
ATOM     11  C   UNL d   1      46.231 -18.118  44.888  0.00  0.00     0.085 A 
ATOM     12  C   UNL d   1      46.561 -18.972  43.502  0.00  0.00     0.019 A 
ATOM     13  C   UNL d   1      46.596 -19.346  44.249  0.00  0.00     0.003 A 
ATOM     14  C   UNL d   1      46.432 -18.919  44.936  0.00  0.00     0.019 A 
ATOM     15  O   UNL d   1      45.950 -16.534  43.357  0.00  0.00    -0.237 OA
ENDBRANCH   7   8
ENDBRANCH   3   7
BRANCH   1  16
ATOM     16  N   UNL d   1      44.505 -13.983  44.366  0.00  0.00    -0.114 N 
ATOM     17  O   UNL d   1      43.827 -14.031  44.838  0.00  0.00    -0.532 OA
ATOM     18  O   UNL d   1      44.511 -13.502  43.692  0.00  0.00    -0.532 OA
ENDBRANCH   1  16
TORSDOF 3
ENDMDL
