MODEL 1
REMARK VINA RESULT:      20.6      0.000      0.000
REMARK  1 active torsions:
REMARK  status: ('A' for Active; 'I' for Inactive)
REMARK    1  A    between atoms: C_7  and  C_2 
ROOT
ATOM      1  N   UNL d   1     -52.771  25.448  33.508  0.00  0.00    -0.147 NA
ATOM      2  C   UNL d   1     -51.954  25.393  33.443  0.00  0.00     0.103 A 
ATOM      3  N   UNL d   1     -53.219  24.766  33.539  0.00  0.00    -0.137 NA
ATOM      4  C   UNL d   1     -51.576  24.658  33.407  0.00  0.00     0.022 A 
ATOM      5  C   UNL d   1     -52.849  24.029  33.504  0.00  0.00     0.157 A 
ATOM      6  C   UNL d   1     -52.024  23.976  33.438  0.00  0.00     0.031 A 
ATOM      7  S   UNL d   1     -53.315  23.320  33.536  0.00  0.00    -0.056 SA
ATOM      8  C   UNL d   1     -50.754  24.601  33.342  0.00  0.00     0.002 A 
ATOM      9  C   UNL d   1     -51.650  23.237  33.403  0.00  0.00     0.002 A 
ATOM     10  C   UNL d   1     -50.386  23.872  33.307  0.00  0.00     0.000 A 
ATOM     11  C   UNL d   1     -50.834  23.190  33.338  0.00  0.00     0.000 A 
ENDROOT
BRANCH   2  12
ATOM     12  C   UNL d   1     -51.488  26.102  33.411  0.00  0.00     0.019 A 
ATOM     13  C   UNL d   1     -51.865  26.840  33.374  0.00  0.00     0.002 A 
ATOM     14  C   UNL d   1     -51.414  27.527  33.343  0.00  0.00     0.000 A 
ATOM     15  C   UNL d   1     -50.586  27.475  33.349  0.00  0.00     0.000 A 
ATOM     16  C   UNL d   1     -50.213  26.740  33.385  0.00  0.00     0.000 A 
ATOM     17  C   UNL d   1     -50.126  28.175  33.317  0.00  0.00     0.000 C 
ATOM     18  C   UNL d   1     -50.664  26.054  33.416  0.00  0.00     0.002 A 
ENDBRANCH   2  12
TORSDOF 1
ENDMDL
MODEL 2
REMARK VINA RESULT:      22.8      1.566      3.149
REMARK  1 active torsions:
REMARK  status: ('A' for Active; 'I' for Inactive)
REMARK    1  A    between atoms: C_7  and  C_2 
ROOT
ATOM      1  N   UNL d   1     -51.987  26.422  33.536  0.00  0.00    -0.147 NA
ATOM      2  C   UNL d   1     -51.735  25.642  33.472  0.00  0.00     0.103 A 
ATOM      3  N   UNL d   1     -51.434  27.024  33.549  0.00  0.00    -0.137 NA
ATOM      4  C   UNL d   1     -50.931  25.455  33.421  0.00  0.00     0.022 A 
ATOM      5  C   UNL d   1     -50.631  26.845  33.498  0.00  0.00     0.157 A 
ATOM      6  C   UNL d   1     -50.378  26.057  33.434  0.00  0.00     0.031 A 
ATOM      7  S   UNL d   1     -50.057  27.471  33.512  0.00  0.00    -0.056 SA
ATOM      8  C   UNL d   1     -50.675  24.672  33.357  0.00  0.00     0.002 A 
ATOM      9  C   UNL d   1     -49.571  25.875  33.382  0.00  0.00     0.002 A 
ATOM     10  C   UNL d   1     -49.879  24.493  33.306  0.00  0.00     0.000 A 
ATOM     11  C   UNL d   1     -49.327  25.095  33.319  0.00  0.00     0.000 A 
ENDROOT
BRANCH   2  12
ATOM     12  C   UNL d   1     -52.309  25.017  33.459  0.00  0.00     0.019 A 
ATOM     13  C   UNL d   1     -53.107  25.195  33.320  0.00  0.00     0.002 A 
ATOM     14  C   UNL d   1     -53.663  24.589  33.307  0.00  0.00     0.000 A 
ATOM     15  C   UNL d   1     -53.420  23.806  33.433  0.00  0.00     0.000 A 
ATOM     16  C   UNL d   1     -52.626  23.632  33.571  0.00  0.00     0.000 A 
ATOM     17  C   UNL d   1     -53.987  23.188  33.420  0.00  0.00     0.000 C 
ATOM     18  C   UNL d   1     -52.070  24.237  33.584  0.00  0.00     0.002 A 
ENDBRANCH   2  12
TORSDOF 1
ENDMDL
