MODEL 1
REMARK VINA RESULT:      -3.0      0.000      0.000
REMARK  2 active torsions:
REMARK  status: ('A' for Active; 'I' for Inactive)
REMARK    1  A    between atoms: C_6  and  C_1 
REMARK    2  A    between atoms: C_7  and  C_5 
ROOT
ATOM      1  C   UNL d   1      32.844  23.085 -17.408  0.00  0.00     0.169 A 
ATOM      2  C   UNL d   1      33.241  22.554 -17.907  0.00  0.00     0.048 A 
ATOM      3  N   UNL d   1      32.243  23.697 -18.534  0.00  0.00    -0.148 NA
ATOM      4  N   UNL d   1      32.344  23.659 -17.720  0.00  0.00    -0.142 NA
ATOM      5  C   UNL d   1      32.636  23.170 -19.033  0.00  0.00     0.105 A 
ENDROOT
BRANCH   5   6
ATOM      6  C   UNL d   1      32.668  23.049 -19.847  0.00  0.00     0.019 A 
ATOM      7  C   UNL d   1      32.612  22.282 -20.146  0.00  0.00     0.002 A 
ATOM      8  C   UNL d   1      32.643  22.160 -20.960  0.00  0.00     0.000 A 
ATOM      9  C   UNL d   1      32.585  21.364 -21.277  0.00  0.00     0.000 C 
ATOM     10  C   UNL d   1      32.731  22.805 -21.474  0.00  0.00     0.000 A 
ATOM     11  C   UNL d   1      32.786  23.567 -21.167  0.00  0.00     0.000 A 
ATOM     12  C   UNL d   1      32.762  22.680 -22.290  0.00  0.00     0.000 C 
ATOM     13  C   UNL d   1      32.755  23.691 -20.358  0.00  0.00     0.002 A 
ENDBRANCH   5   6
BRANCH   1  14
ATOM     14  C   UNL d   1      32.954  23.035 -16.590  0.00  0.00     0.231 C 
ATOM     15  O   UNL d   1      32.834  23.700 -16.121  0.00  0.00    -0.643 OA
ATOM     16  O   UNL d   1      33.182  22.326 -16.248  0.00  0.00    -0.643 OA
ENDBRANCH   1  14
TORSDOF 2
ENDMDL
MODEL 2
REMARK VINA RESULT:      -2.7      3.551      4.752
REMARK  2 active torsions:
REMARK  status: ('A' for Active; 'I' for Inactive)
REMARK    1  A    between atoms: C_6  and  C_1 
REMARK    2  A    between atoms: C_7  and  C_5 
ROOT
ATOM      1  C   UNL d   1      33.092  19.545 -22.475  0.00  0.00     0.169 A 
ATOM      2  C   UNL d   1      33.137  19.582 -21.647  0.00  0.00     0.048 A 
ATOM      3  N   UNL d   1      32.878  20.943 -22.527  0.00  0.00    -0.148 NA
ATOM      4  N   UNL d   1      32.962  20.227 -22.918  0.00  0.00    -0.142 NA
ATOM      5  C   UNL d   1      32.922  20.983 -21.704  0.00  0.00     0.105 A 
ENDROOT
BRANCH   5   6
ATOM      6  C   UNL d   1      32.865  21.584 -21.143  0.00  0.00     0.019 A 
ATOM      7  C   UNL d   1      32.431  22.264 -21.318  0.00  0.00     0.002 A 
ATOM      8  C   UNL d   1      32.374  22.865 -20.759  0.00  0.00     0.000 A 
ATOM      9  C   UNL d   1      31.924  23.574 -20.936  0.00  0.00     0.000 C 
ATOM     10  C   UNL d   1      32.752  22.786 -20.024  0.00  0.00     0.000 A 
ATOM     11  C   UNL d   1      33.183  22.105 -19.858  0.00  0.00     0.000 A 
ATOM     12  C   UNL d   1      32.693  23.391 -19.465  0.00  0.00     0.000 C 
ATOM     13  C   UNL d   1      33.241  21.505 -20.413  0.00  0.00     0.002 A 
ENDBRANCH   5   6
BRANCH   1  14
ATOM     14  C   UNL d   1      33.178  18.816 -22.857  0.00  0.00     0.231 C 
ATOM     15  O   UNL d   1      33.202  18.785 -23.678  0.00  0.00    -0.643 OA
ATOM     16  O   UNL d   1      33.241  18.127 -22.417  0.00  0.00    -0.643 OA
ENDBRANCH   1  14
TORSDOF 2
ENDMDL
MODEL 3
REMARK VINA RESULT:      -2.6      5.167      6.558
REMARK  2 active torsions:
REMARK  status: ('A' for Active; 'I' for Inactive)
REMARK    1  A    between atoms: C_6  and  C_1 
REMARK    2  A    between atoms: C_7  and  C_5 
ROOT
ATOM      1  C   UNL d   1      32.253  17.297 -23.687  0.00  0.00     0.169 A 
ATOM      2  C   UNL d   1      31.831  18.007 -23.777  0.00  0.00     0.048 A 
ATOM      3  N   UNL d   1      33.230  17.973 -22.919  0.00  0.00    -0.148 NA
ATOM      4  N   UNL d   1      32.954  17.278 -23.257  0.00  0.00    -0.142 NA
ATOM      5  C   UNL d   1      32.814  18.680 -23.006  0.00  0.00     0.105 A 
ENDROOT
BRANCH   5   6
ATOM      6  C   UNL d   1      32.920  19.457 -22.753  0.00  0.00     0.019 A 
ATOM      7  C   UNL d   1      32.867  19.634 -21.949  0.00  0.00     0.002 A 
ATOM      8  C   UNL d   1      32.973  20.409 -21.696  0.00  0.00     0.000 A 
ATOM      9  C   UNL d   1      32.918  20.599 -20.860  0.00  0.00     0.000 C 
ATOM     10  C   UNL d   1      33.133  21.009 -22.247  0.00  0.00     0.000 A 
ATOM     11  C   UNL d   1      33.185  20.823 -23.047  0.00  0.00     0.000 A 
ATOM     12  C   UNL d   1      33.240  21.787 -21.990  0.00  0.00     0.000 C 
ATOM     13  C   UNL d   1      33.080  20.052 -23.302  0.00  0.00     0.002 A 
ENDBRANCH   5   6
BRANCH   1  14
ATOM     14  C   UNL d   1      31.963  16.604 -24.033  0.00  0.00     0.231 C 
ATOM     15  O   UNL d   1      31.437  16.129 -23.617  0.00  0.00    -0.643 OA
ATOM     16  O   UNL d   1      32.199  16.392 -24.789  0.00  0.00    -0.643 OA
ENDBRANCH   1  14
TORSDOF 2
ENDMDL
MODEL 4
REMARK VINA RESULT:      -2.5      7.453      8.680
REMARK  2 active torsions:
REMARK  status: ('A' for Active; 'I' for Inactive)
REMARK    1  A    between atoms: C_6  and  C_1 
REMARK    2  A    between atoms: C_7  and  C_5 
ROOT
ATOM      1  C   UNL d   1      31.973  17.676 -24.419  0.00  0.00     0.169 A 
ATOM      2  C   UNL d   1      31.754  17.130 -23.833  0.00  0.00     0.048 A 
ATOM      3  N   UNL d   1      30.668  17.619 -24.963  0.00  0.00    -0.148 NA
ATOM      4  N   UNL d   1      31.430  17.922 -24.986  0.00  0.00    -0.142 NA
ATOM      5  C   UNL d   1      30.446  17.076 -24.381  0.00  0.00     0.105 A 
ENDROOT
BRANCH   5   6
ATOM      6  C   UNL d   1      29.755  16.669 -24.193  0.00  0.00     0.019 A 
ATOM      7  C   UNL d   1      29.137  17.069 -23.821  0.00  0.00     0.002 A 
ATOM      8  C   UNL d   1      28.446  16.663 -23.633  0.00  0.00     0.000 A 
ATOM      9  C   UNL d   1      27.799  17.074 -23.246  0.00  0.00     0.000 C 
ATOM     10  C   UNL d   1      28.373  15.857 -23.817  0.00  0.00     0.000 A 
ATOM     11  C   UNL d   1      28.996  15.467 -24.188  0.00  0.00     0.000 A 
ATOM     12  C   UNL d   1      27.679  15.453 -23.628  0.00  0.00     0.000 C 
ATOM     13  C   UNL d   1      29.684  15.868 -24.377  0.00  0.00     0.002 A 
ENDBRANCH   5   6
BRANCH   1  14
ATOM     14  C   UNL d   1      32.745  17.973 -24.431  0.00  0.00     0.231 C 
ATOM     15  O   UNL d   1      33.025  18.406 -23.791  0.00  0.00    -0.643 OA
ATOM     16  O   UNL d   1      33.228  17.837 -25.078  0.00  0.00    -0.643 OA
ENDBRANCH   1  14
TORSDOF 2
ENDMDL
MODEL 5
REMARK VINA RESULT:      -1.8      4.406      5.735
REMARK  2 active torsions:
REMARK  status: ('A' for Active; 'I' for Inactive)
REMARK    1  A    between atoms: C_6  and  C_1 
REMARK    2  A    between atoms: C_7  and  C_5 
ROOT
ATOM      1  C   UNL d   1      33.050  20.129 -21.662  0.00  0.00     0.169 A 
ATOM      2  C   UNL d   1      32.862  19.323 -21.594  0.00  0.00     0.048 A 
ATOM      3  N   UNL d   1      33.236  19.971 -23.056  0.00  0.00    -0.148 NA
ATOM      4  N   UNL d   1      33.238  20.456 -22.394  0.00  0.00    -0.142 NA
ATOM      5  C   UNL d   1      33.049  19.169 -22.992  0.00  0.00     0.105 A 
ENDROOT
BRANCH   5   6
ATOM      6  C   UNL d   1      32.994  18.538 -23.519  0.00  0.00     0.019 A 
ATOM      7  C   UNL d   1      33.014  17.765 -23.230  0.00  0.00     0.002 A 
ATOM      8  C   UNL d   1      32.958  17.134 -23.755  0.00  0.00     0.000 A 
ATOM      9  C   UNL d   1      32.978  16.328 -23.461  0.00  0.00     0.000 C 
ATOM     10  C   UNL d   1      32.882  17.275 -24.569  0.00  0.00     0.000 A 
ATOM     11  C   UNL d   1      32.863  18.050 -24.848  0.00  0.00     0.000 A 
ATOM     12  C   UNL d   1      32.827  16.640 -25.094  0.00  0.00     0.000 C 
ATOM     13  C   UNL d   1      32.918  18.680 -24.328  0.00  0.00     0.002 A 
ENDBRANCH   5   6
BRANCH   1  14
ATOM     14  C   UNL d   1      33.048  20.606 -20.986  0.00  0.00     0.231 C 
ATOM     15  O   UNL d   1      33.241  20.281 -20.256  0.00  0.00    -0.643 OA
ATOM     16  O   UNL d   1      32.855  21.401 -21.045  0.00  0.00    -0.643 OA
ENDBRANCH   1  14
TORSDOF 2
ENDMDL
MODEL 6
REMARK VINA RESULT:      -1.8      1.488      2.214
REMARK  2 active torsions:
REMARK  status: ('A' for Active; 'I' for Inactive)
REMARK    1  A    between atoms: C_6  and  C_1 
REMARK    2  A    between atoms: C_7  and  C_5 
ROOT
ATOM      1  C   UNL d   1      32.619  22.996 -19.342  0.00  0.00     0.169 A 
ATOM      2  C   UNL d   1      32.886  22.211 -19.393  0.00  0.00     0.048 A 
ATOM      3  N   UNL d   1      32.472  23.041 -20.748  0.00  0.00    -0.148 NA
ATOM      4  N   UNL d   1      32.411  23.413 -20.019  0.00  0.00    -0.142 NA
ATOM      5  C   UNL d   1      32.736  22.261 -20.804  0.00  0.00     0.105 A 
ENDROOT
BRANCH   5   6
ATOM      6  C   UNL d   1      32.863  21.728 -21.419  0.00  0.00     0.019 A 
ATOM      7  C   UNL d   1      32.779  20.919 -21.280  0.00  0.00     0.002 A 
ATOM      8  C   UNL d   1      32.905  20.386 -21.895  0.00  0.00     0.000 A 
ATOM      9  C   UNL d   1      32.819  19.543 -21.756  0.00  0.00     0.000 C 
ATOM     10  C   UNL d   1      33.115  20.663 -22.649  0.00  0.00     0.000 A 
ATOM     11  C   UNL d   1      33.196  21.472 -22.778  0.00  0.00     0.000 A 
ATOM     12  C   UNL d   1      33.241  20.126 -23.264  0.00  0.00     0.000 C 
ATOM     13  C   UNL d   1      33.071  22.004 -22.168  0.00  0.00     0.002 A 
ENDBRANCH   5   6
BRANCH   1  14
ATOM     14  C   UNL d   1      32.563  23.359 -18.601  0.00  0.00     0.231 C 
ATOM     15  O   UNL d   1      31.826  23.569 -18.304  0.00  0.00    -0.643 OA
ATOM     16  O   UNL d   1      33.241  23.509 -18.164  0.00  0.00    -0.643 OA
ENDBRANCH   1  14
TORSDOF 2
ENDMDL
MODEL 7
REMARK VINA RESULT:      -1.8      7.880      8.690
REMARK  2 active torsions:
REMARK  status: ('A' for Active; 'I' for Inactive)
REMARK    1  A    between atoms: C_6  and  C_1 
REMARK    2  A    between atoms: C_7  and  C_5 
ROOT
ATOM      1  C   UNL d   1      28.516  16.268 -23.291  0.00  0.00     0.169 A 
ATOM      2  C   UNL d   1      28.830  16.840 -23.804  0.00  0.00     0.048 A 
ATOM      3  N   UNL d   1      29.820  15.795 -23.013  0.00  0.00    -0.148 NA
ATOM      4  N   UNL d   1      29.010  15.744 -22.893  0.00  0.00    -0.142 NA
ATOM      5  C   UNL d   1      30.137  16.363 -23.523  0.00  0.00     0.105 A 
ENDROOT
BRANCH   5   6
ATOM      6  C   UNL d   1      30.895  16.569 -23.770  0.00  0.00     0.019 A 
ATOM      7  C   UNL d   1      31.405  15.984 -24.051  0.00  0.00     0.002 A 
ATOM      8  C   UNL d   1      32.163  16.190 -24.297  0.00  0.00     0.000 A 
ATOM      9  C   UNL d   1      32.697  15.586 -24.590  0.00  0.00     0.000 C 
ATOM     10  C   UNL d   1      32.411  16.981 -24.263  0.00  0.00     0.000 A 
ATOM     11  C   UNL d   1      31.896  17.558 -23.981  0.00  0.00     0.000 A 
ATOM     12  C   UNL d   1      33.172  17.185 -24.510  0.00  0.00     0.000 C 
ATOM     13  C   UNL d   1      31.141  17.356 -23.735  0.00  0.00     0.002 A 
ENDBRANCH   5   6
BRANCH   1  14
ATOM     14  C   UNL d   1      27.697  16.228 -23.179  0.00  0.00     0.231 C 
ATOM     15  O   UNL d   1      27.273  15.596 -23.491  0.00  0.00    -0.643 OA
ATOM     16  O   UNL d   1      27.310  16.815 -22.759  0.00  0.00    -0.643 OA
ENDBRANCH   1  14
TORSDOF 2
ENDMDL
MODEL 8
REMARK VINA RESULT:      -1.3      1.572      2.418
REMARK  2 active torsions:
REMARK  status: ('A' for Active; 'I' for Inactive)
REMARK    1  A    between atoms: C_6  and  C_1 
REMARK    2  A    between atoms: C_7  and  C_5 
ROOT
ATOM      1  C   UNL d   1      32.353  23.195 -19.800  0.00  0.00     0.169 A 
ATOM      2  C   UNL d   1      32.940  22.760 -20.193  0.00  0.00     0.048 A 
ATOM      3  N   UNL d   1      31.836  23.628 -21.044  0.00  0.00    -0.148 NA
ATOM      4  N   UNL d   1      31.799  23.631 -20.224  0.00  0.00    -0.142 NA
ATOM      5  C   UNL d   1      32.418  23.195 -21.439  0.00  0.00     0.105 A 
ENDROOT
BRANCH   5   6
ATOM      6  C   UNL d   1      32.617  23.067 -22.228  0.00  0.00     0.019 A 
ATOM      7  C   UNL d   1      32.824  22.308 -22.477  0.00  0.00     0.002 A 
ATOM      8  C   UNL d   1      33.023  22.179 -23.265  0.00  0.00     0.000 A 
ATOM      9  C   UNL d   1      33.239  21.392 -23.529  0.00  0.00     0.000 C 
ATOM     10  C   UNL d   1      33.016  22.810 -23.804  0.00  0.00     0.000 A 
ATOM     11  C   UNL d   1      32.808  23.564 -23.547  0.00  0.00     0.000 A 
ATOM     12  C   UNL d   1      33.216  22.678 -24.595  0.00  0.00     0.000 C 
ATOM     13  C   UNL d   1      32.610  23.695 -22.763  0.00  0.00     0.002 A 
ENDBRANCH   5   6
BRANCH   1  14
ATOM     14  C   UNL d   1      32.328  23.190 -18.973  0.00  0.00     0.231 C 
ATOM     15  O   UNL d   1      31.799  23.680 -18.578  0.00  0.00    -0.643 OA
ATOM     16  O   UNL d   1      32.827  22.698 -18.549  0.00  0.00    -0.643 OA
ENDBRANCH   1  14
TORSDOF 2
ENDMDL
MODEL 9
REMARK VINA RESULT:      -0.5      2.561      4.096
REMARK  2 active torsions:
REMARK  status: ('A' for Active; 'I' for Inactive)
REMARK    1  A    between atoms: C_6  and  C_1 
REMARK    2  A    between atoms: C_7  and  C_5 
ROOT
ATOM      1  C   UNL d   1      32.725  22.938 -21.467  0.00  0.00     0.169 A 
ATOM      2  C   UNL d   1      33.239  23.372 -20.980  0.00  0.00     0.048 A 
ATOM      3  N   UNL d   1      31.937  22.602 -20.342  0.00  0.00    -0.148 NA
ATOM      4  N   UNL d   1      32.072  22.551 -21.149  0.00  0.00    -0.142 NA
ATOM      5  C   UNL d   1      32.446  23.032 -19.854  0.00  0.00     0.105 A 
ENDROOT
BRANCH   5   6
ATOM      6  C   UNL d   1      32.482  23.198 -19.048  0.00  0.00     0.019 A 
ATOM      7  C   UNL d   1      31.787  23.203 -18.602  0.00  0.00     0.002 A 
ATOM      8  C   UNL d   1      31.823  23.369 -17.797  0.00  0.00     0.000 A 
ATOM      9  C   UNL d   1      31.103  23.375 -17.328  0.00  0.00     0.000 C 
ATOM     10  C   UNL d   1      32.553  23.530 -17.437  0.00  0.00     0.000 A 
ATOM     11  C   UNL d   1      33.240  23.523 -17.890  0.00  0.00     0.000 A 
ATOM     12  C   UNL d   1      32.585  23.696 -16.628  0.00  0.00     0.000 C 
ATOM     13  C   UNL d   1      33.208  23.359 -18.691  0.00  0.00     0.002 A 
ENDBRANCH   5   6
BRANCH   1  14
ATOM     14  C   UNL d   1      32.873  22.896 -22.280  0.00  0.00     0.231 C 
ATOM     15  O   UNL d   1      32.973  22.163 -22.640  0.00  0.00    -0.643 OA
ATOM     16  O   UNL d   1      32.920  23.582 -22.726  0.00  0.00    -0.643 OA
ENDBRANCH   1  14
TORSDOF 2
ENDMDL
