MODEL 1
REMARK VINA RESULT:      -2.7      0.000      0.000
REMARK  5 active torsions:
REMARK  status: ('A' for Active; 'I' for Inactive)
REMARK    1  A    between atoms: S_2  and  C_1 
REMARK    2  A    between atoms: C_9  and  S_2 
REMARK    3  A    between atoms: N_14  and  C_10 
REMARK    4  A    between atoms: C_22  and  N_14 
REMARK    5  A    between atoms: C_23  and  N_14 
ROOT
ATOM      1  C   UNL d   1      32.809  19.255 -23.270  0.00  0.00     0.151 A 
ATOM      2  C   UNL d   1      33.082  19.868 -23.750  0.00  0.00     0.311 A 
ATOM      3  C   UNL d   1      32.652  19.399 -22.467  0.00  0.00     0.019 A 
ATOM      4  O   UNL d   1      33.196  20.624 -23.428  0.00  0.00    -0.272 OA
ATOM      5  C   UNL d   1      33.039  20.763 -22.632  0.00  0.00     0.105 A 
ATOM      6  C   UNL d   1      32.767  20.150 -22.152  0.00  0.00     0.024 A 
ATOM      7  C   UNL d   1      33.154  21.515 -22.316  0.00  0.00     0.042 A 
ATOM      8  C   UNL d   1      32.997  21.654 -21.520  0.00  0.00     0.066 A 
ATOM      9  O   UNL d   1      33.239  19.726 -24.550  0.00  0.00    -0.258 OA
ATOM     10  C   UNL d   1      32.609  20.289 -21.355  0.00  0.00     0.004 A 
ATOM     11  C   UNL d   1      32.724  21.041 -21.040  0.00  0.00     0.018 A 
ENDROOT
BRANCH   1  12
ATOM     12  S   UNL d   1      32.692  18.494 -23.584  0.00  0.00     0.215 S 
ATOM     13  O   UNL d   1      32.189  18.813 -24.172  0.00  0.00    -0.217 OA
ATOM     14  O   UNL d   1      33.193  18.167 -23.000  0.00  0.00    -0.217 OA
BRANCH  12  15
ATOM     15  C   UNL d   1      32.572  17.726 -23.902  0.00  0.00     0.088 A 
ATOM     16  C   UNL d   1      33.197  17.337 -24.270  0.00  0.00     0.011 A 
ATOM     17  C   UNL d   1      33.085  16.584 -24.583  0.00  0.00     0.001 A 
ATOM     18  C   UNL d   1      32.347  16.219 -24.528  0.00  0.00     0.000 A 
ATOM     19  C   UNL d   1      31.720  16.612 -24.158  0.00  0.00     0.001 A 
ATOM     20  C   UNL d   1      32.226  15.454 -24.844  0.00  0.00     0.000 C 
ATOM     21  C   UNL d   1      31.832  17.365 -23.845  0.00  0.00     0.011 A 
ENDBRANCH  12  15
ENDBRANCH   1  12
BRANCH   8  22
ATOM     22  N   UNL d   1      33.111  22.413 -21.195  0.00  0.00    -0.304 N 
BRANCH  22  23
ATOM     23  C   UNL d   1      33.094  23.079 -21.686  0.00  0.00     0.080 C 
ATOM     24  C   UNL d   1      32.553  23.685 -21.541  0.00  0.00     0.021 C 
ENDBRANCH  22  23
BRANCH  22  25
ATOM     25  C   UNL d   1      33.241  22.493 -20.384  0.00  0.00     0.080 C 
ATOM     26  C   UNL d   1      32.811  23.046 -19.950  0.00  0.00     0.021 C 
ENDBRANCH  22  25
ENDBRANCH   8  22
TORSDOF 5
ENDMDL
MODEL 2
REMARK VINA RESULT:      -2.4      1.649      5.357
REMARK  5 active torsions:
REMARK  status: ('A' for Active; 'I' for Inactive)
REMARK    1  A    between atoms: S_2  and  C_1 
REMARK    2  A    between atoms: C_9  and  S_2 
REMARK    3  A    between atoms: N_14  and  C_10 
REMARK    4  A    between atoms: C_22  and  N_14 
REMARK    5  A    between atoms: C_23  and  N_14 
ROOT
ATOM      1  C   UNL d   1      32.866  19.874 -22.387  0.00  0.00     0.151 A 
ATOM      2  C   UNL d   1      33.036  19.215 -21.920  0.00  0.00     0.311 A 
ATOM      3  C   UNL d   1      32.662  19.773 -23.186  0.00  0.00     0.019 A 
ATOM      4  O   UNL d   1      33.001  18.455 -22.253  0.00  0.00    -0.272 OA
ATOM      5  C   UNL d   1      32.798  18.359 -23.045  0.00  0.00     0.105 A 
ATOM      6  C   UNL d   1      32.629  19.018 -23.511  0.00  0.00     0.024 A 
ATOM      7  C   UNL d   1      32.764  17.604 -23.371  0.00  0.00     0.042 A 
ATOM      8  C   UNL d   1      32.561  17.508 -24.163  0.00  0.00     0.066 A 
ATOM      9  O   UNL d   1      33.239  19.314 -21.125  0.00  0.00    -0.258 OA
ATOM     10  C   UNL d   1      32.425  18.922 -24.304  0.00  0.00     0.004 A 
ATOM     11  C   UNL d   1      32.392  18.167 -24.629  0.00  0.00     0.018 A 
ENDROOT
BRANCH   1  12
ATOM     12  S   UNL d   1      32.899  20.639 -22.062  0.00  0.00     0.215 S 
ATOM     13  O   UNL d   1      32.674  20.333 -21.316  0.00  0.00    -0.217 OA
ATOM     14  O   UNL d   1      33.124  20.952 -22.804  0.00  0.00    -0.217 OA
BRANCH  12  15
ATOM     15  C   UNL d   1      32.932  21.411 -21.733  0.00  0.00     0.088 A 
ATOM     16  C   UNL d   1      33.157  22.045 -22.207  0.00  0.00     0.011 A 
ATOM     17  C   UNL d   1      33.190  22.804 -21.889  0.00  0.00     0.001 A 
ATOM     18  C   UNL d   1      32.999  22.929 -21.097  0.00  0.00     0.000 A 
ATOM     19  C   UNL d   1      32.773  22.290 -20.621  0.00  0.00     0.001 A 
ATOM     20  C   UNL d   1      33.031  23.698 -20.768  0.00  0.00     0.000 C 
ATOM     21  C   UNL d   1      32.739  21.531 -20.940  0.00  0.00     0.011 A 
ENDBRANCH  12  15
ENDBRANCH   1  12
BRANCH   8  22
ATOM     22  N   UNL d   1      32.526  16.745 -24.499  0.00  0.00    -0.304 N 
BRANCH  22  23
ATOM     23  C   UNL d   1      33.114  16.190 -24.324  0.00  0.00     0.080 C 
ATOM     24  C   UNL d   1      33.240  15.549 -24.828  0.00  0.00     0.021 C 
ENDBRANCH  22  23
BRANCH  22  25
ATOM     25  C   UNL d   1      31.903  16.551 -25.004  0.00  0.00     0.080 C 
ATOM     26  C   UNL d   1      31.370  15.959 -24.794  0.00  0.00     0.021 C 
ENDBRANCH  22  25
ENDBRANCH   8  22
TORSDOF 5
ENDMDL
MODEL 3
REMARK VINA RESULT:      -2.1      2.358      5.840
REMARK  5 active torsions:
REMARK  status: ('A' for Active; 'I' for Inactive)
REMARK    1  A    between atoms: S_2  and  C_1 
REMARK    2  A    between atoms: C_9  and  S_2 
REMARK    3  A    between atoms: N_14  and  C_10 
REMARK    4  A    between atoms: C_22  and  N_14 
REMARK    5  A    between atoms: C_23  and  N_14 
ROOT
ATOM      1  C   UNL d   1      32.656  21.888 -20.275  0.00  0.00     0.151 A 
ATOM      2  C   UNL d   1      32.336  22.285 -20.924  0.00  0.00     0.311 A 
ATOM      3  C   UNL d   1      32.957  21.119 -20.369  0.00  0.00     0.019 A 
ATOM      4  O   UNL d   1      32.317  21.913 -21.666  0.00  0.00    -0.272 OA
ATOM      5  C   UNL d   1      32.616  21.152 -21.755  0.00  0.00     0.105 A 
ATOM      6  C   UNL d   1      32.936  20.755 -21.107  0.00  0.00     0.024 A 
ATOM      7  C   UNL d   1      32.595  20.786 -22.493  0.00  0.00     0.042 A 
ATOM      8  C   UNL d   1      32.894  20.025 -22.582  0.00  0.00     0.066 A 
ATOM      9  O   UNL d   1      32.037  23.050 -20.832  0.00  0.00    -0.258 OA
ATOM     10  C   UNL d   1      33.235  19.992 -21.195  0.00  0.00     0.004 A 
ATOM     11  C   UNL d   1      33.214  19.628 -21.933  0.00  0.00     0.018 A 
ENDROOT
BRANCH   1  12
ATOM     12  S   UNL d   1      32.679  22.252 -19.528  0.00  0.00     0.215 S 
ATOM     13  O   UNL d   1      32.199  21.643 -19.214  0.00  0.00    -0.217 OA
ATOM     14  O   UNL d   1      33.160  22.865 -19.834  0.00  0.00    -0.217 OA
BRANCH  12  15
ATOM     15  C   UNL d   1      32.703  22.620 -18.773  0.00  0.00     0.088 A 
ATOM     16  C   UNL d   1      33.174  22.300 -18.180  0.00  0.00     0.011 A 
ATOM     17  C   UNL d   1      33.200  22.657 -17.438  0.00  0.00     0.001 A 
ATOM     18  C   UNL d   1      32.754  23.335 -17.290  0.00  0.00     0.000 A 
ATOM     19  C   UNL d   1      32.280  23.656 -17.888  0.00  0.00     0.001 A 
ATOM     20  C   UNL d   1      32.776  23.702 -16.539  0.00  0.00     0.000 C 
ATOM     21  C   UNL d   1      32.255  23.298 -18.630  0.00  0.00     0.011 A 
ENDBRANCH  12  15
ENDBRANCH   1  12
BRANCH   8  22
ATOM     22  N   UNL d   1      32.876  19.650 -23.326  0.00  0.00    -0.304 N 
BRANCH  22  23
ATOM     23  C   UNL d   1      32.526  18.903 -23.403  0.00  0.00     0.080 C 
ATOM     24  C   UNL d   1      32.935  18.293 -23.780  0.00  0.00     0.021 C 
ENDBRANCH  22  23
BRANCH  22  25
ATOM     25  C   UNL d   1      33.207  20.027 -23.981  0.00  0.00     0.080 C 
ATOM     26  C   UNL d   1      32.895  19.899 -24.733  0.00  0.00     0.021 C 
ENDBRANCH  22  25
ENDBRANCH   8  22
TORSDOF 5
ENDMDL
