MODEL 1
REMARK VINA RESULT:      22.0      0.000      0.000
REMARK  5 active torsions:
REMARK  status: ('A' for Active; 'I' for Inactive)
REMARK    1  A    between atoms: C_2  and  S_1 
REMARK    2  A    between atoms: N_3  and  S_1 
REMARK    3  A    between atoms: C_14  and  N_3 
REMARK    4  A    between atoms: C_15  and  C_14 
REMARK    5  A    between atoms: O_18  and  C_16 
ROOT
ATOM      1  S   UNL d   1      13.654  12.048  -1.123  0.00  0.00     0.285 S 
ATOM      2  O   UNL d   1      12.885  11.781  -1.256  0.00  0.00    -0.198 OA
ATOM      3  O   UNL d   1      13.514  12.053  -0.319  0.00  0.00    -0.198 OA
ENDROOT
BRANCH   1   4
ATOM      4  C   UNL d   1      14.424  12.315  -0.999  0.00  0.00     0.107 A 
ATOM      5  C   UNL d   1      14.561  13.046  -0.637  0.00  0.00     0.037 A 
ATOM      6  C   UNL d   1      15.335  13.306  -0.516  0.00  0.00     0.095 A 
ATOM      7  C   UNL d   1      15.971  12.836  -0.758  0.00  0.00     0.024 A 
ATOM      8  C   UNL d   1      15.832  12.109  -1.119  0.00  0.00     0.003 A 
ATOM      9  C   UNL d   1      15.059  11.848  -1.239  0.00  0.00     0.013 A 
BRANCH   6  10
ATOM     10  O   UNL d   1      15.474  14.033  -0.156  0.00  0.00    -0.328 OA
ATOM     11  C   UNL d   1      16.247  14.285  -0.019  0.00  0.00     0.181 C 
ENDBRANCH   6  10
ENDBRANCH   1   4
BRANCH   1  12
ATOM     12  N   UNL d   1      13.792  12.041  -1.937  0.00  0.00    -0.157 NA
BRANCH  12  13
ATOM     13  C   UNL d   1      13.172  11.847  -2.457  0.00  0.00     0.112 C 
BRANCH  13  14
ATOM     14  C   UNL d   1      13.118  12.222  -3.190  0.00  0.00     0.022 A 
ATOM     15  C   UNL d   1      12.993  13.036  -3.222  0.00  0.00     0.028 A 
ATOM     16  C   UNL d   1      12.939  13.411  -3.954  0.00  0.00     0.119 A 
ATOM     17  O   UNL d   1      12.818  14.199  -4.157  0.00  0.00    -0.300 OA
ATOM     18  C   UNL d   1      13.009  12.980  -4.654  0.00  0.00     0.119 A 
ATOM     19  C   UNL d   1      12.813  14.260  -4.981  0.00  0.00     0.304 A 
ATOM     20  O   UNL d   1      12.933  13.494  -5.279  0.00  0.00    -0.300 OA
ATOM     21  C   UNL d   1      13.135  12.161  -4.613  0.00  0.00     0.026 A 
ATOM     22  C   UNL d   1      13.190  11.780  -3.883  0.00  0.00     0.004 A 
ENDBRANCH  13  14
ENDBRANCH  12  13
ENDBRANCH   1  12
TORSDOF 5
ENDMDL
MODEL 2
REMARK VINA RESULT:      24.3      1.486      3.834
REMARK  5 active torsions:
REMARK  status: ('A' for Active; 'I' for Inactive)
REMARK    1  A    between atoms: C_2  and  S_1 
REMARK    2  A    between atoms: N_3  and  S_1 
REMARK    3  A    between atoms: C_14  and  N_3 
REMARK    4  A    between atoms: C_15  and  C_14 
REMARK    5  A    between atoms: O_18  and  C_16 
ROOT
ATOM      1  S   UNL d   1      13.354  12.618  -4.307  0.00  0.00     0.285 S 
ATOM      2  O   UNL d   1      13.344  11.795  -4.361  0.00  0.00    -0.198 OA
ATOM      3  O   UNL d   1      13.551  12.667  -5.098  0.00  0.00    -0.198 OA
ENDROOT
BRANCH   1   4
ATOM      4  C   UNL d   1      13.361  13.440  -4.246  0.00  0.00     0.107 A 
ATOM      5  C   UNL d   1      13.951  13.823  -3.811  0.00  0.00     0.037 A 
ATOM      6  C   UNL d   1      13.952  14.646  -3.754  0.00  0.00     0.095 A 
ATOM      7  C   UNL d   1      13.362  15.087  -4.131  0.00  0.00     0.024 A 
ATOM      8  C   UNL d   1      12.775  14.703  -4.564  0.00  0.00     0.003 A 
ATOM      9  C   UNL d   1      12.774  13.880  -4.621  0.00  0.00     0.013 A 
BRANCH   6  10
ATOM     10  O   UNL d   1      14.538  15.030  -3.322  0.00  0.00    -0.328 OA
ATOM     11  C   UNL d   1      14.389  15.769  -2.987  0.00  0.00     0.181 C 
ENDBRANCH   6  10
ENDBRANCH   1   4
BRANCH   1  12
ATOM     12  N   UNL d   1      13.155  12.564  -3.508  0.00  0.00    -0.157 NA
BRANCH  12  13
ATOM     13  C   UNL d   1      13.276  11.848  -3.102  0.00  0.00     0.112 C 
BRANCH  13  14
ATOM     14  C   UNL d   1      13.519  11.859  -2.314  0.00  0.00     0.022 A 
ATOM     15  C   UNL d   1      14.320  11.945  -2.137  0.00  0.00     0.028 A 
ATOM     16  C   UNL d   1      14.564  11.955  -1.350  0.00  0.00     0.119 A 
ATOM     17  O   UNL d   1      15.309  12.031  -1.010  0.00  0.00    -0.300 OA
ATOM     18  C   UNL d   1      14.016  11.881  -0.738  0.00  0.00     0.119 A 
ATOM     19  C   UNL d   1      15.226  12.005  -0.188  0.00  0.00     0.304 A 
ATOM     20  O   UNL d   1      14.416  11.911  -0.032  0.00  0.00    -0.300 OA
ATOM     21  C   UNL d   1      13.211  11.795  -0.924  0.00  0.00     0.026 A 
ATOM     22  C   UNL d   1      12.961  11.784  -1.711  0.00  0.00     0.004 A 
ENDBRANCH  13  14
ENDBRANCH  12  13
ENDBRANCH   1  12
TORSDOF 5
ENDMDL
