MODEL 1
REMARK VINA RESULT:      -2.6      0.000      0.000
REMARK  4 active torsions:
REMARK  status: ('A' for Active; 'I' for Inactive)
REMARK    1  A    between atoms: N_5  and  C_9 
REMARK    2  A    between atoms: O_11  and  C_8 
REMARK    3  A    between atoms: C_20  and  O_11 
REMARK    4  A    between atoms: C_21  and  C_20 
ROOT
ATOM      1  C   UNL d   1      30.726  17.074 -24.321  0.00  0.00     0.009 A 
ATOM      2  C   UNL d   1      31.340  16.678 -23.946  0.00  0.00     0.046 A 
ATOM      3  C   UNL d   1      30.028  16.688 -24.500  0.00  0.00     0.064 A 
ATOM      4  C   UNL d   1      29.939  15.894 -24.303  0.00  0.00     0.300 A 
ATOM      5  C   UNL d   1      31.263  15.884 -23.744  0.00  0.00     0.105 A 
ATOM      6  O   UNL d   1      30.548  15.490 -23.927  0.00  0.00    -0.273 OA
ATOM      7  C   UNL d   1      32.048  17.077 -23.766  0.00  0.00     0.102 A 
ATOM      8  C   UNL d   1      31.868  15.480 -23.370  0.00  0.00     0.025 A 
ATOM      9  C   UNL d   1      32.668  16.668 -23.384  0.00  0.00     0.025 A 
ATOM     10  O   UNL d   1      29.231  15.488 -24.481  0.00  0.00    -0.259 OA
ATOM     11  C   UNL d   1      32.571  15.874 -23.191  0.00  0.00     0.004 A 
ATOM     12  C   UNL d   1      30.816  17.872 -24.519  0.00  0.00     0.000 A 
ATOM     13  C   UNL d   1      29.410  17.084 -24.877  0.00  0.00     0.005 A 
ATOM     14  C   UNL d   1      33.192  15.470 -22.810  0.00  0.00     0.000 C 
ATOM     15  C   UNL d   1      30.208  18.284 -24.896  0.00  0.00     0.000 A 
ATOM     16  C   UNL d   1      29.500  17.881 -25.075  0.00  0.00     0.000 A 
ENDROOT
BRANCH   7  17
ATOM     17  O   UNL d   1      32.132  17.862 -23.962  0.00  0.00    -0.305 OA
BRANCH  17  18
ATOM     18  C   UNL d   1      32.886  18.216 -23.955  0.00  0.00     0.122 C 
BRANCH  18  19
ATOM     19  C   UNL d   1      32.957  19.009 -23.749  0.00  0.00     0.025 A 
ATOM     20  C   UNL d   1      32.934  19.231 -22.955  0.00  0.00     0.004 A 
ATOM     21  C   UNL d   1      33.004  20.017 -22.739  0.00  0.00     0.024 A 
ATOM     22  C   UNL d   1      33.098  20.593 -23.320  0.00  0.00     0.127 A 
ATOM     23  C   UNL d   1      33.123  20.386 -24.118  0.00  0.00     0.024 A 
ATOM     24  C   UNL d   1      33.051  19.581 -24.334  0.00  0.00     0.004 A 
BRANCH  22  25
ATOM     25  N   UNL d   1      33.169  21.388 -23.113  0.00  0.00    -0.114 N 
ATOM     26  O   UNL d   1      33.240  21.611 -22.329  0.00  0.00    -0.532 OA
ATOM     27  O   UNL d   1      33.169  21.961 -23.708  0.00  0.00    -0.532 OA
ENDBRANCH  22  25
ENDBRANCH  18  19
ENDBRANCH  17  18
ENDBRANCH   7  17
TORSDOF 4
ENDMDL
