MODEL 1
REMARK VINA RESULT:      38.8      0.000      0.000
REMARK  3 active torsions:
REMARK  status: ('A' for Active; 'I' for Inactive)
REMARK    1  A    between atoms: C_7  and  C_4 
REMARK    2  A    between atoms: C_8  and  C_7 
REMARK    3  A    between atoms: C_11  and  C_8 
ROOT
ATOM      1  N   UNL d   1     -55.220-100.078 -45.003  0.00  0.00    -0.269 N 
ATOM      2  C   UNL d   1     -55.729 -99.441 -44.881  0.00  0.00     0.282 A 
ATOM      3  N   UNL d   1     -56.392-100.172 -43.854  0.00  0.00    -0.239 NA
ATOM      4  C   UNL d   1     -56.314 -99.488 -44.308  0.00  0.00     0.138 A 
ATOM      5  C   UNL d   1     -55.298-100.762 -44.549  0.00  0.00     0.085 A 
ATOM      6  C   UNL d   1     -55.883-100.808 -43.976  0.00  0.00     0.098 A 
ATOM      7  O   UNL d   1     -55.651 -98.756 -45.335  0.00  0.00    -0.265 OA
ATOM      8  C   UNL d   1     -54.822 -99.500 -45.696  0.00  0.00     0.102 C 
ATOM      9  C   UNL d   1     -54.788-101.399 -44.671  0.00  0.00     0.019 A 
ATOM     10  C   UNL d   1     -55.960-101.493 -43.522  0.00  0.00     0.021 A 
ATOM     11  C   UNL d   1     -54.883-102.031 -44.231  0.00  0.00     0.002 A 
ATOM     12  C   UNL d   1     -55.468-102.078 -43.658  0.00  0.00     0.002 A 
ENDROOT
BRANCH   4  13
ATOM     13  C   UNL d   1     -56.823 -98.851 -44.186  0.00  0.00     0.024 C 
BRANCH  13  14
ATOM     14  C   UNL d   1     -57.512 -98.781 -44.634  0.00  0.00     0.002 C 
BRANCH  14  15
ATOM     15  C   UNL d   1     -58.249 -98.875 -44.276  0.00  0.00     0.000 A 
ATOM     16  C   UNL d   1     -58.918 -99.019 -44.739  0.00  0.00     0.000 A 
ATOM     17  C   UNL d   1     -59.654 -99.113 -44.382  0.00  0.00     0.000 A 
ATOM     18  C   UNL d   1     -59.725 -99.064 -43.561  0.00  0.00     0.000 A 
ATOM     19  C   UNL d   1     -59.056 -98.921 -43.097  0.00  0.00     0.000 A 
ATOM     20  C   UNL d   1     -58.319 -98.826 -43.456  0.00  0.00     0.000 A 
ENDBRANCH  14  15
ENDBRANCH  13  14
ENDBRANCH   4  13
TORSDOF 3
ENDMDL
