MODEL 1
REMARK VINA RESULT:      -6.1      0.000      0.000
REMARK  2 active torsions:
REMARK  status: ('A' for Active; 'I' for Inactive)
REMARK    1  A    between atoms: CA_2  and  C_1 
REMARK    2  A    between atoms: C_3  and  CA_2 
ROOT
ATOM      1  C   UNL d   1     -47.772  12.935  22.725  0.00  0.00     0.053 A 
ATOM      2  C   UNL d   1     -48.265  12.965  22.057  0.00  0.00     0.142 A 
ATOM      3  F   UNL d   1     -48.190  13.587  21.520  0.00  0.00    -0.204 F 
ATOM      4  C   UNL d   1     -47.848  12.307  23.267  0.00  0.00     0.004 A 
ATOM      5  C   UNL d   1     -48.827  12.371  21.936  0.00  0.00     0.030 A 
ATOM      6  C   UNL d   1     -48.416  11.715  23.136  0.00  0.00     0.000 A 
ATOM      7  C   UNL d   1     -48.902  11.749  22.473  0.00  0.00     0.002 A 
ENDROOT
BRANCH   1   8
ATOM      8  CA  UNL d   1     -47.211  13.523  22.851  0.00  0.00     0.169 C 
ATOM      9  N   UNL d   1     -47.440  14.315  22.886  0.00  0.00    -0.142 N 
BRANCH   8  10
ATOM     10  C   UNL d   1     -46.417  13.317  22.941  0.00  0.00     0.231 C 
ATOM     11  O   UNL d   1     -45.934  13.211  22.283  0.00  0.00    -0.643 OA
ATOM     12  OXT UNL d   1     -46.103  13.215  23.698  0.00  0.00    -0.643 OA
ENDBRANCH   8  10
ENDBRANCH   1   8
TORSDOF 2
ENDMDL
MODEL 2
REMARK VINA RESULT:      -6.0      1.664      2.293
REMARK  2 active torsions:
REMARK  status: ('A' for Active; 'I' for Inactive)
REMARK    1  A    between atoms: CA_2  and  C_1 
REMARK    2  A    between atoms: C_3  and  CA_2 
ROOT
ATOM      1  C   UNL d   1     -47.860  12.827  23.171  0.00  0.00     0.053 A 
ATOM      2  C   UNL d   1     -47.904  13.584  22.830  0.00  0.00     0.142 A 
ATOM      3  F   UNL d   1     -48.635  13.884  22.590  0.00  0.00    -0.204 F 
ATOM      4  C   UNL d   1     -47.123  12.525  23.413  0.00  0.00     0.004 A 
ATOM      5  C   UNL d   1     -47.215  14.030  22.735  0.00  0.00     0.030 A 
ATOM      6  C   UNL d   1     -46.436  12.982  23.313  0.00  0.00     0.000 A 
ATOM      7  C   UNL d   1     -46.484  13.731  22.975  0.00  0.00     0.002 A 
ENDROOT
BRANCH   1   8
ATOM      8  CA  UNL d   1     -48.543  12.378  23.269  0.00  0.00     0.169 C 
ATOM      9  N   UNL d   1     -49.223  12.720  23.588  0.00  0.00    -0.142 N 
BRANCH   8  10
ATOM     10  C   UNL d   1     -48.543  11.584  23.045  0.00  0.00     0.231 C 
ATOM     11  O   UNL d   1     -48.684  11.369  22.264  0.00  0.00    -0.643 OA
ATOM     12  OXT UNL d   1     -48.400  10.999  23.611  0.00  0.00    -0.643 OA
ENDBRANCH   8  10
ENDBRANCH   1   8
TORSDOF 2
ENDMDL
MODEL 3
REMARK VINA RESULT:      -5.8      1.802      2.537
REMARK  2 active torsions:
REMARK  status: ('A' for Active; 'I' for Inactive)
REMARK    1  A    between atoms: CA_2  and  C_1 
REMARK    2  A    between atoms: C_3  and  CA_2 
ROOT
ATOM      1  C   UNL d   1     -47.782  13.217  22.651  0.00  0.00     0.053 A 
ATOM      2  C   UNL d   1     -47.277  12.652  22.991  0.00  0.00     0.142 A 
ATOM      3  F   UNL d   1     -47.522  11.866  23.051  0.00  0.00    -0.204 F 
ATOM      4  C   UNL d   1     -47.535  14.010  22.590  0.00  0.00     0.004 A 
ATOM      5  C   UNL d   1     -46.532  12.882  23.266  0.00  0.00     0.030 A 
ATOM      6  C   UNL d   1     -46.784  14.231  22.870  0.00  0.00     0.000 A 
ATOM      7  C   UNL d   1     -46.287  13.668  23.206  0.00  0.00     0.002 A 
ENDROOT
BRANCH   1   8
ATOM      8  CA  UNL d   1     -48.525  12.994  22.376  0.00  0.00     0.169 C 
ATOM      9  N   UNL d   1     -49.060  12.619  22.879  0.00  0.00    -0.142 N 
BRANCH   8  10
ATOM     10  C   UNL d   1     -48.732  13.148  21.592  0.00  0.00     0.231 C 
ATOM     11  O   UNL d   1     -48.473  12.655  20.986  0.00  0.00    -0.643 OA
ATOM     12  OXT UNL d   1     -49.202  13.803  21.413  0.00  0.00    -0.643 OA
ENDBRANCH   8  10
ENDBRANCH   1   8
TORSDOF 2
ENDMDL
