MODEL 1
REMARK VINA RESULT:      -4.2      0.000      0.000
REMARK  6 active torsions:
REMARK  status: ('A' for Active; 'I' for Inactive)
REMARK    1  A    between atoms: C_3  and  C_4 
REMARK    2  A    between atoms: C_9  and  O_18 
REMARK    3  A    between atoms: O_17  and  C_10 
REMARK    4  A    between atoms: C_21  and  O_17 
REMARK    5  A    between atoms: O_18  and  C_20 
REMARK    6  A    between atoms: C_20  and  C_21 
ROOT
ATOM      1  N   UNL d   1      54.690  -0.071  33.925  0.00  0.00    -0.191 NA
ATOM      2  C   UNL d   1      55.291  -0.026  33.392  0.00  0.00     0.101 C 
ATOM      3  C   UNL d   1      55.905   0.021  32.849  0.00  0.00     0.068 A 
ATOM      4  C   UNL d   1      57.136   0.115  31.759  0.00  0.00     0.100 A 
ATOM      5  C   UNL d   1      56.503  -0.542  32.855  0.00  0.00     0.012 A 
ATOM      6  C   UNL d   1      55.920   0.635  32.297  0.00  0.00     0.012 A 
ATOM      7  C   UNL d   1      56.536   0.682  31.751  0.00  0.00     0.025 A 
ATOM      8  C   UNL d   1      57.120  -0.495  32.309  0.00  0.00     0.025 A 
ENDROOT
BRANCH   4   9
ATOM      9  O   UNL d   1      57.756   0.162  31.210  0.00  0.00    -0.303 OA
BRANCH   9  10
ATOM     10  C   UNL d   1      57.699  -0.239  30.491  0.00  0.00     0.149 C 
BRANCH  10  11
ATOM     11  C   UNL d   1      58.370  -0.339  30.023  0.00  0.00     0.149 C 
BRANCH  11  12
ATOM     12  O   UNL d   1      58.332  -0.786  29.325  0.00  0.00    -0.303 OA
BRANCH  12  13
ATOM     13  C   UNL d   1      58.840  -1.451  29.216  0.00  0.00     0.100 A 
ATOM     14  C   UNL d   1      59.654  -1.339  29.143  0.00  0.00     0.025 A 
ATOM     15  C   UNL d   1      60.151  -1.989  29.037  0.00  0.00     0.005 A 
ATOM     16  C   UNL d   1      59.831  -2.750  29.004  0.00  0.00     0.039 A 
ATOM     17  C   UNL d   1      59.023  -2.856  29.077  0.00  0.00     0.005 A 
ATOM     18  C   UNL d   1      58.527  -2.206  29.183  0.00  0.00     0.025 A 
BRANCH  16  19
ATOM     19  C   UNL d   1      60.329  -3.403  28.897  0.00  0.00     0.196 C 
ATOM     20  O   UNL d   1      60.026  -4.110  28.622  0.00  0.00    -0.287 OA
ATOM     21  C   UNL d   1      61.133  -3.338  29.070  0.00  0.00     0.045 C 
ENDBRANCH  16  19
ENDBRANCH  12  13
ENDBRANCH  11  12
ENDBRANCH  10  11
ENDBRANCH   9  10
ENDBRANCH   4   9
TORSDOF 6
ENDMDL
MODEL 2
REMARK VINA RESULT:      -4.1      1.687      2.218
REMARK  6 active torsions:
REMARK  status: ('A' for Active; 'I' for Inactive)
REMARK    1  A    between atoms: C_3  and  C_4 
REMARK    2  A    between atoms: C_9  and  O_18 
REMARK    3  A    between atoms: O_17  and  C_10 
REMARK    4  A    between atoms: C_21  and  O_17 
REMARK    5  A    between atoms: O_18  and  C_20 
REMARK    6  A    between atoms: C_20  and  C_21 
ROOT
ATOM      1  N   UNL d   1      55.164   0.682  36.028  0.00  0.00    -0.191 NA
ATOM      2  C   UNL d   1      55.389   0.571  35.263  0.00  0.00     0.101 C 
ATOM      3  C   UNL d   1      55.618   0.457  34.483  0.00  0.00     0.068 A 
ATOM      4  C   UNL d   1      56.078   0.230  32.918  0.00  0.00     0.100 A 
ATOM      5  C   UNL d   1      56.390   0.618  34.254  0.00  0.00     0.012 A 
ATOM      6  C   UNL d   1      55.071   0.182  33.930  0.00  0.00     0.012 A 
ATOM      7  C   UNL d   1      55.301   0.068  33.146  0.00  0.00     0.025 A 
ATOM      8  C   UNL d   1      56.620   0.505  33.470  0.00  0.00     0.025 A 
ENDROOT
BRANCH   4   9
ATOM      9  O   UNL d   1      56.309   0.116  32.130  0.00  0.00    -0.303 OA
BRANCH   9  10
ATOM     10  C   UNL d   1      57.015   0.445  31.858  0.00  0.00     0.149 C 
BRANCH  10  11
ATOM     11  C   UNL d   1      57.362   0.157  31.168  0.00  0.00     0.149 C 
BRANCH  11  12
ATOM     12  O   UNL d   1      57.788   0.666  30.669  0.00  0.00    -0.303 OA
BRANCH  12  13
ATOM     13  C   UNL d   1      58.459   0.382  30.243  0.00  0.00     0.100 A 
ATOM     14  C   UNL d   1      59.216   0.641  30.448  0.00  0.00     0.025 A 
ATOM     15  C   UNL d   1      59.872   0.363  30.032  0.00  0.00     0.005 A 
ATOM     16  C   UNL d   1      59.769  -0.173  29.412  0.00  0.00     0.039 A 
ATOM     17  C   UNL d   1      59.018  -0.427  29.213  0.00  0.00     0.005 A 
ATOM     18  C   UNL d   1      58.362  -0.149  29.629  0.00  0.00     0.025 A 
BRANCH  16  19
ATOM     19  C   UNL d   1      60.428  -0.452  28.994  0.00  0.00     0.196 C 
ATOM     20  O   UNL d   1      60.447  -1.224  28.727  0.00  0.00    -0.287 OA
ATOM     21  C   UNL d   1      61.064   0.052  28.848  0.00  0.00     0.045 C 
ENDBRANCH  16  19
ENDBRANCH  12  13
ENDBRANCH  11  12
ENDBRANCH  10  11
ENDBRANCH   9  10
ENDBRANCH   4   9
TORSDOF 6
ENDMDL
MODEL 3
REMARK VINA RESULT:      -1.9      8.380      9.488
REMARK  6 active torsions:
REMARK  status: ('A' for Active; 'I' for Inactive)
REMARK    1  A    between atoms: C_3  and  C_4 
REMARK    2  A    between atoms: C_9  and  O_18 
REMARK    3  A    between atoms: O_17  and  C_10 
REMARK    4  A    between atoms: C_21  and  O_17 
REMARK    5  A    between atoms: O_18  and  C_20 
REMARK    6  A    between atoms: C_20  and  C_21 
ROOT
ATOM      1  N   UNL d   1      55.975  -9.748  28.742  0.00  0.00    -0.191 NA
ATOM      2  C   UNL d   1      56.502  -9.683  29.347  0.00  0.00     0.101 C 
ATOM      3  C   UNL d   1      57.040  -9.617  29.964  0.00  0.00     0.068 A 
ATOM      4  C   UNL d   1      58.118  -9.483  31.202  0.00  0.00     0.100 A 
ATOM      5  C   UNL d   1      56.779  -9.653  30.742  0.00  0.00     0.012 A 
ATOM      6  C   UNL d   1      57.842  -9.514  29.800  0.00  0.00     0.012 A 
ATOM      7  C   UNL d   1      58.383  -9.447  30.420  0.00  0.00     0.025 A 
ATOM      8  C   UNL d   1      57.320  -9.586  31.362  0.00  0.00     0.025 A 
ENDROOT
BRANCH   4   9
ATOM      9  O   UNL d   1      58.661  -9.416  31.824  0.00  0.00    -0.303 OA
BRANCH   9  10
ATOM     10  C   UNL d   1      58.522  -9.813  32.534  0.00  0.00     0.149 C 
BRANCH  10  11
ATOM     11  C   UNL d   1      59.085  -9.785  33.137  0.00  0.00     0.149 C 
BRANCH  11  12
ATOM     12  O   UNL d   1      58.847  -9.723  33.929  0.00  0.00    -0.303 OA
BRANCH  12  13
ATOM     13  C   UNL d   1      59.244  -9.192  34.453  0.00  0.00     0.100 A 
ATOM     14  C   UNL d   1      60.048  -9.037  34.349  0.00  0.00     0.025 A 
ATOM     15  C   UNL d   1      60.435  -8.519  34.861  0.00  0.00     0.005 A 
ATOM     16  C   UNL d   1      60.017  -8.157  35.474  0.00  0.00     0.039 A 
ATOM     17  C   UNL d   1      59.220  -8.314  35.573  0.00  0.00     0.005 A 
ATOM     18  C   UNL d   1      58.833  -8.832  35.061  0.00  0.00     0.025 A 
BRANCH  16  19
ATOM     19  C   UNL d   1      60.406  -7.636  35.988  0.00  0.00     0.196 C 
ATOM     20  O   UNL d   1      61.133  -7.837  36.303  0.00  0.00    -0.287 OA
ATOM     21  C   UNL d   1      60.058  -6.913  36.180  0.00  0.00     0.045 C 
ENDBRANCH  16  19
ENDBRANCH  12  13
ENDBRANCH  11  12
ENDBRANCH  10  11
ENDBRANCH   9  10
ENDBRANCH   4   9
TORSDOF 6
ENDMDL
MODEL 4
REMARK VINA RESULT:      -1.9      8.290      9.502
REMARK  6 active torsions:
REMARK  status: ('A' for Active; 'I' for Inactive)
REMARK    1  A    between atoms: C_3  and  C_4 
REMARK    2  A    between atoms: C_9  and  O_18 
REMARK    3  A    between atoms: O_17  and  C_10 
REMARK    4  A    between atoms: C_21  and  O_17 
REMARK    5  A    between atoms: O_18  and  C_20 
REMARK    6  A    between atoms: C_20  and  C_21 
ROOT
ATOM      1  N   UNL d   1      56.827  -9.537  29.378  0.00  0.00    -0.191 NA
ATOM      2  C   UNL d   1      57.356  -9.578  29.983  0.00  0.00     0.101 C 
ATOM      3  C   UNL d   1      57.896  -9.619  30.600  0.00  0.00     0.068 A 
ATOM      4  C   UNL d   1      58.979  -9.703  31.838  0.00  0.00     0.100 A 
ATOM      5  C   UNL d   1      57.646  -9.506  31.374  0.00  0.00     0.012 A 
ATOM      6  C   UNL d   1      58.691  -9.776  30.441  0.00  0.00     0.012 A 
ATOM      7  C   UNL d   1      59.234  -9.818  31.061  0.00  0.00     0.025 A 
ATOM      8  C   UNL d   1      58.188  -9.548  31.994  0.00  0.00     0.025 A 
ENDROOT
BRANCH   4   9
ATOM      9  O   UNL d   1      59.525  -9.746  32.461  0.00  0.00    -0.303 OA
BRANCH   9  10
ATOM     10  C   UNL d   1      59.255  -9.817  33.238  0.00  0.00     0.149 C 
BRANCH  10  11
ATOM     11  C   UNL d   1      59.785  -9.738  33.865  0.00  0.00     0.149 C 
BRANCH  11  12
ATOM     12  O   UNL d   1      59.509  -9.574  34.629  0.00  0.00    -0.303 OA
BRANCH  12  13
ATOM     13  C   UNL d   1      59.683  -8.834  34.997  0.00  0.00     0.100 A 
ATOM     14  C   UNL d   1      59.090  -8.265  35.077  0.00  0.00     0.025 A 
ATOM     15  C   UNL d   1      59.260  -7.542  35.436  0.00  0.00     0.005 A 
ATOM     16  C   UNL d   1      60.023  -7.391  35.713  0.00  0.00     0.039 A 
ATOM     17  C   UNL d   1      60.608  -7.957  35.631  0.00  0.00     0.005 A 
ATOM     18  C   UNL d   1      60.437  -8.680  35.272  0.00  0.00     0.025 A 
BRANCH  16  19
ATOM     19  C   UNL d   1      60.194  -6.664  36.074  0.00  0.00     0.196 C 
ATOM     20  O   UNL d   1      59.599  -6.120  36.202  0.00  0.00    -0.287 OA
ATOM     21  C   UNL d   1      60.968  -6.492  36.302  0.00  0.00     0.045 C 
ENDBRANCH  16  19
ENDBRANCH  12  13
ENDBRANCH  11  12
ENDBRANCH  10  11
ENDBRANCH   9  10
ENDBRANCH   4   9
TORSDOF 6
ENDMDL
