MODEL 1
REMARK VINA RESULT:      -3.5      0.000      0.000
REMARK  3 active torsions:
REMARK  status: ('A' for Active; 'I' for Inactive)
REMARK    1  A    between atoms: C_13  and  C_4 
REMARK    2  A    between atoms: O_15  and  C_13 
REMARK    3  A    between atoms: C_16  and  O_15 
ROOT
ATOM      1  C   UNL d   1      32.946  19.660 -22.077  0.00  0.00     0.144 C 
ENDROOT
BRANCH   1   2
ATOM      2  C   UNL d   1      32.829  20.429 -21.838  0.00  0.00     0.142 A 
ATOM      3  N   UNL d   1      32.294  20.702 -21.275  0.00  0.00    -0.057 NA
ATOM      4  C   UNL d   1      32.360  21.520 -21.205  0.00  0.00     0.735 A 
ATOM      5  N   UNL d   1      32.951  21.782 -21.734  0.00  0.00    -0.136 N 
ATOM      6  N   UNL d   1      31.968  22.067 -20.736  0.00  0.00    -0.059 NA
ATOM      7  C   UNL d   1      33.228  21.097 -22.114  0.00  0.00     0.120 A 
ATOM      8  C   UNL d   1      33.143  22.581 -21.788  0.00  0.00     0.100 A 
ATOM      9  C   UNL d   1      32.769  23.130 -21.336  0.00  0.00     0.041 A 
ATOM     10  C   UNL d   1      32.161  22.885 -20.788  0.00  0.00     0.119 A 
ENDBRANCH   1   2
BRANCH   1  11
ATOM     11  O   UNL d   1      32.880  19.458 -22.867  0.00  0.00    -0.303 OA
BRANCH  11  12
ATOM     12  C   UNL d   1      32.793  18.670 -23.095  0.00  0.00     0.100 A 
ATOM     13  C   UNL d   1      32.255  18.482 -23.679  0.00  0.00     0.025 A 
ATOM     14  C   UNL d   1      32.165  17.696 -23.910  0.00  0.00     0.013 A 
ATOM     15  C   UNL d   1      31.606  17.502 -24.515  0.00  0.00     0.001 C 
ATOM     16  C   UNL d   1      32.616  17.097 -23.555  0.00  0.00     0.058 A 
ATOM     17  C   UNL d   1      33.153  17.286 -22.972  0.00  0.00     0.013 A 
ATOM     18 CL   UNL d   1      32.538  16.296 -23.777  0.00  0.00    -0.082 Cl
ATOM     19  C   UNL d   1      33.240  18.074 -22.743  0.00  0.00     0.026 A 
ENDBRANCH  11  12
ENDBRANCH   1  11
TORSDOF 3
ENDMDL
MODEL 2
REMARK VINA RESULT:      -3.3      1.043      1.381
REMARK  3 active torsions:
REMARK  status: ('A' for Active; 'I' for Inactive)
REMARK    1  A    between atoms: C_13  and  C_4 
REMARK    2  A    between atoms: O_15  and  C_13 
REMARK    3  A    between atoms: C_16  and  O_15 
ROOT
ATOM      1  C   UNL d   1      32.795  20.460 -21.683  0.00  0.00     0.144 C 
ENDROOT
BRANCH   1   2
ATOM      2  C   UNL d   1      32.718  21.171 -21.294  0.00  0.00     0.142 A 
ATOM      3  N   UNL d   1      32.176  21.771 -21.452  0.00  0.00    -0.057 NA
ATOM      4  C   UNL d   1      32.291  22.393 -20.925  0.00  0.00     0.735 A 
ATOM      5  N   UNL d   1      32.921  22.191 -20.415  0.00  0.00    -0.136 N 
ATOM      6  N   UNL d   1      31.915  23.116 -20.833  0.00  0.00    -0.059 NA
ATOM      7  C   UNL d   1      33.171  21.436 -20.657  0.00  0.00     0.120 A 
ATOM      8  C   UNL d   1      33.167  22.709 -19.823  0.00  0.00     0.100 A 
ATOM      9  C   UNL d   1      32.809  23.421 -19.720  0.00  0.00     0.041 A 
ATOM     10  C   UNL d   1      32.163  23.649 -20.230  0.00  0.00     0.119 A 
ENDBRANCH   1   2
BRANCH   1  11
ATOM     11  O   UNL d   1      33.213  20.416 -22.385  0.00  0.00    -0.303 OA
BRANCH  11  12
ATOM     12  C   UNL d   1      33.215  19.724 -22.832  0.00  0.00     0.100 A 
ATOM     13  C   UNL d   1      33.192  19.775 -23.646  0.00  0.00     0.025 A 
ATOM     14  C   UNL d   1      33.193  19.086 -24.096  0.00  0.00     0.013 A 
ATOM     15  C   UNL d   1      33.169  19.140 -24.941  0.00  0.00     0.001 C 
ATOM     16  C   UNL d   1      33.218  18.341 -23.731  0.00  0.00     0.058 A 
ATOM     17  C   UNL d   1      33.241  18.290 -22.918  0.00  0.00     0.013 A 
ATOM     18 CL   UNL d   1      33.220  17.633 -24.172  0.00  0.00    -0.082 Cl
ATOM     19  C   UNL d   1      33.239  18.984 -22.470  0.00  0.00     0.026 A 
ENDBRANCH  11  12
ENDBRANCH   1  11
TORSDOF 3
ENDMDL
MODEL 3
REMARK VINA RESULT:      -3.1      2.367      4.825
REMARK  3 active torsions:
REMARK  status: ('A' for Active; 'I' for Inactive)
REMARK    1  A    between atoms: C_13  and  C_4 
REMARK    2  A    between atoms: O_15  and  C_13 
REMARK    3  A    between atoms: C_16  and  O_15 
ROOT
ATOM      1  C   UNL d   1      33.018  19.286 -22.910  0.00  0.00     0.144 C 
ENDROOT
BRANCH   1   2
ATOM      2  C   UNL d   1      32.812  18.524 -23.109  0.00  0.00     0.142 A 
ATOM      3  N   UNL d   1      33.168  17.827 -22.853  0.00  0.00    -0.057 NA
ATOM      4  C   UNL d   1      32.785  17.181 -23.191  0.00  0.00     0.735 A 
ATOM      5  N   UNL d   1      32.168  17.466 -23.677  0.00  0.00    -0.136 N 
ATOM      6  N   UNL d   1      32.906  16.372 -23.129  0.00  0.00    -0.059 NA
ATOM      7  C   UNL d   1      32.200  18.295 -23.614  0.00  0.00     0.120 A 
ATOM      8  C   UNL d   1      31.683  16.946 -24.091  0.00  0.00     0.100 A 
ATOM      9  C   UNL d   1      31.788  16.151 -24.042  0.00  0.00     0.041 A 
ATOM     10  C   UNL d   1      32.413  15.835 -23.551  0.00  0.00     0.119 A 
ENDBRANCH   1   2
BRANCH   1  11
ATOM     11  O   UNL d   1      32.873  19.569 -22.156  0.00  0.00    -0.303 OA
BRANCH  11  12
ATOM     12  C   UNL d   1      32.878  20.379 -22.001  0.00  0.00     0.100 A 
ATOM     13  C   UNL d   1      32.521  20.657 -21.322  0.00  0.00     0.025 A 
ATOM     14  C   UNL d   1      32.524  21.465 -21.165  0.00  0.00     0.013 A 
ATOM     15  C   UNL d   1      32.153  21.753 -20.459  0.00  0.00     0.001 C 
ATOM     16  C   UNL d   1      32.884  21.998 -21.688  0.00  0.00     0.058 A 
ATOM     17  C   UNL d   1      33.241  21.720 -22.366  0.00  0.00     0.013 A 
ATOM     18 CL   UNL d   1      32.896  22.820 -21.544  0.00  0.00    -0.082 Cl
ATOM     19  C   UNL d   1      33.236  20.909 -22.521  0.00  0.00     0.026 A 
ENDBRANCH  11  12
ENDBRANCH   1  11
TORSDOF 3
ENDMDL
MODEL 4
REMARK VINA RESULT:      -1.7      2.366      3.365
REMARK  3 active torsions:
REMARK  status: ('A' for Active; 'I' for Inactive)
REMARK    1  A    between atoms: C_13  and  C_4 
REMARK    2  A    between atoms: O_15  and  C_13 
REMARK    3  A    between atoms: C_16  and  O_15 
ROOT
ATOM      1  C   UNL d   1      33.235  21.969 -20.341  0.00  0.00     0.144 C 
ENDROOT
BRANCH   1   2
ATOM      2  C   UNL d   1      33.191  22.239 -19.574  0.00  0.00     0.142 A 
ATOM      3  N   UNL d   1      33.178  21.788 -18.886  0.00  0.00    -0.057 NA
ATOM      4  C   UNL d   1      33.130  22.286 -18.231  0.00  0.00     0.735 A 
ATOM      5  N   UNL d   1      33.113  23.076 -18.502  0.00  0.00    -0.136 N 
ATOM      6  N   UNL d   1      33.101  22.136 -17.425  0.00  0.00    -0.059 NA
ATOM      7  C   UNL d   1      33.151  23.027 -19.331  0.00  0.00     0.120 A 
ATOM      8  C   UNL d   1      33.066  23.702 -17.970  0.00  0.00     0.100 A 
ATOM      9  C   UNL d   1      33.036  23.574 -17.178  0.00  0.00     0.041 A 
ATOM     10  C   UNL d   1      33.053  22.774 -16.877  0.00  0.00     0.119 A 
ENDBRANCH   1   2
BRANCH   1  11
ATOM     11  O   UNL d   1      33.025  21.199 -20.521  0.00  0.00    -0.303 OA
BRANCH  11  12
ATOM     12  C   UNL d   1      33.059  20.923 -21.297  0.00  0.00     0.100 A 
ATOM     13  C   UNL d   1      32.944  20.128 -21.442  0.00  0.00     0.025 A 
ATOM     14  C   UNL d   1      32.976  19.849 -22.216  0.00  0.00     0.013 A 
ATOM     15  C   UNL d   1      32.856  19.024 -22.366  0.00  0.00     0.001 C 
ATOM     16  C   UNL d   1      33.125  20.365 -22.848  0.00  0.00     0.058 A 
ATOM     17  C   UNL d   1      33.241  21.159 -22.702  0.00  0.00     0.013 A 
ATOM     18 CL   UNL d   1      33.162  20.099 -23.637  0.00  0.00    -0.082 Cl
ATOM     19  C   UNL d   1      33.207  21.436 -21.925  0.00  0.00     0.026 A 
ENDBRANCH  11  12
ENDBRANCH   1  11
TORSDOF 3
ENDMDL
MODEL 5
REMARK VINA RESULT:      -1.2      3.209      5.391
REMARK  3 active torsions:
REMARK  status: ('A' for Active; 'I' for Inactive)
REMARK    1  A    between atoms: C_13  and  C_4 
REMARK    2  A    between atoms: O_15  and  C_13 
REMARK    3  A    between atoms: C_16  and  O_15 
ROOT
ATOM      1  C   UNL d   1      31.082  17.123 -24.585  0.00  0.00     0.144 C 
ENDROOT
BRANCH   1   2
ATOM      2  C   UNL d   1      30.411  16.740 -24.325  0.00  0.00     0.142 A 
ATOM      3  N   UNL d   1      30.242  16.495 -23.558  0.00  0.00    -0.057 NA
ATOM      4  C   UNL d   1      29.503  16.130 -23.541  0.00  0.00     0.735 A 
ATOM      5  N   UNL d   1      29.189  16.140 -24.315  0.00  0.00    -0.136 N 
ATOM      6  N   UNL d   1      29.069  15.790 -22.934  0.00  0.00    -0.059 NA
ATOM      7  C   UNL d   1      29.761  16.519 -24.783  0.00  0.00     0.120 A 
ATOM      8  C   UNL d   1      28.450  15.812 -24.473  0.00  0.00     0.100 A 
ATOM      9  C   UNL d   1      28.012  15.475 -23.891  0.00  0.00     0.041 A 
ATOM     10  C   UNL d   1      28.313  15.453 -23.091  0.00  0.00     0.119 A 
ENDBRANCH   1   2
BRANCH   1  11
ATOM     11  O   UNL d   1      31.665  17.340 -24.054  0.00  0.00    -0.303 OA
BRANCH  11  12
ATOM     12  C   UNL d   1      32.058  18.061 -24.132  0.00  0.00     0.100 A 
ATOM     13  C   UNL d   1      32.335  18.438 -23.463  0.00  0.00     0.025 A 
ATOM     14  C   UNL d   1      32.728  19.158 -23.537  0.00  0.00     0.013 A 
ATOM     15  C   UNL d   1      33.015  19.548 -22.842  0.00  0.00     0.001 C 
ATOM     16  C   UNL d   1      32.845  19.503 -24.282  0.00  0.00     0.058 A 
ATOM     17  C   UNL d   1      32.568  19.125 -24.950  0.00  0.00     0.013 A 
ATOM     18 CL   UNL d   1      33.241  20.231 -24.375  0.00  0.00    -0.082 Cl
ATOM     19  C   UNL d   1      32.175  18.404 -24.873  0.00  0.00     0.026 A 
ENDBRANCH  11  12
ENDBRANCH   1  11
TORSDOF 3
ENDMDL
