MODEL 1
REMARK VINA RESULT:     145.1      0.000      0.000
REMARK  5 active torsions:
REMARK  status: ('A' for Active; 'I' for Inactive)
REMARK    1  A    between atoms: C_4  and  S_1 
REMARK    2  A    between atoms: N_6  and  S_1 
REMARK    3  A    between atoms: C_2  and  C_14 
REMARK    4  A    between atoms: C_7  and  C_16 
REMARK       I    between atoms: N_11  and  C_7 
REMARK    5  A    between atoms: C_26  and  N_11 
ROOT
ATOM      1  C   UNL d   1      43.086 -16.098  38.769  0.00  0.00     0.279 C 
ATOM      2  N   UNL d   1      43.213 -16.047  39.579  0.00  0.00    -0.208 NA
ATOM      3  O   UNL d   1      43.428 -16.704  38.335  0.00  0.00    -0.265 OA
ENDROOT
BRANCH   1   4
ATOM      4  C   UNL d   1      42.612 -15.537  38.392  0.00  0.00     0.061 A 
ATOM      5  C   UNL d   1      41.779 -15.601  38.428  0.00  0.00     0.025 A 
ATOM      6  C   UNL d   1      41.305 -15.040  38.050  0.00  0.00     0.092 A 
ATOM      7  N   UNL d   1      41.655 -14.413  37.635  0.00  0.00    -0.229 N 
ATOM      8  C   UNL d   1      42.479 -14.352  37.601  0.00  0.00     0.092 A 
ATOM      9  C   UNL d   1      42.959 -14.908  37.975  0.00  0.00     0.025 A 
BRANCH   7  10
ATOM     10  S   UNL d   1      41.183 -13.849  37.256  0.00  0.00     0.277 S 
ATOM     11  O   UNL d   1      40.818 -13.704  37.975  0.00  0.00    -0.199 OA
ATOM     12  O   UNL d   1      41.556 -14.000  36.532  0.00  0.00    -0.199 OA
BRANCH  10  13
ATOM     13  C   UNL d   1      40.700 -13.284  36.916  0.00  0.00     0.133 A 
ATOM     14  S   UNL d   1      40.879 -12.483  36.799  0.00  0.00    -0.074 SA
ATOM     15  C   UNL d   1      40.236 -12.123  36.442  0.00  0.00     0.036 A 
ATOM     16  C   UNL d   1      39.648 -12.692  36.330  0.00  0.00     0.008 A 
ATOM     17  C   UNL d   1      39.934 -13.408  36.623  0.00  0.00     0.020 A 
ENDBRANCH  10  13
ENDBRANCH   7  10
ENDBRANCH   1   4
BRANCH   2  18
ATOM     18  C   UNL d   1      43.685 -16.606  39.960  0.00  0.00     0.085 A 
ATOM     19  C   UNL d   1      43.330 -17.187  40.434  0.00  0.00     0.019 A 
ATOM     20  C   UNL d   1      43.815 -17.736  40.806  0.00  0.00     0.004 A 
ATOM     21  C   UNL d   1      44.621 -17.701  40.705  0.00  0.00     0.024 A 
ATOM     22  C   UNL d   1      44.958 -17.125  40.236  0.00  0.00     0.004 A 
ATOM     23  C   UNL d   1      44.496 -16.581  39.866  0.00  0.00     0.019 A 
BRANCH  21  24
ATOM     24  C   UNL d   1      45.094 -18.260  41.085  0.00  0.00     0.111 A 
ATOM     25  N   UNL d   1      45.373 -18.972  40.755  0.00  0.00    -0.239 NA
ATOM     26  C   UNL d   1      45.827 -19.365  41.329  0.00  0.00     0.088 A 
ATOM     27  C   UNL d   1      46.233 -20.079  41.317  0.00  0.00     0.020 A 
ATOM     28  C   UNL d   1      45.827 -18.897  42.007  0.00  0.00     0.049 A 
ATOM     29  C   UNL d   1      46.644 -20.328  41.989  0.00  0.00     0.002 A 
ATOM     30  C   UNL d   1      46.647 -19.863  42.670  0.00  0.00     0.001 A 
ATOM     31  C   UNL d   1      46.240 -19.146  42.684  0.00  0.00     0.008 A 
ATOM     32  S   UNL d   1      45.378 -18.209  41.873  0.00  0.00    -0.066 SA
ENDBRANCH  21  24
ENDBRANCH   2  18
TORSDOF 5
ENDMDL
