MODEL 1
REMARK VINA RESULT:      -3.9      0.000      0.000
REMARK  7 active torsions:
REMARK  status: ('A' for Active; 'I' for Inactive)
REMARK    1  A    between atoms: O_9  and  N_1 
REMARK    2  A    between atoms: C_8  and  O_11 
REMARK    3  A    between atoms: C_15  and  O_9 
REMARK    4  A    between atoms: O_11  and  C_16 
REMARK    5  A    between atoms: C_18  and  C_15 
REMARK    6  A    between atoms: C_16  and  C_17 
REMARK    7  A    between atoms: C_17  and  C_18 
ROOT
ATOM      1  N   UNL d   1      58.566  -0.571  29.883  0.00  0.00    -0.139 N 
ATOM      2  C   UNL d   1      59.288  -0.268  29.600  0.00  0.00     0.287 A 
ATOM      3  C   UNL d   1      58.515  -1.368  29.656  0.00  0.00     0.287 A 
ATOM      4  C   UNL d   1      59.678  -0.880  29.200  0.00  0.00     0.063 A 
ATOM      5  C   UNL d   1      59.203  -1.556  29.235  0.00  0.00     0.063 A 
ATOM      6  O   UNL d   1      57.910  -1.913  29.801  0.00  0.00    -0.265 OA
ATOM      7  O   UNL d   1      59.597   0.487  29.677  0.00  0.00    -0.265 OA
ATOM      8  C   UNL d   1      59.456  -2.258  28.879  0.00  0.00     0.005 A 
ATOM      9  C   UNL d   1      60.406  -0.906  28.809  0.00  0.00     0.005 A 
ATOM     10  C   UNL d   1      60.181  -2.282  28.490  0.00  0.00     0.000 A 
ATOM     11  C   UNL d   1      60.657  -1.606  28.455  0.00  0.00     0.000 A 
ENDROOT
BRANCH   1  12
ATOM     12  O   UNL d   1      58.001  -0.152  30.312  0.00  0.00    -0.221 OA
BRANCH  12  13
ATOM     13  C   UNL d   1      57.797   0.281  30.987  0.00  0.00     0.148 C 
BRANCH  13  14
ATOM     14  C   UNL d   1      57.009   0.310  31.224  0.00  0.00     0.031 C 
BRANCH  14  15
ATOM     15  C   UNL d   1      56.819   0.569  31.982  0.00  0.00     0.029 C 
BRANCH  15  16
ATOM     16  C   UNL d   1      56.169   0.250  32.373  0.00  0.00     0.126 C 
BRANCH  16  17
ATOM     17  O   UNL d   1      55.907   0.594  33.075  0.00  0.00    -0.271 OA
BRANCH  17  18
ATOM     18  C   UNL d   1      55.318   0.223  33.514  0.00  0.00     0.300 C 
ATOM     19  O   UNL d   1      55.319  -0.598  33.598  0.00  0.00    -0.259 OA
ATOM     20  C   UNL d   1      54.727   0.673  33.869  0.00  0.00     0.074 C 
ENDBRANCH  17  18
ENDBRANCH  16  17
ENDBRANCH  15  16
ENDBRANCH  14  15
ENDBRANCH  13  14
ENDBRANCH  12  13
ENDBRANCH   1  12
TORSDOF 7
ENDMDL
MODEL 2
REMARK VINA RESULT:      -3.0      9.040      9.399
REMARK  7 active torsions:
REMARK  status: ('A' for Active; 'I' for Inactive)
REMARK    1  A    between atoms: O_9  and  N_1 
REMARK    2  A    between atoms: C_8  and  O_11 
REMARK    3  A    between atoms: C_15  and  O_9 
REMARK    4  A    between atoms: O_11  and  C_16 
REMARK    5  A    between atoms: C_18  and  C_15 
REMARK    6  A    between atoms: C_16  and  C_17 
REMARK    7  A    between atoms: C_17  and  C_18 
ROOT
ATOM      1  N   UNL d   1      58.272  -9.818  31.520  0.00  0.00    -0.139 N 
ATOM      2  C   UNL d   1      58.694  -9.818  30.802  0.00  0.00     0.287 A 
ATOM      3  C   UNL d   1      57.462  -9.818  31.343  0.00  0.00     0.287 A 
ATOM      4  C   UNL d   1      58.140  -9.818  30.185  0.00  0.00     0.063 A 
ATOM      5  C   UNL d   1      57.382  -9.818  30.518  0.00  0.00     0.063 A 
ATOM      6  O   UNL d   1      56.816  -9.818  31.859  0.00  0.00    -0.265 OA
ATOM      7  O   UNL d   1      59.504  -9.817  30.679  0.00  0.00    -0.265 OA
ATOM      8  C   UNL d   1      56.716  -9.818  30.029  0.00  0.00     0.005 A 
ATOM      9  C   UNL d   1      58.230  -9.818  29.364  0.00  0.00     0.005 A 
ATOM     10  C   UNL d   1      56.808  -9.818  29.211  0.00  0.00     0.000 A 
ATOM     11  C   UNL d   1      57.566  -9.818  28.878  0.00  0.00     0.000 A 
ENDROOT
BRANCH   1  12
ATOM     12  O   UNL d   1      58.604  -9.818  32.274  0.00  0.00    -0.221 OA
BRANCH  12  13
ATOM     13  C   UNL d   1      58.646  -9.492  33.034  0.00  0.00     0.148 C 
BRANCH  13  14
ATOM     14  C   UNL d   1      59.351  -9.543  33.456  0.00  0.00     0.031 C 
BRANCH  14  15
ATOM     15  C   UNL d   1      59.362  -9.360  34.258  0.00  0.00     0.029 C 
BRANCH  15  16
ATOM     16  C   UNL d   1      59.758  -8.687  34.518  0.00  0.00     0.126 C 
BRANCH  16  17
ATOM     17  O   UNL d   1      59.740  -8.488  35.319  0.00  0.00    -0.271 OA
BRANCH  17  18
ATOM     18  C   UNL d   1      60.062  -7.773  35.567  0.00  0.00     0.300 C 
ATOM     19  O   UNL d   1      59.567  -7.167  35.832  0.00  0.00    -0.259 OA
ATOM     20  C   UNL d   1      60.876  -7.662  35.551  0.00  0.00     0.074 C 
ENDBRANCH  17  18
ENDBRANCH  16  17
ENDBRANCH  15  16
ENDBRANCH  14  15
ENDBRANCH  13  14
ENDBRANCH  12  13
ENDBRANCH   1  12
TORSDOF 7
ENDMDL
MODEL 3
REMARK VINA RESULT:      -2.7      0.730      1.469
REMARK  7 active torsions:
REMARK  status: ('A' for Active; 'I' for Inactive)
REMARK    1  A    between atoms: O_9  and  N_1 
REMARK    2  A    between atoms: C_8  and  O_11 
REMARK    3  A    between atoms: C_15  and  O_9 
REMARK    4  A    between atoms: O_11  and  C_16 
REMARK    5  A    between atoms: C_18  and  C_15 
REMARK    6  A    between atoms: C_16  and  C_17 
REMARK    7  A    between atoms: C_17  and  C_18 
ROOT
ATOM      1  N   UNL d   1      57.947  -0.505  30.353  0.00  0.00    -0.139 N 
ATOM      2  C   UNL d   1      57.899  -1.334  30.289  0.00  0.00     0.287 A 
ATOM      3  C   UNL d   1      58.534  -0.239  29.831  0.00  0.00     0.287 A 
ATOM      4  C   UNL d   1      58.457  -1.575  29.726  0.00  0.00     0.063 A 
ATOM      5  C   UNL d   1      58.848  -0.902  29.445  0.00  0.00     0.063 A 
ATOM      6  O   UNL d   1      58.793   0.533  29.687  0.00  0.00    -0.265 OA
ATOM      7  O   UNL d   1      57.407  -1.855  30.686  0.00  0.00    -0.265 OA
ATOM      8  C   UNL d   1      59.440  -0.977  28.873  0.00  0.00     0.005 A 
ATOM      9  C   UNL d   1      58.659  -2.322  29.435  0.00  0.00     0.005 A 
ATOM     10  C   UNL d   1      59.640  -1.722  28.584  0.00  0.00     0.000 A 
ATOM     11  C   UNL d   1      59.249  -2.395  28.866  0.00  0.00     0.000 A 
ENDROOT
BRANCH   1  12
ATOM     12  O   UNL d   1      57.490  -0.032  30.850  0.00  0.00    -0.221 OA
BRANCH  12  13
ATOM     13  C   UNL d   1      57.247   0.171  31.614  0.00  0.00     0.148 C 
BRANCH  13  14
ATOM     14  C   UNL d   1      56.444   0.278  31.767  0.00  0.00     0.031 C 
BRANCH  14  15
ATOM     15  C   UNL d   1      56.207   0.681  32.444  0.00  0.00     0.029 C 
BRANCH  15  16
ATOM     16  C   UNL d   1      55.858   0.267  33.064  0.00  0.00     0.126 C 
BRANCH  16  17
ATOM     17  O   UNL d   1      55.681   0.662  33.767  0.00  0.00    -0.271 OA
BRANCH  17  18
ATOM     18  C   UNL d   1      55.290   0.261  34.370  0.00  0.00     0.300 C 
ATOM     19  O   UNL d   1      55.182  -0.555  34.322  0.00  0.00    -0.259 OA
ATOM     20  C   UNL d   1      55.007   0.676  35.022  0.00  0.00     0.074 C 
ENDBRANCH  17  18
ENDBRANCH  16  17
ENDBRANCH  15  16
ENDBRANCH  14  15
ENDBRANCH  13  14
ENDBRANCH  12  13
ENDBRANCH   1  12
TORSDOF 7
ENDMDL
MODEL 4
REMARK VINA RESULT:      -1.7      9.020      9.812
REMARK  7 active torsions:
REMARK  status: ('A' for Active; 'I' for Inactive)
REMARK    1  A    between atoms: O_9  and  N_1 
REMARK    2  A    between atoms: C_8  and  O_11 
REMARK    3  A    between atoms: C_15  and  O_9 
REMARK    4  A    between atoms: O_11  and  C_16 
REMARK    5  A    between atoms: C_18  and  C_15 
REMARK    6  A    between atoms: C_16  and  C_17 
REMARK    7  A    between atoms: C_17  and  C_18 
ROOT
ATOM      1  N   UNL d   1      59.463  -8.865  34.212  0.00  0.00    -0.139 N 
ATOM      2  C   UNL d   1      59.063  -8.391  34.769  0.00  0.00     0.287 A 
ATOM      3  C   UNL d   1      60.276  -8.812  34.366  0.00  0.00     0.287 A 
ATOM      4  C   UNL d   1      59.634  -8.048  35.262  0.00  0.00     0.063 A 
ATOM      5  C   UNL d   1      60.380  -8.307  35.014  0.00  0.00     0.063 A 
ATOM      6  O   UNL d   1      60.905  -9.177  33.972  0.00  0.00    -0.265 OA
ATOM      7  O   UNL d   1      58.259  -8.258  34.851  0.00  0.00    -0.265 OA
ATOM      8  C   UNL d   1      61.059  -8.051  35.410  0.00  0.00     0.005 A 
ATOM      9  C   UNL d   1      59.568  -7.533  35.906  0.00  0.00     0.005 A 
ATOM     10  C   UNL d   1      60.992  -7.538  36.051  0.00  0.00     0.000 A 
ATOM     11  C   UNL d   1      60.245  -7.279  36.299  0.00  0.00     0.000 A 
ENDROOT
BRANCH   1  12
ATOM     12  O   UNL d   1      59.110  -9.309  33.614  0.00  0.00    -0.221 OA
BRANCH  12  13
ATOM     13  C   UNL d   1      59.072  -9.526  32.817  0.00  0.00     0.148 C 
BRANCH  13  14
ATOM     14  C   UNL d   1      58.340  -9.544  32.438  0.00  0.00     0.031 C 
BRANCH  14  15
ATOM     15  C   UNL d   1      58.302  -9.478  31.619  0.00  0.00     0.029 C 
BRANCH  15  16
ATOM     16  C   UNL d   1      57.578  -9.558  31.236  0.00  0.00     0.126 C 
BRANCH  16  17
ATOM     17  O   UNL d   1      57.559  -9.818  30.453  0.00  0.00    -0.271 OA
BRANCH  17  18
ATOM     18  C   UNL d   1      56.877  -9.711  30.006  0.00  0.00     0.300 C 
ATOM     19  O   UNL d   1      56.136  -9.742  30.368  0.00  0.00    -0.259 OA
ATOM     20  C   UNL d   1      56.934  -9.572  29.197  0.00  0.00     0.074 C 
ENDBRANCH  17  18
ENDBRANCH  16  17
ENDBRANCH  15  16
ENDBRANCH  14  15
ENDBRANCH  13  14
ENDBRANCH  12  13
ENDBRANCH   1  12
TORSDOF 7
ENDMDL
