MODEL 1
REMARK VINA RESULT:      62.2      0.000      0.000
REMARK  7 active torsions:
REMARK  status: ('A' for Active; 'I' for Inactive)
REMARK    1  A    between atoms: C_12  and  C_1 
REMARK    2  A    between atoms: C_14  and  C_4 
REMARK       I    between atoms: C_10  and  N_9 
REMARK    3  A    between atoms: O_22  and  C_10 
REMARK    4  A    between atoms: O_23  and  C_12 
REMARK    5  A    between atoms: N_13  and  C_14 
REMARK    6  A    between atoms: C_27  and  O_22 
REMARK    7  A    between atoms: C_28  and  O_23 
ROOT
ATOM      1  C   UNL d   1      14.130  13.033  -1.720  0.00  0.00     0.088 A 
ATOM      2  C   UNL d   1      13.863  13.199  -2.476  0.00  0.00     0.034 A 
ATOM      3  C   UNL d   1      13.647  12.486  -2.844  0.00  0.00     0.100 A 
ATOM      4  C   UNL d   1      13.785  13.914  -2.891  0.00  0.00     0.059 A 
ATOM      5  C   UNL d   1      14.081  12.202  -1.609  0.00  0.00     0.105 A 
ATOM      6  O   UNL d   1      13.785  11.875  -2.299  0.00  0.00    -0.307 OA
ATOM      7  C   UNL d   1      13.496  13.915  -3.657  0.00  0.00     0.197 A 
ATOM      8  C   UNL d   1      13.357  12.498  -3.615  0.00  0.00     0.026 A 
ATOM      9  C   UNL d   1      13.283  13.207  -4.018  0.00  0.00     0.041 A 
ATOM     10  O   UNL d   1      13.416  14.629  -4.075  0.00  0.00    -0.286 OA
ATOM     11  C   UNL d   1      14.294  11.800  -0.929  0.00  0.00     0.027 C 
ATOM     12  C   UNL d   1      13.142  11.787  -3.980  0.00  0.00     0.002 A 
ATOM     13  C   UNL d   1      12.992  13.212  -4.790  0.00  0.00     0.003 A 
ATOM     14  C   UNL d   1      12.780  12.510  -5.150  0.00  0.00     0.000 A 
ATOM     15  C   UNL d   1      12.855  11.791  -4.741  0.00  0.00     0.000 A 
ENDROOT
BRANCH   4  16
ATOM     16  C   UNL d   1      14.001  14.627  -2.523  0.00  0.00     0.084 C 
BRANCH  16  17
ATOM     17  N   UNL d   1      14.304  15.247  -2.987  0.00  0.00    -0.300 N 
ATOM     18  C   UNL d   1      13.790  15.816  -3.288  0.00  0.00     0.100 A 
ATOM     19  C   UNL d   1      14.093  16.437  -3.752  0.00  0.00     0.104 A 
ATOM     20  N   UNL d   1      14.900  16.478  -3.905  0.00  0.00    -0.249 N 
ATOM     21  C   UNL d   1      15.411  15.903  -3.599  0.00  0.00     0.104 A 
ATOM     22  C   UNL d   1      15.192  17.076  -4.352  0.00  0.00     0.378 C 
ATOM     23  C   UNL d   1      15.112  15.292  -3.142  0.00  0.00     0.100 A 
ATOM     24  O   UNL d   1      16.001  17.128  -4.512  0.00  0.00    -0.237 OA
BRANCH  22  25
ATOM     25  O   UNL d   1      14.685  17.656  -4.662  0.00  0.00    -0.257 OA
BRANCH  25  26
ATOM     26  C   UNL d   1      15.011  18.290  -5.085  0.00  0.00     0.128 C 
ATOM     27  C   UNL d   1      14.617  19.018  -5.096  0.00  0.00     0.029 C 
ENDBRANCH  25  26
ENDBRANCH  22  25
ENDBRANCH  16  17
ENDBRANCH   4  16
BRANCH   1  28
ATOM     28  C   UNL d   1      14.395  13.590  -1.178  0.00  0.00     0.302 C 
ATOM     29  O   UNL d   1      13.981  14.285  -1.047  0.00  0.00    -0.259 OA
BRANCH  28  30
ATOM     30  O   UNL d   1      15.095  13.442  -0.758  0.00  0.00    -0.271 OA
BRANCH  30  31
ATOM     31  C   UNL d   1      15.286  13.905  -0.102  0.00  0.00     0.126 C 
ATOM     32  C   UNL d   1      15.981  14.358  -0.104  0.00  0.00     0.029 C 
ENDBRANCH  30  31
ENDBRANCH  28  30
ENDBRANCH   1  28
TORSDOF 7
ENDMDL
