MODEL 1
REMARK VINA RESULT:      25.3      0.000      0.000
REMARK  3 active torsions:
REMARK  status: ('A' for Active; 'I' for Inactive)
REMARK       I    between atoms: N_2  and  C_1 
REMARK    1  A    between atoms: O_3  and  C_1 
REMARK    2  A    between atoms: C_9  and  O_3 
REMARK    3  A    between atoms: C_5  and  C_6 
ROOT
ATOM      1  C   UNL d   1     -58.109 -98.835 -44.634  0.00  0.00    -0.023 A 
ATOM      2  C   UNL d   1     -57.700 -98.784 -45.349  0.00  0.00    -0.002 A 
ATOM      3  C   UNL d   1     -57.692 -98.861 -43.923  0.00  0.00    -0.002 A 
ATOM      4  C   UNL d   1     -56.469 -98.783 -44.641  0.00  0.00     0.105 A 
ATOM      5  C   UNL d   1     -56.869 -98.835 -43.926  0.00  0.00     0.025 A 
ATOM      6  C   UNL d   1     -56.878 -98.758 -45.352  0.00  0.00     0.025 A 
ENDROOT
BRANCH   4   7
ATOM      7  O   UNL d   1     -55.643 -98.757 -44.645  0.00  0.00    -0.259 OA
BRANCH   7   8
ATOM      8  C   UNL d   1     -55.199 -99.261 -44.172  0.00  0.00     0.377 C 
ATOM      9  N   UNL d   1     -55.178-100.075 -44.313  0.00  0.00    -0.252 N 
ATOM     10  C   UNL d   1     -55.617-100.383 -44.947  0.00  0.00     0.085 A 
ATOM     11  C   UNL d   1     -54.732-100.566 -43.836  0.00  0.00     0.085 A 
ATOM     12  C   UNL d   1     -55.601-101.192 -45.094  0.00  0.00     0.019 A 
ATOM     13  C   UNL d   1     -55.153-101.696 -44.615  0.00  0.00     0.003 A 
ATOM     14  C   UNL d   1     -54.714-101.380 -43.980  0.00  0.00     0.019 A 
ATOM     15  O   UNL d   1     -54.759 -98.928 -43.531  0.00  0.00    -0.237 OA
ENDBRANCH   7   8
ENDBRANCH   4   7
BRANCH   1  16
ATOM     16  C   UNL d   1     -58.935 -98.862 -44.631  0.00  0.00     0.019 C 
ATOM     17  C   UNL d   1     -59.345 -98.866 -43.911  0.00  0.00     0.004 C 
ATOM     18  C   UNL d   1     -59.351 -98.884 -45.343  0.00  0.00     0.004 C 
ATOM     19  C   UNL d   1     -58.719 -98.845 -43.829  0.00  0.00     0.004 C 
ENDBRANCH   1  16
TORSDOF 3
ENDMDL
