MODEL 1
REMARK VINA RESULT:      -2.8      0.000      0.000
REMARK  1 active torsions:
REMARK  status: ('A' for Active; 'I' for Inactive)
REMARK    1  A    between atoms: C_2  and  N_1 
ROOT
ATOM      1  C   UNL d   1      31.255  16.587 -23.900  0.00  0.00     0.130 A 
ATOM      2  C   UNL d   1      30.889  17.124 -24.363  0.00  0.00     0.067 A 
ATOM      3  C   UNL d   1      30.061  17.131 -24.439  0.00  0.00     0.215 A 
ATOM      4  C   UNL d   1      29.612  16.573 -24.028  0.00  0.00     0.120 A 
ATOM      5  C   UNL d   1      30.820  16.018 -23.479  0.00  0.00     0.025 A 
ATOM      6  C   UNL d   1      29.998  16.007 -23.541  0.00  0.00     0.022 A 
ATOM      7  N   UNL d   1      28.793  16.566 -24.092  0.00  0.00    -0.241 NA
ATOM      8  O   UNL d   1      29.685  17.683 -24.914  0.00  0.00    -0.285 OA
ATOM      9  C   UNL d   1      29.552  15.453 -23.132  0.00  0.00     0.003 A 
ATOM     10  C   UNL d   1      28.359  15.997 -23.671  0.00  0.00     0.099 A 
ATOM     11  C   UNL d   1      28.725  15.460 -23.208  0.00  0.00     0.021 A 
ENDROOT
BRANCH   1  12
ATOM     12  N   UNL d   1      32.070  16.622 -23.859  0.00  0.00    -0.114 N 
ATOM     13  O   UNL d   1      32.424  17.094 -23.282  0.00  0.00    -0.532 OA
ATOM     14  O   UNL d   1      32.517  16.191 -24.389  0.00  0.00    -0.532 OA
ENDBRANCH   1  12
TORSDOF 1
ENDMDL
MODEL 2
REMARK VINA RESULT:      -2.8      5.951      6.754
REMARK  1 active torsions:
REMARK  status: ('A' for Active; 'I' for Inactive)
REMARK    1  A    between atoms: C_2  and  N_1 
ROOT
ATOM      1  C   UNL d   1      32.405  22.732 -21.102  0.00  0.00     0.130 A 
ATOM      2  C   UNL d   1      32.677  22.872 -21.839  0.00  0.00     0.067 A 
ATOM      3  C   UNL d   1      32.961  22.254 -22.316  0.00  0.00     0.215 A 
ATOM      4  C   UNL d   1      32.961  21.483 -22.022  0.00  0.00     0.120 A 
ATOM      5  C   UNL d   1      32.397  21.962 -20.789  0.00  0.00     0.025 A 
ATOM      6  C   UNL d   1      32.675  21.334 -21.246  0.00  0.00     0.022 A 
ATOM      7  N   UNL d   1      33.238  20.860 -22.480  0.00  0.00    -0.241 NA
ATOM      8  O   UNL d   1      33.241  22.399 -23.073  0.00  0.00    -0.285 OA
ATOM      9  C   UNL d   1      32.674  20.568 -20.953  0.00  0.00     0.003 A 
ATOM     10  C   UNL d   1      33.230  20.091 -22.166  0.00  0.00     0.099 A 
ATOM     11  C   UNL d   1      32.958  19.950 -21.430  0.00  0.00     0.021 A 
ENDROOT
BRANCH   1  12
ATOM     12  N   UNL d   1      32.137  23.374 -20.673  0.00  0.00    -0.114 N 
ATOM     13  O   UNL d   1      31.394  23.690 -20.845  0.00  0.00    -0.532 OA
ATOM     14  O   UNL d   1      32.608  23.688 -20.086  0.00  0.00    -0.532 OA
ENDBRANCH   1  12
TORSDOF 1
ENDMDL
MODEL 3
REMARK VINA RESULT:      -2.8      1.301      3.032
REMARK  1 active torsions:
REMARK  status: ('A' for Active; 'I' for Inactive)
REMARK    1  A    between atoms: C_2  and  N_1 
ROOT
ATOM      1  C   UNL d   1      29.219  16.264 -23.826  0.00  0.00     0.130 A 
ATOM      2  C   UNL d   1      29.737  15.820 -23.412  0.00  0.00     0.067 A 
ATOM      3  C   UNL d   1      30.555  15.952 -23.468  0.00  0.00     0.215 A 
ATOM      4  C   UNL d   1      30.836  16.553 -23.959  0.00  0.00     0.120 A 
ATOM      5  C   UNL d   1      29.482  16.873 -24.326  0.00  0.00     0.025 A 
ATOM      6  C   UNL d   1      30.290  17.021 -24.396  0.00  0.00     0.022 A 
ATOM      7  N   UNL d   1      31.641  16.698 -24.027  0.00  0.00    -0.241 NA
ATOM      8  O   UNL d   1      31.087  15.496 -23.043  0.00  0.00    -0.285 OA
ATOM      9  C   UNL d   1      30.568  17.619 -24.884  0.00  0.00     0.003 A 
ATOM     10  C   UNL d   1      31.904  17.307 -24.526  0.00  0.00     0.099 A 
ATOM     11  C   UNL d   1      31.386  17.751 -24.940  0.00  0.00     0.021 A 
ENDROOT
BRANCH   1  12
ATOM     12  N   UNL d   1      28.424  16.093 -23.736  0.00  0.00    -0.114 N 
ATOM     13  O   UNL d   1      27.962  16.575 -23.250  0.00  0.00    -0.532 OA
ATOM     14  O   UNL d   1      28.106  15.453 -24.128  0.00  0.00    -0.532 OA
ENDBRANCH   1  12
TORSDOF 1
ENDMDL
MODEL 4
REMARK VINA RESULT:      -2.7      1.300      1.720
REMARK  1 active torsions:
REMARK  status: ('A' for Active; 'I' for Inactive)
REMARK    1  A    between atoms: C_2  and  N_1 
ROOT
ATOM      1  C   UNL d   1      31.791  17.272 -23.881  0.00  0.00     0.130 A 
ATOM      2  C   UNL d   1      31.665  16.574 -23.515  0.00  0.00     0.067 A 
ATOM      3  C   UNL d   1      30.943  16.172 -23.598  0.00  0.00     0.215 A 
ATOM      4  C   UNL d   1      30.347  16.500 -24.065  0.00  0.00     0.120 A 
ATOM      5  C   UNL d   1      31.204  17.619 -24.355  0.00  0.00     0.025 A 
ATOM      6  C   UNL d   1      30.480  17.236 -24.450  0.00  0.00     0.022 A 
ATOM      7  N   UNL d   1      29.627  16.116 -24.158  0.00  0.00    -0.241 NA
ATOM      8  O   UNL d   1      30.814  15.454 -23.223  0.00  0.00    -0.285 OA
ATOM      9  C   UNL d   1      29.888  17.563 -24.915  0.00  0.00     0.003 A 
ATOM     10  C   UNL d   1      29.040  16.463 -24.633  0.00  0.00     0.099 A 
ATOM     11  C   UNL d   1      29.166  17.161 -24.998  0.00  0.00     0.021 A 
ENDROOT
BRANCH   1  12
ATOM     12  N   UNL d   1      32.518  17.628 -23.767  0.00  0.00    -0.114 N 
ATOM     13  O   UNL d   1      32.621  18.139 -23.127  0.00  0.00    -0.532 OA
ATOM     14  O   UNL d   1      33.126  17.471 -24.288  0.00  0.00    -0.532 OA
ENDBRANCH   1  12
TORSDOF 1
ENDMDL
MODEL 5
REMARK VINA RESULT:      -2.6      6.663      7.318
REMARK  1 active torsions:
REMARK  status: ('A' for Active; 'I' for Inactive)
REMARK    1  A    between atoms: C_2  and  N_1 
ROOT
ATOM      1  C   UNL d   1      32.867  21.438 -21.032  0.00  0.00     0.130 A 
ATOM      2  C   UNL d   1      32.385  21.957 -21.400  0.00  0.00     0.067 A 
ATOM      3  C   UNL d   1      32.166  22.670 -21.036  0.00  0.00     0.215 A 
ATOM      4  C   UNL d   1      32.450  22.845 -20.281  0.00  0.00     0.120 A 
ATOM      5  C   UNL d   1      33.163  21.595 -20.272  0.00  0.00     0.025 A 
ATOM      6  C   UNL d   1      32.957  22.298 -19.893  0.00  0.00     0.022 A 
ATOM      7  N   UNL d   1      32.244  23.545 -19.906  0.00  0.00    -0.241 NA
ATOM      8  O   UNL d   1      31.672  23.203 -21.415  0.00  0.00    -0.285 OA
ATOM      9  C   UNL d   1      33.241  22.470 -19.142  0.00  0.00     0.003 A 
ATOM     10  C   UNL d   1      32.540  23.702 -19.147  0.00  0.00     0.099 A 
ATOM     11  C   UNL d   1      33.021  23.183 -18.778  0.00  0.00     0.021 A 
ENDROOT
BRANCH   1  12
ATOM     12  N   UNL d   1      33.053  20.750 -21.433  0.00  0.00    -0.114 N 
ATOM     13  O   UNL d   1      33.099  20.765 -22.257  0.00  0.00    -0.532 OA
ATOM     14  O   UNL d   1      33.188  20.065 -21.011  0.00  0.00    -0.532 OA
ENDBRANCH   1  12
TORSDOF 1
ENDMDL
MODEL 6
REMARK VINA RESULT:      -2.3      4.908      5.809
REMARK  1 active torsions:
REMARK  status: ('A' for Active; 'I' for Inactive)
REMARK    1  A    between atoms: C_2  and  N_1 
ROOT
ATOM      1  C   UNL d   1      32.756  21.493 -21.377  0.00  0.00     0.130 A 
ATOM      2  C   UNL d   1      32.900  21.902 -22.047  0.00  0.00     0.067 A 
ATOM      3  C   UNL d   1      33.062  21.511 -22.762  0.00  0.00     0.215 A 
ATOM      4  C   UNL d   1      33.074  20.686 -22.778  0.00  0.00     0.120 A 
ATOM      5  C   UNL d   1      32.764  20.663 -21.373  0.00  0.00     0.025 A 
ATOM      6  C   UNL d   1      32.923  20.254 -22.072  0.00  0.00     0.022 A 
ATOM      7  N   UNL d   1      33.233  20.282 -23.475  0.00  0.00    -0.241 NA
ATOM      8  O   UNL d   1      33.210  21.931 -23.450  0.00  0.00    -0.285 OA
ATOM      9  C   UNL d   1      32.935  19.434 -22.087  0.00  0.00     0.003 A 
ATOM     10  C   UNL d   1      33.241  19.452 -23.471  0.00  0.00     0.099 A 
ATOM     11  C   UNL d   1      33.097  19.042 -22.801  0.00  0.00     0.021 A 
ENDROOT
BRANCH   1  12
ATOM     12  N   UNL d   1      32.601  21.926 -20.701  0.00  0.00    -0.114 N 
ATOM     13  O   UNL d   1      33.227  22.132 -20.204  0.00  0.00    -0.532 OA
ATOM     14  O   UNL d   1      31.833  22.143 -20.531  0.00  0.00    -0.532 OA
ENDBRANCH   1  12
TORSDOF 1
ENDMDL
MODEL 7
REMARK VINA RESULT:      -2.2      1.963      2.490
REMARK  1 active torsions:
REMARK  status: ('A' for Active; 'I' for Inactive)
REMARK    1  A    between atoms: C_2  and  N_1 
ROOT
ATOM      1  C   UNL d   1      32.430  18.284 -23.562  0.00  0.00     0.130 A 
ATOM      2  C   UNL d   1      31.855  18.400 -24.103  0.00  0.00     0.067 A 
ATOM      3  C   UNL d   1      31.438  17.760 -24.429  0.00  0.00     0.215 A 
ATOM      4  C   UNL d   1      31.622  16.992 -24.190  0.00  0.00     0.120 A 
ATOM      5  C   UNL d   1      32.630  17.518 -23.308  0.00  0.00     0.025 A 
ATOM      6  C   UNL d   1      32.228  16.869 -23.620  0.00  0.00     0.022 A 
ATOM      7  N   UNL d   1      31.221  16.348 -24.502  0.00  0.00    -0.241 NA
ATOM      8  O   UNL d   1      30.847  17.880 -24.985  0.00  0.00    -0.285 OA
ATOM      9  C   UNL d   1      32.412  16.106 -23.381  0.00  0.00     0.003 A 
ATOM     10  C   UNL d   1      31.421  15.582 -24.249  0.00  0.00     0.099 A 
ATOM     11  C   UNL d   1      31.996  15.466 -23.708  0.00  0.00     0.021 A 
ENDROOT
BRANCH   1  12
ATOM     12  N   UNL d   1      32.810  18.947 -23.271  0.00  0.00    -0.114 N 
ATOM     13  O   UNL d   1      33.230  19.430 -23.792  0.00  0.00    -0.532 OA
ATOM     14  O   UNL d   1      32.767  19.116 -22.474  0.00  0.00    -0.532 OA
ENDBRANCH   1  12
TORSDOF 1
ENDMDL
MODEL 8
REMARK VINA RESULT:      -2.1      2.427      3.862
REMARK  1 active torsions:
REMARK  status: ('A' for Active; 'I' for Inactive)
REMARK    1  A    between atoms: C_2  and  N_1 
ROOT
ATOM      1  C   UNL d   1      32.142  17.286 -23.809  0.00  0.00     0.130 A 
ATOM      2  C   UNL d   1      32.497  17.518 -23.133  0.00  0.00     0.067 A 
ATOM      3  C   UNL d   1      32.871  18.258 -23.077  0.00  0.00     0.215 A 
ATOM      4  C   UNL d   1      32.876  18.760 -23.732  0.00  0.00     0.120 A 
ATOM      5  C   UNL d   1      32.136  17.777 -24.479  0.00  0.00     0.025 A 
ATOM      6  C   UNL d   1      32.502  18.516 -24.445  0.00  0.00     0.022 A 
ATOM      7  N   UNL d   1      33.241  19.494 -23.695  0.00  0.00    -0.241 NA
ATOM      8  O   UNL d   1      33.236  18.496 -22.382  0.00  0.00    -0.285 OA
ATOM      9  C   UNL d   1      32.506  19.014 -25.097  0.00  0.00     0.003 A 
ATOM     10  C   UNL d   1      33.235  19.985 -24.365  0.00  0.00     0.099 A 
ATOM     11  C   UNL d   1      32.880  19.754 -25.041  0.00  0.00     0.021 A 
ENDROOT
BRANCH   1  12
ATOM     12  N   UNL d   1      31.788  16.550 -23.812  0.00  0.00    -0.114 N 
ATOM     13  O   UNL d   1      32.259  15.877 -23.896  0.00  0.00    -0.532 OA
ATOM     14  O   UNL d   1      30.978  16.495 -23.732  0.00  0.00    -0.532 OA
ENDBRANCH   1  12
TORSDOF 1
ENDMDL
MODEL 9
REMARK VINA RESULT:      -2.0      3.539      4.607
REMARK  1 active torsions:
REMARK  status: ('A' for Active; 'I' for Inactive)
REMARK    1  A    between atoms: C_2  and  N_1 
ROOT
ATOM      1  C   UNL d   1      32.788  18.553 -23.307  0.00  0.00     0.130 A 
ATOM      2  C   UNL d   1      32.930  18.991 -23.959  0.00  0.00     0.067 A 
ATOM      3  C   UNL d   1      33.083  19.805 -23.902  0.00  0.00     0.215 A 
ATOM      4  C   UNL d   1      33.089  20.166 -23.160  0.00  0.00     0.120 A 
ATOM      5  C   UNL d   1      32.789  18.897 -22.551  0.00  0.00     0.025 A 
ATOM      6  C   UNL d   1      32.940  19.704 -22.473  0.00  0.00     0.022 A 
ATOM      7  N   UNL d   1      33.239  20.970 -23.085  0.00  0.00    -0.241 NA
ATOM      8  O   UNL d   1      33.229  20.255 -24.572  0.00  0.00    -0.285 OA
ATOM      9  C   UNL d   1      32.945  20.061 -21.734  0.00  0.00     0.003 A 
ATOM     10  C   UNL d   1      33.241  21.314 -22.329  0.00  0.00     0.099 A 
ATOM     11  C   UNL d   1      33.099  20.876 -21.677  0.00  0.00     0.021 A 
ENDROOT
BRANCH   1  12
ATOM     12  N   UNL d   1      32.642  17.756 -23.417  0.00  0.00    -0.114 N 
ATOM     13  O   UNL d   1      33.238  17.211 -23.247  0.00  0.00    -0.532 OA
ATOM     14  O   UNL d   1      31.912  17.516 -23.691  0.00  0.00    -0.532 OA
ENDBRANCH   1  12
TORSDOF 1
ENDMDL
