MODEL 1
REMARK VINA RESULT:      44.5      0.000      0.000
REMARK  5 active torsions:
REMARK  status: ('A' for Active; 'I' for Inactive)
REMARK    1  A    between atoms: C_3  and  N_1 
REMARK    2  A    between atoms: C_6  and  C_3 
REMARK    3  A    between atoms: C_9  and  C_3 
REMARK    4  A    between atoms: N_5  and  C_6 
REMARK    5  A    between atoms: O_18  and  C_14 
ROOT
ATOM      1  C   UNL d   1      60.168  49.237  51.115  0.00  0.00     0.106 C 
ENDROOT
BRANCH   1   2
ATOM      2  N   UNL d   1      60.640  48.642  50.769  0.00  0.00    -0.228 N 
ATOM      3  N   UNL d   1      60.602  47.821  50.806  0.00  0.00    -0.165 NA
ATOM      4  C   UNL d   1      61.228  47.532  50.342  0.00  0.00     0.103 A 
ATOM      5  C   UNL d   1      61.422  46.741  50.206  0.00  0.00     0.022 C 
ATOM      6  C   UNL d   1      61.634  48.186  50.033  0.00  0.00     0.040 A 
ATOM      7  C   UNL d   1      61.277  48.856  50.292  0.00  0.00     0.085 A 
ATOM      8  C   UNL d   1      61.525  49.636  50.099  0.00  0.00     0.021 C 
ENDBRANCH   1   2
BRANCH   1   9
ATOM      9  C   UNL d   1      60.495  49.708  51.723  0.00  0.00     0.167 C 
BRANCH   9  10
ATOM     10  N   UNL d   1      60.599  49.403  52.476  0.00  0.00    -0.111 N 
ATOM     11  O   UNL d   1      61.353  49.196  52.736  0.00  0.00    -0.532 OA
ATOM     12  O   UNL d   1      59.952  49.305  52.967  0.00  0.00    -0.532 OA
ENDBRANCH   9  10
ENDBRANCH   1   9
BRANCH   1  13
ATOM     13  C   UNL d   1      59.384  49.353  50.851  0.00  0.00     0.019 A 
ATOM     14  C   UNL d   1      58.781  49.595  51.371  0.00  0.00     0.004 A 
ATOM     15  C   UNL d   1      58.030  49.696  51.069  0.00  0.00     0.024 A 
ATOM     16  C   UNL d   1      57.887  49.556  50.261  0.00  0.00     0.094 A 
ATOM     17  C   UNL d   1      58.476  49.325  49.776  0.00  0.00     0.024 A 
ATOM     18  C   UNL d   1      59.240  49.218  50.061  0.00  0.00     0.004 A 
BRANCH  16  19
ATOM     19  O   UNL d   1      57.114  49.662  49.961  0.00  0.00    -0.328 OA
ATOM     20  C   UNL d   1      56.451  49.552  50.455  0.00  0.00     0.181 C 
ENDBRANCH  16  19
ENDBRANCH   1  13
TORSDOF 5
ENDMDL
