MODEL 1
REMARK VINA RESULT:      -3.1      0.000      0.000
REMARK  4 active torsions:
REMARK  status: ('A' for Active; 'I' for Inactive)
REMARK    1  A    between atoms: C_4  and  C_1 
REMARK    2  A    between atoms: C_2  and  C_3 
REMARK    3  A    between atoms: O_7  and  C_13 
REMARK    4  A    between atoms: C_12  and  O_7 
ROOT
ATOM      1  O   UNL d   1      33.224  18.438 -23.810  0.00  0.00    -0.307 OA
ENDROOT
BRANCH   1   2
ATOM      2  C   UNL d   1      32.598  17.897 -23.875  0.00  0.00     0.100 A 
ATOM      3  C   UNL d   1      31.955  18.093 -24.336  0.00  0.00     0.025 A 
ATOM      4  C   UNL d   1      31.319  17.559 -24.410  0.00  0.00     0.005 A 
ATOM      5  C   UNL d   1      31.338  16.849 -24.027  0.00  0.00     0.039 A 
ATOM      6  C   UNL d   1      31.994  16.645 -23.555  0.00  0.00     0.005 A 
ATOM      7  C   UNL d   1      32.632  17.178 -23.479  0.00  0.00     0.025 A 
BRANCH   5   8
ATOM      8  C   UNL d   1      30.703  16.316 -24.101  0.00  0.00     0.196 C 
ATOM      9  O   UNL d   1      30.412  16.105 -24.854  0.00  0.00    -0.287 OA
ATOM     10  C   UNL d   1      30.344  15.982 -23.439  0.00  0.00     0.045 C 
ENDBRANCH   5   8
ENDBRANCH   1   2
BRANCH   1  11
ATOM     11  C   UNL d   1      33.225  19.034 -23.223  0.00  0.00     0.100 A 
ATOM     12  C   UNL d   1      33.211  19.818 -23.483  0.00  0.00     0.025 A 
ATOM     13  C   UNL d   1      33.212  20.417 -22.896  0.00  0.00     0.005 A 
ATOM     14  C   UNL d   1      33.227  20.231 -22.088  0.00  0.00     0.039 A 
ATOM     15  C   UNL d   1      33.241  19.442 -21.869  0.00  0.00     0.005 A 
ATOM     16  C   UNL d   1      33.240  18.843 -22.434  0.00  0.00     0.025 A 
BRANCH  14  17
ATOM     17  C   UNL d   1      33.228  20.807 -21.524  0.00  0.00     0.196 C 
ATOM     18  O   UNL d   1      33.218  20.604 -20.715  0.00  0.00    -0.287 OA
ATOM     19  C   UNL d   1      33.239  21.596 -21.745  0.00  0.00     0.045 C 
ENDBRANCH  14  17
ENDBRANCH   1  11
TORSDOF 4
ENDMDL
MODEL 2
REMARK VINA RESULT:      -2.9      0.503      4.345
REMARK  4 active torsions:
REMARK  status: ('A' for Active; 'I' for Inactive)
REMARK    1  A    between atoms: C_4  and  C_1 
REMARK    2  A    between atoms: C_2  and  C_3 
REMARK    3  A    between atoms: O_7  and  C_13 
REMARK    4  A    between atoms: C_12  and  O_7 
ROOT
ATOM      1  O   UNL d   1      33.207  18.451 -24.001  0.00  0.00    -0.307 OA
ENDROOT
BRANCH   1   2
ATOM      2  C   UNL d   1      33.203  19.001 -23.379  0.00  0.00     0.100 A 
ATOM      3  C   UNL d   1      33.241  18.729 -22.612  0.00  0.00     0.025 A 
ATOM      4  C   UNL d   1      33.238  19.270 -21.979  0.00  0.00     0.005 A 
ATOM      5  C   UNL d   1      33.199  20.064 -22.123  0.00  0.00     0.039 A 
ATOM      6  C   UNL d   1      33.161  20.346 -22.906  0.00  0.00     0.005 A 
ATOM      7  C   UNL d   1      33.163  19.807 -23.542  0.00  0.00     0.025 A 
BRANCH   5   8
ATOM      8  C   UNL d   1      33.197  20.605 -21.490  0.00  0.00     0.196 C 
ATOM      9  O   UNL d   1      33.149  20.335 -20.701  0.00  0.00    -0.287 OA
ATOM     10  C   UNL d   1      33.241  21.418 -21.619  0.00  0.00     0.045 C 
ENDBRANCH   5   8
ENDBRANCH   1   2
BRANCH   1  11
ATOM     11  C   UNL d   1      32.524  18.007 -24.193  0.00  0.00     0.100 A 
ATOM     12  C   UNL d   1      32.071  18.272 -24.832  0.00  0.00     0.025 A 
ATOM     13  C   UNL d   1      31.386  17.829 -25.026  0.00  0.00     0.005 A 
ATOM     14  C   UNL d   1      31.172  17.153 -24.595  0.00  0.00     0.039 A 
ATOM     15  C   UNL d   1      31.645  16.922 -23.969  0.00  0.00     0.005 A 
ATOM     16  C   UNL d   1      32.321  17.347 -23.767  0.00  0.00     0.025 A 
BRANCH  14  17
ATOM     17  C   UNL d   1      30.513  16.727 -24.783  0.00  0.00     0.196 C 
ATOM     18  O   UNL d   1      30.570  15.910 -24.937  0.00  0.00    -0.287 OA
ATOM     19  C   UNL d   1      29.784  17.099 -24.821  0.00  0.00     0.045 C 
ENDBRANCH  14  17
ENDBRANCH   1  11
TORSDOF 4
ENDMDL
MODEL 3
REMARK VINA RESULT:      -2.6      1.721      3.099
REMARK  4 active torsions:
REMARK  status: ('A' for Active; 'I' for Inactive)
REMARK    1  A    between atoms: C_4  and  C_1 
REMARK    2  A    between atoms: C_2  and  C_3 
REMARK    3  A    between atoms: O_7  and  C_13 
REMARK    4  A    between atoms: C_12  and  O_7 
ROOT
ATOM      1  O   UNL d   1      33.241  20.359 -21.421  0.00  0.00    -0.307 OA
ENDROOT
BRANCH   1   2
ATOM      2  C   UNL d   1      33.173  19.935 -22.131  0.00  0.00     0.100 A 
ATOM      3  C   UNL d   1      33.041  19.131 -22.099  0.00  0.00     0.025 A 
ATOM      4  C   UNL d   1      32.972  18.693 -22.805  0.00  0.00     0.005 A 
ATOM      5  C   UNL d   1      33.035  19.062 -23.520  0.00  0.00     0.039 A 
ATOM      6  C   UNL d   1      33.170  19.884 -23.557  0.00  0.00     0.005 A 
ATOM      7  C   UNL d   1      33.240  20.325 -22.852  0.00  0.00     0.025 A 
BRANCH   5   8
ATOM      8  C   UNL d   1      32.966  18.625 -24.225  0.00  0.00     0.196 C 
ATOM      9  O   UNL d   1      32.848  17.799 -24.202  0.00  0.00    -0.287 OA
ATOM     10  C   UNL d   1      33.010  18.989 -24.963  0.00  0.00     0.045 C 
ENDBRANCH   5   8
ENDBRANCH   1   2
BRANCH   1  11
ATOM     11  C   UNL d   1      32.889  21.112 -21.329  0.00  0.00     0.100 A 
ATOM     12  C   UNL d   1      32.215  21.156 -20.852  0.00  0.00     0.025 A 
ATOM     13  C   UNL d   1      31.860  21.910 -20.759  0.00  0.00     0.005 A 
ATOM     14  C   UNL d   1      32.172  22.584 -21.128  0.00  0.00     0.039 A 
ATOM     15  C   UNL d   1      32.842  22.500 -21.592  0.00  0.00     0.005 A 
ATOM     16  C   UNL d   1      33.200  21.766 -21.693  0.00  0.00     0.025 A 
BRANCH  14  17
ATOM     17  C   UNL d   1      31.831  23.309 -21.037  0.00  0.00     0.196 C 
ATOM     18  O   UNL d   1      31.499  23.702 -21.693  0.00  0.00    -0.287 OA
ATOM     19  C   UNL d   1      31.811  23.661 -20.298  0.00  0.00     0.045 C 
ENDBRANCH  14  17
ENDBRANCH   1  11
TORSDOF 4
ENDMDL
