MODEL 1
REMARK VINA RESULT:      35.1      0.000      0.000
REMARK  7 active torsions:
REMARK  status: ('A' for Active; 'I' for Inactive)
REMARK    1  A    between atoms: C_2  and  S_1 
REMARK    2  A    between atoms: N_8  and  S_1 
REMARK    3  A    between atoms: C_13  and  N_8 
REMARK    4  A    between atoms: N_9  and  C_14 
REMARK    5  A    between atoms: O_15  and  C_10 
REMARK    6  A    between atoms: C_14  and  C_13 
REMARK    7  A    between atoms: C_22  and  O_15 
ROOT
ATOM      1  C   UNL d   1     -57.008 -98.810 -44.471  0.00  0.00     0.105 A 
ATOM      2  C   UNL d   1     -57.598 -98.792 -43.907  0.00  0.00     0.014 A 
ATOM      3  C   UNL d   1     -58.391 -98.776 -44.134  0.00  0.00     0.024 A 
ATOM      4  C   UNL d   1     -57.206 -98.811 -45.276  0.00  0.00     0.015 A 
ATOM      5  C   UNL d   1     -58.594 -98.777 -44.926  0.00  0.00     0.100 A 
ATOM      6  C   UNL d   1     -57.999 -98.794 -45.503  0.00  0.00     0.025 A 
ATOM      7  C   UNL d   1     -57.399 -98.791 -43.107  0.00  0.00     0.001 A 
ATOM      8  C   UNL d   1     -58.985 -98.759 -43.562  0.00  0.00     0.002 A 
ATOM      9  C   UNL d   1     -57.992 -98.774 -42.533  0.00  0.00     0.000 A 
ATOM     10  C   UNL d   1     -58.785 -98.758 -42.761  0.00  0.00     0.000 A 
ENDROOT
BRANCH   1  11
ATOM     11  S   UNL d   1     -56.215 -98.826 -44.244  0.00  0.00     0.285 S 
ATOM     12  O   UNL d   1     -55.986 -98.762 -45.041  0.00  0.00    -0.198 OA
ATOM     13  O   UNL d   1     -56.441 -98.889 -43.463  0.00  0.00    -0.198 OA
BRANCH  11  14
ATOM     14  N   UNL d   1     -55.423 -98.843 -44.016  0.00  0.00    -0.155 NA
BRANCH  14  15
ATOM     15  C   UNL d   1     -55.047 -99.555 -43.879  0.00  0.00     0.131 C 
BRANCH  15  16
ATOM     16  C   UNL d   1     -54.866-100.059 -44.507  0.00  0.00     0.102 C 
BRANCH  16  17
ATOM     17  N   UNL d   1     -54.815-100.872 -44.382  0.00  0.00    -0.298 N 
ATOM     18  C   UNL d   1     -54.788-101.389 -45.024  0.00  0.00     0.107 A 
ATOM     19  C   UNL d   1     -54.737-102.207 -44.901  0.00  0.00     0.142 A 
ATOM     20  O   UNL d   1     -54.713-102.504 -44.132  0.00  0.00    -0.300 OA
ATOM     21  C   UNL d   1     -54.741-101.984 -43.486  0.00  0.00     0.142 A 
ATOM     22  C   UNL d   1     -54.792-101.170 -43.613  0.00  0.00     0.107 A 
ENDBRANCH  16  17
ENDBRANCH  15  16
ENDBRANCH  14  15
ENDBRANCH  11  14
ENDBRANCH   1  11
BRANCH   5  23
ATOM     23  O   UNL d   1     -59.384 -98.760 -45.159  0.00  0.00    -0.305 OA
BRANCH  23  24
ATOM     24  C   UNL d   1     -59.727 -99.414 -45.523  0.00  0.00     0.123 C 
ATOM     25  C   UNL d   1     -59.910 -99.392 -46.327  0.00  0.00     0.029 C 
ENDBRANCH  23  24
ENDBRANCH   5  23
TORSDOF 7
ENDMDL
