MODEL 1
REMARK VINA RESULT:      53.9      0.000      0.000
REMARK  4 active torsions:
REMARK  status: ('A' for Active; 'I' for Inactive)
REMARK    1  A    between atoms: C_2  and  C_1 
REMARK       I    between atoms: N_6  and  C_2 
REMARK    2  A    between atoms: C_4  and  C_11 
REMARK    3  A    between atoms: N_8  and  N_6 
REMARK    4  A    between atoms: C_11  and  N_8 
ROOT
ATOM      1  C   UNL d   1      57.314  49.431  50.925  0.00  0.00     0.300 C 
ATOM      2  O   UNL d   1      56.865  49.667  51.576  0.00  0.00    -0.264 OA
ATOM      3  N   UNL d   1      58.143  49.457  50.957  0.00  0.00    -0.105 NA
ENDROOT
BRANCH   3   4
ATOM      4  N   UNL d   1      58.594  49.222  50.308  0.00  0.00    -0.143 NA
BRANCH   4   5
ATOM      5  C   UNL d   1      59.332  49.588  50.147  0.00  0.00     0.126 C 
BRANCH   5   6
ATOM      6  C   UNL d   1      59.931  49.574  50.708  0.00  0.00     0.060 A 
ATOM      7  C   UNL d   1      60.720  49.428  50.482  0.00  0.00     0.197 A 
ATOM      8  O   UNL d   1      60.895  49.298  49.693  0.00  0.00    -0.286 OA
ATOM      9  C   UNL d   1      61.318  49.415  51.042  0.00  0.00     0.042 A 
ATOM     10  C   UNL d   1      61.144  49.545  51.834  0.00  0.00     0.003 A 
ATOM     11  C   UNL d   1      60.347  49.694  52.072  0.00  0.00     0.000 A 
ATOM     12  C   UNL d   1      59.747  49.708  51.509  0.00  0.00     0.005 A 
ENDBRANCH   5   6
ENDBRANCH   4   5
ENDBRANCH   3   4
BRANCH   1  13
ATOM     13  C   UNL d   1      56.939  49.167  50.239  0.00  0.00     0.098 A 
ATOM     14  C   UNL d   1      56.799  48.359  50.142  0.00  0.00     0.200 A 
ATOM     15  O   UNL d   1      57.034  47.832  50.726  0.00  0.00    -0.286 OA
ATOM     16  C   UNL d   1      56.424  48.074  49.460  0.00  0.00     0.042 A 
ATOM     17  C   UNL d   1      56.189  48.602  48.876  0.00  0.00     0.003 A 
ATOM     18  C   UNL d   1      56.326  49.421  48.965  0.00  0.00     0.000 A 
ATOM     19  C   UNL d   1      56.698  49.708  49.639  0.00  0.00     0.008 A 
ENDBRANCH   1  13
TORSDOF 4
ENDMDL
MODEL 2
REMARK VINA RESULT:      55.0      3.129      4.480
REMARK  4 active torsions:
REMARK  status: ('A' for Active; 'I' for Inactive)
REMARK    1  A    between atoms: C_2  and  C_1 
REMARK       I    between atoms: N_6  and  C_2 
REMARK    2  A    between atoms: C_4  and  C_11 
REMARK    3  A    between atoms: N_8  and  N_6 
REMARK    4  A    between atoms: C_11  and  N_8 
ROOT
ATOM      1  C   UNL d   1      62.005  46.368  49.677  0.00  0.00     0.300 C 
ATOM      2  O   UNL d   1      62.524  46.093  49.098  0.00  0.00    -0.264 OA
ATOM      3  N   UNL d   1      61.977  47.177  49.865  0.00  0.00    -0.105 NA
ENDROOT
BRANCH   3   4
ATOM      4  N   UNL d   1      61.458  47.454  50.444  0.00  0.00    -0.143 NA
BRANCH   4   5
ATOM      5  C   UNL d   1      61.541  48.230  50.752  0.00  0.00     0.126 C 
BRANCH   5   6
ATOM      6  C   UNL d   1      60.886  48.718  50.824  0.00  0.00     0.060 A 
ATOM      7  C   UNL d   1      60.794  49.208  51.491  0.00  0.00     0.197 A 
ATOM      8  O   UNL d   1      61.364  49.199  52.079  0.00  0.00    -0.286 OA
ATOM      9  C   UNL d   1      60.140  49.696  51.563  0.00  0.00     0.042 A 
ATOM     10  C   UNL d   1      59.567  49.707  50.975  0.00  0.00     0.003 A 
ATOM     11  C   UNL d   1      59.652  49.214  50.295  0.00  0.00     0.000 A 
ATOM     12  C   UNL d   1      60.309  48.724  50.223  0.00  0.00     0.005 A 
ENDBRANCH   5   6
ENDBRANCH   4   5
ENDBRANCH   3   4
BRANCH   1  13
ATOM     13  C   UNL d   1      61.511  45.838  50.073  0.00  0.00     0.098 A 
ATOM     14  C   UNL d   1      61.169  45.216  49.652  0.00  0.00     0.200 A 
ATOM     15  O   UNL d   1      61.324  45.132  48.851  0.00  0.00    -0.286 OA
ATOM     16  C   UNL d   1      60.670  44.674  50.032  0.00  0.00     0.042 A 
ATOM     17  C   UNL d   1      60.515  44.757  50.835  0.00  0.00     0.003 A 
ATOM     18  C   UNL d   1      60.857  45.384  51.269  0.00  0.00     0.000 A 
ATOM     19  C   UNL d   1      61.352  45.924  50.897  0.00  0.00     0.008 A 
ENDBRANCH   1  13
TORSDOF 4
ENDMDL
