MODEL 1
REMARK VINA RESULT:     149.6      0.000      0.000
REMARK  5 active torsions:
REMARK  status: ('A' for Active; 'I' for Inactive)
REMARK    1  A    between atoms: N_10  and  C_3 
REMARK    2  A    between atoms: C_11  and  C_5 
REMARK    3  A    between atoms: C_15  and  C_9 
REMARK    4  A    between atoms: C_16  and  N_10 
REMARK       I    between atoms: C_12  and  N_13 
REMARK    5  A    between atoms: N_13  and  C_17 
ROOT
ATOM      1  C   UNL d   1      61.415  45.252  50.626  0.00  0.00     0.168 A 
ATOM      2  N   UNL d   1      60.890  45.859  50.781  0.00  0.00    -0.184 N 
ATOM      3  C   UNL d   1      60.980  46.560  50.399  0.00  0.00     0.218 A 
ATOM      4  N   UNL d   1      60.211  45.040  51.692  0.00  0.00    -0.162 NA
ATOM      5  C   UNL d   1      61.335  44.554  51.000  0.00  0.00     0.055 A 
ATOM      6  N   UNL d   1      62.009  45.369  50.095  0.00  0.00    -0.227 NA
ATOM      7  C   UNL d   1      61.596  46.671  49.852  0.00  0.00     0.071 A 
ATOM      8  C   UNL d   1      60.736  44.433  51.537  0.00  0.00     0.104 A 
ATOM      9  C   UNL d   1      62.091  46.069  49.718  0.00  0.00     0.087 A 
ATOM     10  C   UNL d   1      60.658  43.738  51.908  0.00  0.00     0.023 C 
ENDROOT
BRANCH   3  11
ATOM     11  N   UNL d   1      60.443  47.186  50.556  0.00  0.00    -0.383 NA
BRANCH  11  12
ATOM     12  C   UNL d   1      59.838  47.740  50.671  0.00  0.00     0.134 A 
ATOM     13  C   UNL d   1      59.932  48.364  51.199  0.00  0.00     0.034 A 
ATOM     14  C   UNL d   1      59.307  48.925  51.310  0.00  0.00     0.022 A 
ATOM     15  C   UNL d   1      58.597  48.848  50.886  0.00  0.00     0.085 A 
ATOM     16  C   UNL d   1      58.496  48.216  50.348  0.00  0.00     0.022 A 
ATOM     17  C   UNL d   1      59.114  47.652  50.232  0.00  0.00     0.034 A 
BRANCH  15  18
ATOM     18  N   UNL d   1      57.979  49.399  50.992  0.00  0.00    -0.208 NA
ATOM     19  C   UNL d   1      57.192  49.155  50.954  0.00  0.00     0.279 C 
ATOM     20  O   UNL d   1      56.578  49.705  51.060  0.00  0.00    -0.265 OA
ATOM     21  C   UNL d   1      57.008  48.354  50.807  0.00  0.00     0.068 C 
ENDBRANCH  15  18
ENDBRANCH  11  12
ENDBRANCH   3  11
BRANCH   9  22
ATOM     22  C   UNL d   1      62.719  46.186  49.160  0.00  0.00     0.018 C 
ATOM     23  C   UNL d   1      63.147  45.511  48.867  0.00  0.00     0.002 C 
ATOM     24  C   UNL d   1      62.916  46.965  48.898  0.00  0.00     0.002 C 
ENDBRANCH   9  22
BRANCH   5  25
ATOM     25  C   UNL d   1      61.865  43.941  50.843  0.00  0.00     0.004 A 
ATOM     26  C   UNL d   1      62.082  43.784  50.084  0.00  0.00     0.000 A 
ATOM     27  C   UNL d   1      62.604  43.180  49.930  0.00  0.00     0.000 A 
ATOM     28  C   UNL d   1      62.898  42.745  50.538  0.00  0.00     0.000 A 
ATOM     29  C   UNL d   1      62.676  42.908  51.302  0.00  0.00     0.000 A 
ATOM     30  C   UNL d   1      62.161  43.504  51.446  0.00  0.00     0.000 A 
ENDBRANCH   5  25
TORSDOF 5
ENDMDL
MODEL 2
REMARK VINA RESULT:     151.7      2.473      5.317
REMARK  5 active torsions:
REMARK  status: ('A' for Active; 'I' for Inactive)
REMARK    1  A    between atoms: N_10  and  C_3 
REMARK    2  A    between atoms: C_11  and  C_5 
REMARK    3  A    between atoms: C_15  and  C_9 
REMARK    4  A    between atoms: C_16  and  N_10 
REMARK       I    between atoms: C_12  and  N_13 
REMARK    5  A    between atoms: N_13  and  C_17 
ROOT
ATOM      1  C   UNL d   1      61.198  46.874  50.866  0.00  0.00     0.168 A 
ATOM      2  N   UNL d   1      61.174  46.121  51.183  0.00  0.00    -0.184 N 
ATOM      3  C   UNL d   1      61.617  45.541  50.846  0.00  0.00     0.218 A 
ATOM      4  N   UNL d   1      60.269  46.560  52.158  0.00  0.00    -0.162 NA
ATOM      5  C   UNL d   1      60.764  47.455  51.193  0.00  0.00     0.055 A 
ATOM      6  N   UNL d   1      61.663  47.019  50.224  0.00  0.00    -0.227 NA
ATOM      7  C   UNL d   1      62.093  45.700  50.184  0.00  0.00     0.071 A 
ATOM      8  C   UNL d   1      60.293  47.313  51.841  0.00  0.00     0.104 A 
ATOM      9  C   UNL d   1      62.100  46.436  49.895  0.00  0.00     0.087 A 
ATOM     10  C   UNL d   1      59.862  47.893  52.164  0.00  0.00     0.023 C 
ENDROOT
BRANCH   3  11
ATOM     11  N   UNL d   1      61.595  44.767  51.169  0.00  0.00    -0.383 NA
BRANCH  11  12
ATOM     12  C   UNL d   1      61.617  43.971  51.396  0.00  0.00     0.134 A 
ATOM     13  C   UNL d   1      61.018  43.647  51.858  0.00  0.00     0.034 A 
ATOM     14  C   UNL d   1      61.050  42.831  52.086  0.00  0.00     0.022 A 
ATOM     15  C   UNL d   1      61.686  42.355  51.842  0.00  0.00     0.085 A 
ATOM     16  C   UNL d   1      62.296  42.679  51.373  0.00  0.00     0.022 A 
ATOM     17  C   UNL d   1      62.272  43.491  51.142  0.00  0.00     0.034 A 
BRANCH  15  18
ATOM     18  N   UNL d   1      61.720  41.551  52.064  0.00  0.00    -0.208 NA
ATOM     19  C   UNL d   1      62.177  41.018  51.631  0.00  0.00     0.279 C 
ATOM     20  O   UNL d   1      62.211  40.218  51.852  0.00  0.00    -0.265 OA
ATOM     21  C   UNL d   1      62.608  41.281  50.966  0.00  0.00     0.068 C 
ENDBRANCH  15  18
ENDBRANCH  11  12
ENDBRANCH   3  11
BRANCH   9  22
ATOM     22  C   UNL d   1      62.588  46.594  49.219  0.00  0.00     0.018 C 
ATOM     23  C   UNL d   1      62.982  45.948  48.830  0.00  0.00     0.002 C 
ATOM     24  C   UNL d   1      62.680  47.386  48.937  0.00  0.00     0.002 C 
ENDBRANCH   9  22
BRANCH   5  25
ATOM     25  C   UNL d   1      60.788  48.216  50.872  0.00  0.00     0.004 A 
ATOM     26  C   UNL d   1      60.286  48.415  50.276  0.00  0.00     0.000 A 
ATOM     27  C   UNL d   1      60.310  49.164  49.961  0.00  0.00     0.000 A 
ATOM     28  C   UNL d   1      60.835  49.698  50.248  0.00  0.00     0.000 A 
ATOM     29  C   UNL d   1      61.340  49.493  50.850  0.00  0.00     0.000 A 
ATOM     30  C   UNL d   1      61.311  48.753  51.156  0.00  0.00     0.000 A 
ENDBRANCH   5  25
TORSDOF 5
ENDMDL
