MODEL 1
REMARK VINA RESULT:      -5.2      0.000      0.000
REMARK  7 active torsions:
REMARK  status: ('A' for Active; 'I' for Inactive)
REMARK    1  A    between atoms: C_8  and  C_1 
REMARK    2  A    between atoms: N_7  and  C_2 
REMARK    3  A    between atoms: C_5  and  N_7 
REMARK    4  A    between atoms: N_9  and  C_5 
REMARK    5  A    between atoms: O_14  and  C_8 
REMARK    6  A    between atoms: C_10  and  N_9 
REMARK    7  A    between atoms: C_20  and  O_14 
ROOT
ATOM      1  C   UNL d   1     -46.469  12.779  22.998  0.00  0.00     0.162 A 
ATOM      2  C   UNL d   1     -47.273  12.853  23.123  0.00  0.00     0.108 A 
ATOM      3  N   UNL d   1     -46.260  11.990  23.123  0.00  0.00    -0.239 NA
ATOM      4  C   UNL d   1     -47.571  12.117  23.326  0.00  0.00     0.037 A 
ATOM      5  C   UNL d   1     -46.948  11.579  23.328  0.00  0.00     0.083 A 
ATOM      6  C   UNL d   1     -48.333  11.863  23.511  0.00  0.00     0.003 A 
ATOM      7  C   UNL d   1     -47.083  10.786  23.514  0.00  0.00     0.019 A 
ATOM      8  C   UNL d   1     -48.475  11.074  23.698  0.00  0.00     0.000 A 
ATOM      9  C   UNL d   1     -47.843  10.536  23.698  0.00  0.00     0.002 A 
ENDROOT
BRANCH   2  10
ATOM     10  N   UNL d   1     -47.719  13.555  23.057  0.00  0.00    -0.216 NA
BRANCH  10  11
ATOM     11  C   UNL d   1     -48.385  13.570  22.568  0.00  0.00     0.221 C 
ATOM     12  S   UNL d   1     -48.307  13.516  21.746  0.00  0.00    -0.037 SA
BRANCH  11  13
ATOM     13  N   UNL d   1     -49.135  13.639  22.910  0.00  0.00    -0.217 NA
BRANCH  13  14
ATOM     14  C   UNL d   1     -49.539  14.356  22.860  0.00  0.00     0.084 A 
ATOM     15  C   UNL d   1     -50.345  14.374  22.668  0.00  0.00     0.018 A 
ATOM     16  C   UNL d   1     -50.758  13.658  22.522  0.00  0.00     0.002 C 
ATOM     17  C   UNL d   1     -50.752  15.086  22.617  0.00  0.00     0.002 A 
ATOM     18  C   UNL d   1     -50.346  15.792  22.760  0.00  0.00     0.000 A 
ATOM     19  C   UNL d   1     -49.542  15.788  22.953  0.00  0.00     0.002 A 
ATOM     20  C   UNL d   1     -49.142  15.062  23.001  0.00  0.00     0.019 A 
ENDBRANCH  13  14
ENDBRANCH  11  13
ENDBRANCH  10  11
ENDBRANCH   2  10
BRANCH   1  21
ATOM     21  C   UNL d   1     -45.953  13.386  22.783  0.00  0.00     0.320 C 
ATOM     22  O   UNL d   1     -45.877  14.049  23.270  0.00  0.00    -0.257 OA
BRANCH  21  23
ATOM     23  O   UNL d   1     -45.513  13.341  22.093  0.00  0.00    -0.270 OA
BRANCH  23  24
ATOM     24  C   UNL d   1     -44.689  13.290  22.138  0.00  0.00     0.126 C 
ATOM     25  C   UNL d   1     -44.238  13.391  21.462  0.00  0.00     0.029 C 
ENDBRANCH  23  24
ENDBRANCH  21  23
ENDBRANCH   1  21
TORSDOF 7
ENDMDL
MODEL 2
REMARK VINA RESULT:      -5.1      8.927      9.912
REMARK  7 active torsions:
REMARK  status: ('A' for Active; 'I' for Inactive)
REMARK    1  A    between atoms: C_8  and  C_1 
REMARK    2  A    between atoms: N_7  and  C_2 
REMARK    3  A    between atoms: C_5  and  N_7 
REMARK    4  A    between atoms: N_9  and  C_5 
REMARK    5  A    between atoms: O_14  and  C_8 
REMARK    6  A    between atoms: C_10  and  N_9 
REMARK    7  A    between atoms: C_20  and  O_14 
ROOT
ATOM      1  C   UNL d   1     -39.324  14.022  17.673  0.00  0.00     0.162 A 
ATOM      2  C   UNL d   1     -39.559  14.546  18.253  0.00  0.00     0.108 A 
ATOM      3  N   UNL d   1     -39.814  14.125  17.018  0.00  0.00    -0.239 NA
ATOM      4  C   UNL d   1     -40.194  14.980  17.967  0.00  0.00     0.037 A 
ATOM      5  C   UNL d   1     -40.356  14.723  17.202  0.00  0.00     0.083 A 
ATOM      6  C   UNL d   1     -40.649  15.578  18.304  0.00  0.00     0.003 A 
ATOM      7  C   UNL d   1     -40.972  15.062  16.770  0.00  0.00     0.019 A 
ATOM      8  C   UNL d   1     -41.265  15.922  17.879  0.00  0.00     0.000 A 
ATOM      9  C   UNL d   1     -41.423  15.658  17.108  0.00  0.00     0.002 A 
ENDROOT
BRANCH   2  10
ATOM     10  N   UNL d   1     -39.216  14.631  19.009  0.00  0.00    -0.216 NA
BRANCH  10  11
ATOM     11  C   UNL d   1     -39.604  14.320  19.670  0.00  0.00     0.221 C 
ATOM     12  S   UNL d   1     -40.416  14.437  19.777  0.00  0.00    -0.037 SA
BRANCH  11  13
ATOM     13  N   UNL d   1     -39.169  13.889  20.226  0.00  0.00    -0.217 NA
BRANCH  13  14
ATOM     14  C   UNL d   1     -39.091  14.179  20.993  0.00  0.00     0.084 A 
ATOM     15  C   UNL d   1     -38.540  13.847  21.516  0.00  0.00     0.018 A 
ATOM     16  C   UNL d   1     -38.055  13.209  21.266  0.00  0.00     0.002 C 
ATOM     17  C   UNL d   1     -38.458  14.133  22.282  0.00  0.00     0.002 A 
ATOM     18  C   UNL d   1     -38.934  14.762  22.530  0.00  0.00     0.000 A 
ATOM     19  C   UNL d   1     -39.487  15.102  22.018  0.00  0.00     0.002 A 
ATOM     20  C   UNL d   1     -39.561  14.804  21.246  0.00  0.00     0.019 A 
ENDBRANCH  13  14
ENDBRANCH  11  13
ENDBRANCH  10  11
ENDBRANCH   2  10
BRANCH   1  21
ATOM     21  C   UNL d   1     -38.704  13.480  17.731  0.00  0.00     0.320 C 
ATOM     22  O   UNL d   1     -37.940  13.750  17.888  0.00  0.00    -0.257 OA
BRANCH  21  23
ATOM     23  O   UNL d   1     -38.836  12.676  17.634  0.00  0.00    -0.270 OA
BRANCH  23  24
ATOM     24  C   UNL d   1     -38.205  12.183  17.425  0.00  0.00     0.126 C 
ATOM     25  C   UNL d   1     -38.206  11.400  17.663  0.00  0.00     0.029 C 
ENDBRANCH  23  24
ENDBRANCH  21  23
ENDBRANCH   1  21
TORSDOF 7
ENDMDL
MODEL 3
REMARK VINA RESULT:      -4.6      1.577      3.979
REMARK  7 active torsions:
REMARK  status: ('A' for Active; 'I' for Inactive)
REMARK    1  A    between atoms: C_8  and  C_1 
REMARK    2  A    between atoms: N_7  and  C_2 
REMARK    3  A    between atoms: C_5  and  N_7 
REMARK    4  A    between atoms: N_9  and  C_5 
REMARK    5  A    between atoms: O_14  and  C_8 
REMARK    6  A    between atoms: C_10  and  N_9 
REMARK    7  A    between atoms: C_20  and  O_14 
ROOT
ATOM      1  C   UNL d   1     -49.849  13.659  22.553  0.00  0.00     0.162 A 
ATOM      2  C   UNL d   1     -49.224  13.175  22.757  0.00  0.00     0.108 A 
ATOM      3  N   UNL d   1     -50.551  13.276  22.758  0.00  0.00    -0.239 NA
ATOM      4  C   UNL d   1     -49.528  12.489  23.090  0.00  0.00     0.037 A 
ATOM      5  C   UNL d   1     -50.349  12.547  23.092  0.00  0.00     0.083 A 
ATOM      6  C   UNL d   1     -49.163  11.815  23.392  0.00  0.00     0.003 A 
ATOM      7  C   UNL d   1     -50.809  11.933  23.397  0.00  0.00     0.019 A 
ATOM      8  C   UNL d   1     -49.615  11.198  23.698  0.00  0.00     0.000 A 
ATOM      9  C   UNL d   1     -50.443  11.263  23.698  0.00  0.00     0.002 A 
ENDROOT
BRANCH   2  10
ATOM     10  N   UNL d   1     -48.414  13.343  22.649  0.00  0.00    -0.216 NA
BRANCH  10  11
ATOM     11  C   UNL d   1     -47.927  12.783  22.286  0.00  0.00     0.221 C 
ATOM     12  S   UNL d   1     -48.051  12.562  21.498  0.00  0.00    -0.037 SA
BRANCH  11  13
ATOM     13  N   UNL d   1     -47.311  12.443  22.721  0.00  0.00    -0.217 NA
BRANCH  13  14
ATOM     14  C   UNL d   1     -46.533  12.667  22.565  0.00  0.00     0.084 A 
ATOM     15  C   UNL d   1     -45.899  12.193  22.812  0.00  0.00     0.018 A 
ATOM     16  C   UNL d   1     -46.046  11.477  23.225  0.00  0.00     0.002 C 
ATOM     17  C   UNL d   1     -45.122  12.410  22.658  0.00  0.00     0.002 A 
ATOM     18  C   UNL d   1     -44.976  13.115  22.251  0.00  0.00     0.000 A 
ATOM     19  C   UNL d   1     -45.599  13.597  22.000  0.00  0.00     0.002 A 
ATOM     20  C   UNL d   1     -46.380  13.366  22.161  0.00  0.00     0.019 A 
ENDBRANCH  13  14
ENDBRANCH  11  13
ENDBRANCH  10  11
ENDBRANCH   2  10
BRANCH   1  21
ATOM     21  C   UNL d   1     -49.792  14.404  22.202  0.00  0.00     0.320 C 
ATOM     22  O   UNL d   1     -49.965  14.492  21.399  0.00  0.00    -0.257 OA
BRANCH  21  23
ATOM     23  O   UNL d   1     -49.565  15.060  22.639  0.00  0.00    -0.270 OA
BRANCH  23  24
ATOM     24  C   UNL d   1     -50.095  15.688  22.735  0.00  0.00     0.126 C 
ATOM     25  C   UNL d   1     -50.335  15.904  23.487  0.00  0.00     0.029 C 
ENDBRANCH  23  24
ENDBRANCH  21  23
ENDBRANCH   1  21
TORSDOF 7
ENDMDL
MODEL 4
REMARK VINA RESULT:      -4.6      6.661      9.487
REMARK  7 active torsions:
REMARK  status: ('A' for Active; 'I' for Inactive)
REMARK    1  A    between atoms: C_8  and  C_1 
REMARK    2  A    between atoms: N_7  and  C_2 
REMARK    3  A    between atoms: C_5  and  N_7 
REMARK    4  A    between atoms: N_9  and  C_5 
REMARK    5  A    between atoms: O_14  and  C_8 
REMARK    6  A    between atoms: C_10  and  N_9 
REMARK    7  A    between atoms: C_20  and  O_14 
ROOT
ATOM      1  C   UNL d   1     -40.664  14.455  19.789  0.00  0.00     0.162 A 
ATOM      2  C   UNL d   1     -39.931  14.812  19.840  0.00  0.00     0.108 A 
ATOM      3  N   UNL d   1     -40.724  14.093  19.050  0.00  0.00    -0.239 NA
ATOM      4  C   UNL d   1     -39.530  14.678  19.137  0.00  0.00     0.037 A 
ATOM      5  C   UNL d   1     -40.017  14.233  18.645  0.00  0.00     0.083 A 
ATOM      6  C   UNL d   1     -38.781  14.904  18.879  0.00  0.00     0.003 A 
ATOM      7  C   UNL d   1     -39.758  14.012  17.893  0.00  0.00     0.019 A 
ATOM      8  C   UNL d   1     -38.516  14.687  18.130  0.00  0.00     0.000 A 
ATOM      9  C   UNL d   1     -39.011  14.238  17.638  0.00  0.00     0.002 A 
ENDROOT
BRANCH   2  10
ATOM     10  N   UNL d   1     -39.636  15.241  20.492  0.00  0.00    -0.216 NA
BRANCH  10  11
ATOM     11  C   UNL d   1     -38.911  15.028  20.826  0.00  0.00     0.221 C 
ATOM     12  S   UNL d   1     -38.216  15.427  20.617  0.00  0.00    -0.037 SA
BRANCH  11  13
ATOM     13  N   UNL d   1     -38.886  14.408  21.373  0.00  0.00    -0.217 NA
BRANCH  13  14
ATOM     14  C   UNL d   1     -38.646  14.560  22.147  0.00  0.00     0.084 A 
ATOM     15  C   UNL d   1     -38.416  13.940  22.647  0.00  0.00     0.018 A 
ATOM     16  C   UNL d   1     -38.425  13.149  22.367  0.00  0.00     0.002 C 
ATOM     17  C   UNL d   1     -38.176  14.086  23.419  0.00  0.00     0.002 A 
ATOM     18  C   UNL d   1     -38.167  14.865  23.696  0.00  0.00     0.000 A 
ATOM     19  C   UNL d   1     -38.394  15.492  23.208  0.00  0.00     0.002 A 
ATOM     20  C   UNL d   1     -38.634  15.332  22.429  0.00  0.00     0.019 A 
ENDBRANCH  13  14
ENDBRANCH  11  13
ENDBRANCH  10  11
ENDBRANCH   2  10
BRANCH   1  21
ATOM     21  C   UNL d   1     -41.245  14.454  20.376  0.00  0.00     0.320 C 
ATOM     22  O   UNL d   1     -41.575  15.168  20.624  0.00  0.00    -0.257 OA
BRANCH  21  23
ATOM     23  O   UNL d   1     -41.500  13.752  20.716  0.00  0.00    -0.270 OA
BRANCH  23  24
ATOM     24  C   UNL d   1     -42.245  13.721  21.073  0.00  0.00     0.126 C 
ATOM     25  C   UNL d   1     -42.508  13.019  21.402  0.00  0.00     0.029 C 
ENDBRANCH  23  24
ENDBRANCH  21  23
ENDBRANCH   1  21
TORSDOF 7
ENDMDL
MODEL 5
REMARK VINA RESULT:      -3.5      1.512      2.749
REMARK  7 active torsions:
REMARK  status: ('A' for Active; 'I' for Inactive)
REMARK    1  A    between atoms: C_8  and  C_1 
REMARK    2  A    between atoms: N_7  and  C_2 
REMARK    3  A    between atoms: C_5  and  N_7 
REMARK    4  A    between atoms: N_9  and  C_5 
REMARK    5  A    between atoms: O_14  and  C_8 
REMARK    6  A    between atoms: C_10  and  N_9 
REMARK    7  A    between atoms: C_20  and  O_14 
ROOT
ATOM      1  C   UNL d   1     -46.658  13.911  22.791  0.00  0.00     0.162 A 
ATOM      2  C   UNL d   1     -46.774  13.104  22.845  0.00  0.00     0.108 A 
ATOM      3  N   UNL d   1     -45.867  14.046  22.597  0.00  0.00    -0.239 NA
ATOM      4  C   UNL d   1     -46.061  12.731  22.686  0.00  0.00     0.037 A 
ATOM      5  C   UNL d   1     -45.497  13.309  22.532  0.00  0.00     0.083 A 
ATOM      6  C   UNL d   1     -45.851  11.934  22.662  0.00  0.00     0.003 A 
ATOM      7  C   UNL d   1     -44.720  13.095  22.352  0.00  0.00     0.019 A 
ATOM      8  C   UNL d   1     -45.078  11.713  22.483  0.00  0.00     0.000 A 
ATOM      9  C   UNL d   1     -44.513  12.301  22.329  0.00  0.00     0.002 A 
ENDROOT
BRANCH   2  10
ATOM     10  N   UNL d   1     -47.492  12.721  23.030  0.00  0.00    -0.216 NA
BRANCH  10  11
ATOM     11  C   UNL d   1     -47.909  12.328  22.435  0.00  0.00     0.221 C 
ATOM     12  S   UNL d   1     -47.707  12.432  21.639  0.00  0.00    -0.037 SA
BRANCH  11  13
ATOM     13  N   UNL d   1     -48.533  11.827  22.643  0.00  0.00    -0.217 NA
BRANCH  13  14
ATOM     14  C   UNL d   1     -49.301  12.019  22.416  0.00  0.00     0.084 A 
ATOM     15  C   UNL d   1     -49.938  11.900  22.933  0.00  0.00     0.018 A 
ATOM     16  C   UNL d   1     -49.803  11.580  23.698  0.00  0.00     0.002 C 
ATOM     17  C   UNL d   1     -50.705  12.090  22.711  0.00  0.00     0.002 A 
ATOM     18  C   UNL d   1     -50.840  12.405  21.958  0.00  0.00     0.000 A 
ATOM     19  C   UNL d   1     -50.213  12.529  21.433  0.00  0.00     0.002 A 
ATOM     20  C   UNL d   1     -49.442  12.333  21.669  0.00  0.00     0.019 A 
ENDBRANCH  13  14
ENDBRANCH  11  13
ENDBRANCH  10  11
ENDBRANCH   2  10
BRANCH   1  21
ATOM     21  C   UNL d   1     -47.231  14.493  22.910  0.00  0.00     0.320 C 
ATOM     22  O   UNL d   1     -47.517  14.636  23.671  0.00  0.00    -0.257 OA
BRANCH  21  23
ATOM     23  O   UNL d   1     -47.522  14.933  22.282  0.00  0.00    -0.270 OA
BRANCH  23  24
ATOM     24  C   UNL d   1     -47.942  15.629  22.433  0.00  0.00     0.126 C 
ATOM     25  C   UNL d   1     -48.682  15.737  22.100  0.00  0.00     0.029 C 
ENDBRANCH  23  24
ENDBRANCH  21  23
ENDBRANCH   1  21
TORSDOF 7
ENDMDL
MODEL 6
REMARK VINA RESULT:      -3.4      1.451      2.055
REMARK  7 active torsions:
REMARK  status: ('A' for Active; 'I' for Inactive)
REMARK    1  A    between atoms: C_8  and  C_1 
REMARK    2  A    between atoms: N_7  and  C_2 
REMARK    3  A    between atoms: C_5  and  N_7 
REMARK    4  A    between atoms: N_9  and  C_5 
REMARK    5  A    between atoms: O_14  and  C_8 
REMARK    6  A    between atoms: C_10  and  N_9 
REMARK    7  A    between atoms: C_20  and  O_14 
ROOT
ATOM      1  C   UNL d   1     -44.585  12.417  22.270  0.00  0.00     0.162 A 
ATOM      2  C   UNL d   1     -45.394  12.386  22.374  0.00  0.00     0.108 A 
ATOM      3  N   UNL d   1     -44.250  11.765  22.649  0.00  0.00    -0.239 NA
ATOM      4  C   UNL d   1     -45.571  11.718  22.816  0.00  0.00     0.037 A 
ATOM      5  C   UNL d   1     -44.867  11.330  22.988  0.00  0.00     0.083 A 
ATOM      6  C   UNL d   1     -46.287  11.410  23.085  0.00  0.00     0.003 A 
ATOM      7  C   UNL d   1     -44.873  10.633  23.431  0.00  0.00     0.019 A 
ATOM      8  C   UNL d   1     -46.300  10.715  23.527  0.00  0.00     0.000 A 
ATOM      9  C   UNL d   1     -45.586  10.328  23.698  0.00  0.00     0.002 A 
ENDROOT
BRANCH   2  10
ATOM     10  N   UNL d   1     -45.950  12.936  22.083  0.00  0.00    -0.216 NA
BRANCH  10  11
ATOM     11  C   UNL d   1     -46.507  13.263  22.598  0.00  0.00     0.221 C 
ATOM     12  S   UNL d   1     -46.266  13.677  23.273  0.00  0.00    -0.037 SA
BRANCH  11  13
ATOM     13  N   UNL d   1     -47.312  13.173  22.431  0.00  0.00    -0.217 NA
BRANCH  13  14
ATOM     14  C   UNL d   1     -47.796  13.839  22.393  0.00  0.00     0.084 A 
ATOM     15  C   UNL d   1     -48.543  13.799  22.036  0.00  0.00     0.018 A 
ATOM     16  C   UNL d   1     -48.814  13.075  21.710  0.00  0.00     0.002 C 
ATOM     17  C   UNL d   1     -49.029  14.460  21.995  0.00  0.00     0.002 A 
ATOM     18  C   UNL d   1     -48.763  15.174  22.317  0.00  0.00     0.000 A 
ATOM     19  C   UNL d   1     -48.020  15.228  22.675  0.00  0.00     0.002 A 
ATOM     20  C   UNL d   1     -47.538  14.552  22.710  0.00  0.00     0.019 A 
ENDBRANCH  13  14
ENDBRANCH  11  13
ENDBRANCH  10  11
ENDBRANCH   2  10
BRANCH   1  21
ATOM     21  C   UNL d   1     -44.170  13.000  21.857  0.00  0.00     0.320 C 
ATOM     22  O   UNL d   1     -44.457  13.774  21.846  0.00  0.00    -0.257 OA
BRANCH  21  23
ATOM     23  O   UNL d   1     -43.477  12.821  21.458  0.00  0.00    -0.270 OA
BRANCH  23  24
ATOM     24  C   UNL d   1     -43.007  13.435  21.164  0.00  0.00     0.126 C 
ATOM     25  C   UNL d   1     -42.265  13.269  20.859  0.00  0.00     0.029 C 
ENDBRANCH  23  24
ENDBRANCH  21  23
ENDBRANCH   1  21
TORSDOF 7
ENDMDL
MODEL 7
REMARK VINA RESULT:      -3.3      1.674      4.653
REMARK  7 active torsions:
REMARK  status: ('A' for Active; 'I' for Inactive)
REMARK    1  A    between atoms: C_8  and  C_1 
REMARK    2  A    between atoms: N_7  and  C_2 
REMARK    3  A    between atoms: C_5  and  N_7 
REMARK    4  A    between atoms: N_9  and  C_5 
REMARK    5  A    between atoms: O_14  and  C_8 
REMARK    6  A    between atoms: C_10  and  N_9 
REMARK    7  A    between atoms: C_20  and  O_14 
ROOT
ATOM      1  C   UNL d   1     -48.931  13.049  22.728  0.00  0.00     0.162 A 
ATOM      2  C   UNL d   1     -48.177  13.342  22.845  0.00  0.00     0.108 A 
ATOM      3  N   UNL d   1     -49.422  13.678  22.519  0.00  0.00    -0.239 NA
ATOM      4  C   UNL d   1     -48.192  14.151  22.712  0.00  0.00     0.037 A 
ATOM      5  C   UNL d   1     -48.960  14.364  22.509  0.00  0.00     0.083 A 
ATOM      6  C   UNL d   1     -47.602  14.725  22.748  0.00  0.00     0.003 A 
ATOM      7  C   UNL d   1     -49.144  15.151  22.342  0.00  0.00     0.019 A 
ATOM      8  C   UNL d   1     -47.778  15.513  22.582  0.00  0.00     0.000 A 
ATOM      9  C   UNL d   1     -48.555  15.721  22.379  0.00  0.00     0.002 A 
ENDROOT
BRANCH   2  10
ATOM     10  N   UNL d   1     -47.505  12.898  23.064  0.00  0.00    -0.216 NA
BRANCH  10  11
ATOM     11  C   UNL d   1     -46.896  12.787  22.517  0.00  0.00     0.221 C 
ATOM     12  S   UNL d   1     -47.055  12.490  21.761  0.00  0.00    -0.037 SA
BRANCH  11  13
ATOM     13  N   UNL d   1     -46.120  12.976  22.735  0.00  0.00    -0.217 NA
BRANCH  13  14
ATOM     14  C   UNL d   1     -45.570  12.372  22.842  0.00  0.00     0.084 A 
ATOM     15  C   UNL d   1     -44.827  12.407  22.476  0.00  0.00     0.018 A 
ATOM     16  C   UNL d   1     -44.628  13.063  21.991  0.00  0.00     0.002 C 
ATOM     17  C   UNL d   1     -44.275  11.807  22.580  0.00  0.00     0.002 A 
ATOM     18  C   UNL d   1     -44.469  11.160  23.057  0.00  0.00     0.000 A 
ATOM     19  C   UNL d   1     -45.207  11.113  23.427  0.00  0.00     0.002 A 
ATOM     20  C   UNL d   1     -45.757  11.726  23.315  0.00  0.00     0.019 A 
ENDBRANCH  13  14
ENDBRANCH  11  13
ENDBRANCH  10  11
ENDBRANCH   2  10
BRANCH   1  21
ATOM     21  C   UNL d   1     -49.163  12.260  22.805  0.00  0.00     0.320 C 
ATOM     22  O   UNL d   1     -48.836  11.688  22.306  0.00  0.00    -0.257 OA
BRANCH  21  23
ATOM     23  O   UNL d   1     -49.714  12.036  23.369  0.00  0.00    -0.270 OA
BRANCH  23  24
ATOM     24  C   UNL d   1     -50.476  11.822  23.130  0.00  0.00     0.126 C 
ATOM     25  C   UNL d   1     -51.058  11.698  23.693  0.00  0.00     0.029 C 
ENDBRANCH  23  24
ENDBRANCH  21  23
ENDBRANCH   1  21
TORSDOF 7
ENDMDL
MODEL 8
REMARK VINA RESULT:      -3.2      8.074     10.336
REMARK  7 active torsions:
REMARK  status: ('A' for Active; 'I' for Inactive)
REMARK    1  A    between atoms: C_8  and  C_1 
REMARK    2  A    between atoms: N_7  and  C_2 
REMARK    3  A    between atoms: C_5  and  N_7 
REMARK    4  A    between atoms: N_9  and  C_5 
REMARK    5  A    between atoms: O_14  and  C_8 
REMARK    6  A    between atoms: C_10  and  N_9 
REMARK    7  A    between atoms: C_20  and  O_14 
ROOT
ATOM      1  C   UNL d   1     -38.270  13.293  17.339  0.00  0.00     0.162 A 
ATOM      2  C   UNL d   1     -38.618  13.955  17.667  0.00  0.00     0.108 A 
ATOM      3  N   UNL d   1     -38.025  13.482  16.574  0.00  0.00    -0.239 NA
ATOM      4  C   UNL d   1     -38.595  14.559  17.113  0.00  0.00     0.037 A 
ATOM      5  C   UNL d   1     -38.229  14.271  16.435  0.00  0.00     0.083 A 
ATOM      6  C   UNL d   1     -38.860  15.339  17.137  0.00  0.00     0.003 A 
ATOM      7  C   UNL d   1     -38.126  14.760  15.778  0.00  0.00     0.019 A 
ATOM      8  C   UNL d   1     -38.761  15.833  16.485  0.00  0.00     0.000 A 
ATOM      9  C   UNL d   1     -38.391  15.536  15.804  0.00  0.00     0.002 A 
ENDROOT
BRANCH   2  10
ATOM     10  N   UNL d   1     -38.944  14.012  18.433  0.00  0.00    -0.216 NA
BRANCH  10  11
ATOM     11  C   UNL d   1     -39.707  14.316  18.530  0.00  0.00     0.221 C 
ATOM     12  S   UNL d   1     -40.350  13.976  18.135  0.00  0.00    -0.037 SA
BRANCH  11  13
ATOM     13  N   UNL d   1     -39.821  14.966  19.028  0.00  0.00    -0.217 NA
BRANCH  13  14
ATOM     14  C   UNL d   1     -40.220  14.865  19.742  0.00  0.00     0.084 A 
ATOM     15  C   UNL d   1     -40.037  15.335  20.399  0.00  0.00     0.018 A 
ATOM     16  C   UNL d   1     -39.439  15.922  20.342  0.00  0.00     0.002 C 
ATOM     17  C   UNL d   1     -40.431  15.238  21.113  0.00  0.00     0.002 A 
ATOM     18  C   UNL d   1     -41.021  14.660  21.171  0.00  0.00     0.000 A 
ATOM     19  C   UNL d   1     -41.213  14.185  20.523  0.00  0.00     0.002 A 
ATOM     20  C   UNL d   1     -40.807  14.293  19.806  0.00  0.00     0.019 A 
ENDBRANCH  13  14
ENDBRANCH  11  13
ENDBRANCH  10  11
ENDBRANCH   2  10
BRANCH   1  21
ATOM     21  C   UNL d   1     -38.177  12.560  17.708  0.00  0.00     0.320 C 
ATOM     22  O   UNL d   1     -37.943  12.528  18.499  0.00  0.00    -0.257 OA
BRANCH  21  23
ATOM     23  O   UNL d   1     -38.315  11.862  17.300  0.00  0.00    -0.270 OA
BRANCH  23  24
ATOM     24  C   UNL d   1     -37.940  11.167  17.546  0.00  0.00     0.126 C 
ATOM     25  C   UNL d   1     -38.267  10.721  18.149  0.00  0.00     0.029 C 
ENDBRANCH  23  24
ENDBRANCH  21  23
ENDBRANCH   1  21
TORSDOF 7
ENDMDL
MODEL 9
REMARK VINA RESULT:      -3.2      6.350      9.328
REMARK  7 active torsions:
REMARK  status: ('A' for Active; 'I' for Inactive)
REMARK    1  A    between atoms: C_8  and  C_1 
REMARK    2  A    between atoms: N_7  and  C_2 
REMARK    3  A    between atoms: C_5  and  N_7 
REMARK    4  A    between atoms: N_9  and  C_5 
REMARK    5  A    between atoms: O_14  and  C_8 
REMARK    6  A    between atoms: C_10  and  N_9 
REMARK    7  A    between atoms: C_20  and  O_14 
ROOT
ATOM      1  C   UNL d   1     -40.236  14.256  21.088  0.00  0.00     0.162 A 
ATOM      2  C   UNL d   1     -39.903  14.910  20.729  0.00  0.00     0.108 A 
ATOM      3  N   UNL d   1     -39.814  14.100  21.780  0.00  0.00    -0.239 NA
ATOM      4  C   UNL d   1     -39.276  15.166  21.190  0.00  0.00     0.037 A 
ATOM      5  C   UNL d   1     -39.217  14.668  21.842  0.00  0.00     0.083 A 
ATOM      6  C   UNL d   1     -38.747  15.792  21.102  0.00  0.00     0.003 A 
ATOM      7  C   UNL d   1     -38.630  14.792  22.409  0.00  0.00     0.019 A 
ATOM      8  C   UNL d   1     -38.159  15.922  21.663  0.00  0.00     0.000 A 
ATOM      9  C   UNL d   1     -38.104  15.416  22.319  0.00  0.00     0.002 A 
ENDROOT
BRANCH   2  10
ATOM     10  N   UNL d   1     -40.155  15.261  20.015  0.00  0.00    -0.216 NA
BRANCH  10  11
ATOM     11  C   UNL d   1     -39.635  15.299  19.374  0.00  0.00     0.221 C 
ATOM     12  S   UNL d   1     -39.094  15.922  19.307  0.00  0.00    -0.037 SA
BRANCH  11  13
ATOM     13  N   UNL d   1     -39.660  14.707  18.798  0.00  0.00    -0.217 NA
BRANCH  13  14
ATOM     14  C   UNL d   1     -39.807  14.910  18.013  0.00  0.00     0.084 A 
ATOM     15  C   UNL d   1     -39.531  14.433  17.394  0.00  0.00     0.018 A 
ATOM     16  C   UNL d   1     -39.097  13.734  17.563  0.00  0.00     0.002 C 
ATOM     17  C   UNL d   1     -39.674  14.631  16.610  0.00  0.00     0.002 A 
ATOM     18  C   UNL d   1     -40.101  15.319  16.441  0.00  0.00     0.000 A 
ATOM     19  C   UNL d   1     -40.382  15.804  17.049  0.00  0.00     0.002 A 
ATOM     20  C   UNL d   1     -40.231  15.593  17.838  0.00  0.00     0.019 A 
ENDBRANCH  13  14
ENDBRANCH  11  13
ENDBRANCH  10  11
ENDBRANCH   2  10
BRANCH   1  21
ATOM     21  C   UNL d   1     -40.881  13.824  20.809  0.00  0.00     0.320 C 
ATOM     22  O   UNL d   1     -40.762  13.223  20.255  0.00  0.00    -0.257 OA
BRANCH  21  23
ATOM     23  O   UNL d   1     -41.641  13.982  21.073  0.00  0.00    -0.270 OA
BRANCH  23  24
ATOM     24  C   UNL d   1     -42.203  13.375  21.083  0.00  0.00     0.126 C 
ATOM     25  C   UNL d   1     -42.995  13.557  21.185  0.00  0.00     0.029 C 
ENDBRANCH  23  24
ENDBRANCH  21  23
ENDBRANCH   1  21
TORSDOF 7
ENDMDL
