MODEL 1
REMARK VINA RESULT:      52.4      0.000      0.000
REMARK  2 active torsions:
REMARK  status: ('A' for Active; 'I' for Inactive)
REMARK    1  A    between atoms: N_3  and  C_1 
REMARK       I    between atoms: C_6  and  N_3 
REMARK    2  A    between atoms: C_8  and  C_6 
ROOT
ATOM      1  N   UNL d   1      59.531  49.379  49.865  0.00  0.00    -0.183 NA
ATOM      2  C   UNL d   1      58.704  49.547  49.930  0.00  0.00     0.281 C 
ATOM      3  O   UNL d   1      58.255  49.657  49.253  0.00  0.00    -0.265 OA
ENDROOT
BRANCH   1   4
ATOM      4  C   UNL d   1      59.978  49.270  50.540  0.00  0.00     0.197 A 
ATOM      5  N   UNL d   1      59.852  48.704  51.115  0.00  0.00    -0.221 NA
ATOM      6  C   UNL d   1      60.420  48.788  51.686  0.00  0.00     0.090 A 
ATOM      7  C   UNL d   1      60.568  48.381  52.388  0.00  0.00     0.020 A 
ATOM      8  C   UNL d   1      60.908  49.418  51.464  0.00  0.00     0.050 A 
ATOM      9  C   UNL d   1      61.203  48.598  52.869  0.00  0.00     0.002 A 
ATOM     10  C   UNL d   1      61.692  49.227  52.646  0.00  0.00     0.001 A 
ATOM     11  C   UNL d   1      61.540  49.632  51.945  0.00  0.00     0.008 A 
ATOM     12  S   UNL d   1      60.631  49.708  50.760  0.00  0.00    -0.047 SA
ENDBRANCH   1   4
BRANCH   2  13
ATOM     13  C   UNL d   1      58.362  49.600  50.661  0.00  0.00     0.058 A 
ATOM     14  C   UNL d   1      57.540  49.616  50.729  0.00  0.00     0.005 A 
ATOM     15  C   UNL d   1      57.183  49.670  51.470  0.00  0.00     0.000 A 
ATOM     16  C   UNL d   1      56.374  49.686  51.538  0.00  0.00     0.000 C 
ATOM     17  C   UNL d   1      57.652  49.707  52.152  0.00  0.00     0.000 A 
ATOM     18  C   UNL d   1      58.485  49.690  52.072  0.00  0.00     0.000 A 
ATOM     19  C   UNL d   1      58.832  49.638  51.342  0.00  0.00     0.005 A 
ENDBRANCH   2  13
TORSDOF 2
ENDMDL
MODEL 2
REMARK VINA RESULT:      54.6      1.745      3.354
REMARK  2 active torsions:
REMARK  status: ('A' for Active; 'I' for Inactive)
REMARK    1  A    between atoms: N_3  and  C_1 
REMARK       I    between atoms: C_6  and  N_3 
REMARK    2  A    between atoms: C_8  and  C_6 
ROOT
ATOM      1  N   UNL d   1      61.167  49.564  50.283  0.00  0.00    -0.183 NA
ATOM      2  C   UNL d   1      61.591  48.833  50.338  0.00  0.00     0.281 C 
ATOM      3  O   UNL d   1      62.389  48.809  50.154  0.00  0.00    -0.265 OA
ENDROOT
BRANCH   1   4
ATOM      4  C   UNL d   1      60.371  49.587  50.467  0.00  0.00     0.197 A 
ATOM      5  N   UNL d   1      60.053  49.652  51.215  0.00  0.00    -0.221 NA
ATOM      6  C   UNL d   1      59.245  49.655  51.150  0.00  0.00     0.090 A 
ATOM      7  C   UNL d   1      58.642  49.707  51.710  0.00  0.00     0.020 A 
ATOM      8  C   UNL d   1      59.057  49.592  50.347  0.00  0.00     0.050 A 
ATOM      9  C   UNL d   1      57.851  49.697  51.473  0.00  0.00     0.002 A 
ATOM     10  C   UNL d   1      57.664  49.634  50.670  0.00  0.00     0.001 A 
ATOM     11  C   UNL d   1      58.269  49.582  50.113  0.00  0.00     0.008 A 
ATOM     12  S   UNL d   1      59.753  49.551  49.934  0.00  0.00    -0.047 SA
ENDBRANCH   1   4
BRANCH   2  13
ATOM     13  C   UNL d   1      61.204  48.163  50.574  0.00  0.00     0.058 A 
ATOM     14  C   UNL d   1      61.204  47.498  50.086  0.00  0.00     0.005 A 
ATOM     15  C   UNL d   1      60.812  46.810  50.318  0.00  0.00     0.000 A 
ATOM     16  C   UNL d   1      60.810  46.155  49.839  0.00  0.00     0.000 C 
ATOM     17  C   UNL d   1      60.417  46.787  51.045  0.00  0.00     0.000 A 
ATOM     18  C   UNL d   1      60.423  47.466  51.533  0.00  0.00     0.000 A 
ATOM     19  C   UNL d   1      60.809  48.140  51.301  0.00  0.00     0.005 A 
ENDBRANCH   2  13
TORSDOF 2
ENDMDL
