MODEL 1
REMARK VINA RESULT:      -6.9      0.000      0.000
REMARK  8 active torsions:
REMARK  status: ('A' for Active; 'I' for Inactive)
REMARK    1  A    between atoms: C_2  and  S_1 
REMARK    2  A    between atoms: N_3  and  S_1 
REMARK    3  A    between atoms: C_17  and  N_3 
REMARK    4  A    between atoms: O_21  and  C_8 
REMARK    5  A    between atoms: O_22  and  C_16 
REMARK    6  A    between atoms: C_18  and  C_17 
REMARK    7  A    between atoms: C_23  and  O_21 
REMARK    8  A    between atoms: C_24  and  O_22 
ROOT
ATOM      1  S   UNL d   1     -46.576  14.032  23.062  0.00  0.00     0.287 S 
ATOM      2  O   UNL d   1     -45.823  13.970  23.387  0.00  0.00    -0.198 OA
ATOM      3  O   UNL d   1     -46.504  14.870  23.085  0.00  0.00    -0.198 OA
ENDROOT
BRANCH   1   4
ATOM      4  C   UNL d   1     -46.654  13.197  23.037  0.00  0.00     0.130 A 
ATOM      5  C   UNL d   1     -47.311  12.830  23.376  0.00  0.00     0.040 A 
ATOM      6  C   UNL d   1     -47.376  12.015  23.346  0.00  0.00     0.101 A 
ATOM      7  C   UNL d   1     -46.795  11.565  22.983  0.00  0.00     0.027 A 
ATOM      8  C   UNL d   1     -46.132  11.917  22.640  0.00  0.00     0.028 A 
ATOM      9  C   UNL d   1     -46.072  12.747  22.674  0.00  0.00     0.112 A 
BRANCH   6  10
ATOM     10  O   UNL d   1     -48.057  11.647  23.698  0.00  0.00    -0.305 OA
BRANCH  10  11
ATOM     11  C   UNL d   1     -48.666  11.322  23.222  0.00  0.00     0.123 C 
ATOM     12  C   UNL d   1     -49.420  11.244  23.537  0.00  0.00     0.029 C 
ENDBRANCH  10  11
ENDBRANCH   6  10
BRANCH   9  13
ATOM     13  O   UNL d   1     -45.382  13.125  22.318  0.00  0.00    -0.304 OA
BRANCH  13  14
ATOM     14  C   UNL d   1     -44.763  12.646  22.006  0.00  0.00     0.123 C 
ATOM     15  C   UNL d   1     -44.184  12.992  21.526  0.00  0.00     0.029 C 
ENDBRANCH  13  14
ENDBRANCH   9  13
ENDBRANCH   1   4
BRANCH   1  16
ATOM     16  N   UNL d   1     -47.344  14.109  22.731  0.00  0.00    -0.157 NA
BRANCH  16  17
ATOM     17  C   UNL d   1     -47.681  14.870  22.614  0.00  0.00     0.112 C 
BRANCH  17  18
ATOM     18  C   UNL d   1     -48.526  14.940  22.539  0.00  0.00     0.022 A 
ATOM     19  C   UNL d   1     -48.947  15.290  23.163  0.00  0.00     0.028 A 
ATOM     20  C   UNL d   1     -49.767  15.361  23.097  0.00  0.00     0.119 A 
ATOM     21  O   UNL d   1     -50.329  15.678  23.614  0.00  0.00    -0.300 OA
ATOM     22  C   UNL d   1     -50.159  15.091  22.429  0.00  0.00     0.119 A 
ATOM     23  C   UNL d   1     -51.063  15.597  23.252  0.00  0.00     0.304 A 
ATOM     24  O   UNL d   1     -50.963  15.240  22.532  0.00  0.00    -0.300 OA
ATOM     25  C   UNL d   1     -49.738  14.745  21.814  0.00  0.00     0.026 A 
ATOM     26  C   UNL d   1     -48.918  14.670  21.871  0.00  0.00     0.004 A 
ENDBRANCH  17  18
ENDBRANCH  16  17
ENDBRANCH   1  16
TORSDOF 8
ENDMDL
MODEL 2
REMARK VINA RESULT:      -5.9      1.430      2.820
REMARK  8 active torsions:
REMARK  status: ('A' for Active; 'I' for Inactive)
REMARK    1  A    between atoms: C_2  and  S_1 
REMARK    2  A    between atoms: N_3  and  S_1 
REMARK    3  A    between atoms: C_17  and  N_3 
REMARK    4  A    between atoms: O_21  and  C_8 
REMARK    5  A    between atoms: O_22  and  C_16 
REMARK    6  A    between atoms: C_18  and  C_17 
REMARK    7  A    between atoms: C_23  and  O_21 
REMARK    8  A    between atoms: C_24  and  O_22 
ROOT
ATOM      1  S   UNL d   1     -46.590  12.386  23.347  0.00  0.00     0.287 S 
ATOM      2  O   UNL d   1     -45.838  12.381  23.678  0.00  0.00    -0.198 OA
ATOM      3  O   UNL d   1     -46.725  11.621  23.670  0.00  0.00    -0.198 OA
ENDROOT
BRANCH   1   4
ATOM      4  C   UNL d   1     -46.461  13.148  23.022  0.00  0.00     0.130 A 
ATOM      5  C   UNL d   1     -47.001  13.757  23.161  0.00  0.00     0.040 A 
ATOM      6  C   UNL d   1     -46.866  14.497  22.839  0.00  0.00     0.101 A 
ATOM      7  C   UNL d   1     -46.199  14.635  22.383  0.00  0.00     0.027 A 
ATOM      8  C   UNL d   1     -45.649  14.037  22.235  0.00  0.00     0.028 A 
ATOM      9  C   UNL d   1     -45.794  13.287  22.566  0.00  0.00     0.112 A 
BRANCH   6  10
ATOM     10  O   UNL d   1     -47.429  15.116  22.989  0.00  0.00    -0.305 OA
BRANCH  10  11
ATOM     11  C   UNL d   1     -47.857  15.470  22.361  0.00  0.00     0.123 C 
ATOM     12  C   UNL d   1     -48.629  15.717  22.493  0.00  0.00     0.029 C 
ENDBRANCH  10  11
ENDBRANCH   6  10
BRANCH   9  13
ATOM     13  O   UNL d   1     -45.224  12.654  22.417  0.00  0.00    -0.304 OA
BRANCH  13  14
ATOM     14  C   UNL d   1     -44.753  12.679  21.719  0.00  0.00     0.123 C 
ATOM     15  C   UNL d   1     -43.928  12.691  21.786  0.00  0.00     0.029 C 
ENDBRANCH  13  14
ENDBRANCH   9  13
ENDBRANCH   1   4
BRANCH   1  16
ATOM     16  N   UNL d   1     -47.361  12.378  23.013  0.00  0.00    -0.157 NA
BRANCH  16  17
ATOM     17  C   UNL d   1     -47.901  11.765  23.207  0.00  0.00     0.112 C 
BRANCH  17  18
ATOM     18  C   UNL d   1     -48.728  11.874  23.036  0.00  0.00     0.022 A 
ATOM     19  C   UNL d   1     -48.941  12.112  22.271  0.00  0.00     0.028 A 
ATOM     20  C   UNL d   1     -49.742  12.220  22.098  0.00  0.00     0.119 A 
ATOM     21  O   UNL d   1     -50.121  12.451  21.400  0.00  0.00    -0.300 OA
ATOM     22  C   UNL d   1     -50.315  12.094  22.670  0.00  0.00     0.119 A 
ATOM     23  C   UNL d   1     -50.928  12.463  21.557  0.00  0.00     0.304 A 
ATOM     24  O   UNL d   1     -51.049  12.247  22.327  0.00  0.00    -0.300 OA
ATOM     25  C   UNL d   1     -50.099  11.858  23.427  0.00  0.00     0.026 A 
ATOM     26  C   UNL d   1     -49.301  11.748  23.609  0.00  0.00     0.004 A 
ENDBRANCH  17  18
ENDBRANCH  16  17
ENDBRANCH   1  16
TORSDOF 8
ENDMDL
MODEL 3
REMARK VINA RESULT:      -5.4      1.527      4.261
REMARK  8 active torsions:
REMARK  status: ('A' for Active; 'I' for Inactive)
REMARK    1  A    between atoms: C_2  and  S_1 
REMARK    2  A    between atoms: N_3  and  S_1 
REMARK    3  A    between atoms: C_17  and  N_3 
REMARK    4  A    between atoms: O_21  and  C_8 
REMARK    5  A    between atoms: O_22  and  C_16 
REMARK    6  A    between atoms: C_18  and  C_17 
REMARK    7  A    between atoms: C_23  and  O_21 
REMARK    8  A    between atoms: C_24  and  O_22 
ROOT
ATOM      1  S   UNL d   1     -49.006  12.194  23.316  0.00  0.00     0.287 S 
ATOM      2  O   UNL d   1     -49.607  11.636  23.382  0.00  0.00    -0.198 OA
ATOM      3  O   UNL d   1     -48.470  11.639  23.652  0.00  0.00    -0.198 OA
ENDROOT
BRANCH   1   4
ATOM      4  C   UNL d   1     -49.536  12.751  22.981  0.00  0.00     0.130 A 
ATOM      5  C   UNL d   1     -49.871  13.341  23.451  0.00  0.00     0.040 A 
ATOM      6  C   UNL d   1     -50.387  13.880  23.114  0.00  0.00     0.101 A 
ATOM      7  C   UNL d   1     -50.571  13.835  22.316  0.00  0.00     0.027 A 
ATOM      8  C   UNL d   1     -50.244  13.251  21.832  0.00  0.00     0.028 A 
ATOM      9  C   UNL d   1     -49.720  12.706  22.183  0.00  0.00     0.112 A 
BRANCH   6  10
ATOM     10  O   UNL d   1     -50.726  14.483  23.607  0.00  0.00    -0.305 OA
BRANCH  10  11
ATOM     11  C   UNL d   1     -50.851  15.259  23.315  0.00  0.00     0.123 C 
ATOM     12  C   UNL d   1     -50.486  15.891  23.693  0.00  0.00     0.029 C 
ENDBRANCH  10  11
ENDBRANCH   6  10
BRANCH   9  13
ATOM     13  O   UNL d   1     -49.372  12.091  21.685  0.00  0.00    -0.304 OA
BRANCH  13  14
ATOM     14  C   UNL d   1     -49.315  12.215  20.855  0.00  0.00     0.123 C 
ATOM     15  C   UNL d   1     -48.786  11.759  20.411  0.00  0.00     0.029 C 
ENDBRANCH  13  14
ENDBRANCH   9  13
ENDBRANCH   1   4
BRANCH   1  16
ATOM     16  N   UNL d   1     -48.383  12.754  23.254  0.00  0.00    -0.157 NA
BRANCH  16  17
ATOM     17  C   UNL d   1     -47.625  12.583  23.573  0.00  0.00     0.112 C 
BRANCH  17  18
ATOM     18  C   UNL d   1     -46.943  12.973  23.247  0.00  0.00     0.022 A 
ATOM     19  C   UNL d   1     -46.357  12.506  22.891  0.00  0.00     0.028 A 
ATOM     20  C   UNL d   1     -45.692  12.878  22.572  0.00  0.00     0.119 A 
ATOM     21  O   UNL d   1     -45.027  12.569  22.189  0.00  0.00    -0.300 OA
ATOM     22  C   UNL d   1     -45.612  13.693  22.606  0.00  0.00     0.119 A 
ATOM     23  C   UNL d   1     -44.545  13.205  21.992  0.00  0.00     0.304 A 
ATOM     24  O   UNL d   1     -44.897  13.889  22.244  0.00  0.00    -0.300 OA
ATOM     25  C   UNL d   1     -46.195  14.152  22.959  0.00  0.00     0.026 A 
ATOM     26  C   UNL d   1     -46.863  13.788  23.280  0.00  0.00     0.004 A 
ENDBRANCH  17  18
ENDBRANCH  16  17
ENDBRANCH   1  16
TORSDOF 8
ENDMDL
MODEL 4
REMARK VINA RESULT:      -5.0      8.355      9.881
REMARK  8 active torsions:
REMARK  status: ('A' for Active; 'I' for Inactive)
REMARK    1  A    between atoms: C_2  and  S_1 
REMARK    2  A    between atoms: N_3  and  S_1 
REMARK    3  A    between atoms: C_17  and  N_3 
REMARK    4  A    between atoms: O_21  and  C_8 
REMARK    5  A    between atoms: O_22  and  C_16 
REMARK    6  A    between atoms: C_18  and  C_17 
REMARK    7  A    between atoms: C_23  and  O_21 
REMARK    8  A    between atoms: C_24  and  O_22 
ROOT
ATOM      1  S   UNL d   1     -38.540  15.330  18.380  0.00  0.00     0.287 S 
ATOM      2  O   UNL d   1     -38.041  15.536  17.760  0.00  0.00    -0.198 OA
ATOM      3  O   UNL d   1     -37.941  15.560  18.924  0.00  0.00    -0.198 OA
ENDROOT
BRANCH   1   4
ATOM      4  C   UNL d   1     -39.141  15.099  17.842  0.00  0.00     0.130 A 
ATOM      5  C   UNL d   1     -39.762  15.614  17.666  0.00  0.00     0.040 A 
ATOM      6  C   UNL d   1     -40.343  15.379  17.140  0.00  0.00     0.101 A 
ATOM      7  C   UNL d   1     -40.310  14.638  16.789  0.00  0.00     0.027 A 
ATOM      8  C   UNL d   1     -39.695  14.112  16.954  0.00  0.00     0.028 A 
ATOM      9  C   UNL d   1     -39.108  14.359  17.491  0.00  0.00     0.112 A 
BRANCH   6  10
ATOM     10  O   UNL d   1     -40.978  15.917  16.966  0.00  0.00    -0.305 OA
BRANCH  10  11
ATOM     11  C   UNL d   1     -41.752  15.635  16.814  0.00  0.00     0.123 C 
ATOM     12  C   UNL d   1     -42.095  15.786  16.083  0.00  0.00     0.029 C 
ENDBRANCH  10  11
ENDBRANCH   6  10
BRANCH   9  13
ATOM     13  O   UNL d   1     -38.460  13.815  17.671  0.00  0.00    -0.304 OA
BRANCH  13  14
ATOM     14  C   UNL d   1     -38.352  13.130  17.194  0.00  0.00     0.123 C 
ATOM     15  C   UNL d   1     -37.947  12.478  17.505  0.00  0.00     0.029 C 
ENDBRANCH  13  14
ENDBRANCH   9  13
ENDBRANCH   1   4
BRANCH   1  16
ATOM     16  N   UNL d   1     -39.041  15.123  19.022  0.00  0.00    -0.157 NA
BRANCH  16  17
ATOM     17  C   UNL d   1     -38.832  15.335  19.808  0.00  0.00     0.112 C 
BRANCH  17  18
ATOM     18  C   UNL d   1     -39.153  14.885  20.455  0.00  0.00     0.022 A 
ATOM     19  C   UNL d   1     -38.632  14.610  21.039  0.00  0.00     0.028 A 
ATOM     20  C   UNL d   1     -38.937  14.173  21.669  0.00  0.00     0.119 A 
ATOM     21  O   UNL d   1     -38.565  13.830  22.324  0.00  0.00    -0.300 OA
ATOM     22  C   UNL d   1     -39.740  14.013  21.719  0.00  0.00     0.119 A 
ATOM     23  C   UNL d   1     -39.151  13.462  22.768  0.00  0.00     0.304 A 
ATOM     24  O   UNL d   1     -39.865  13.571  22.404  0.00  0.00    -0.300 OA
ATOM     25  C   UNL d   1     -40.253  14.288  21.138  0.00  0.00     0.026 A 
ATOM     26  C   UNL d   1     -39.956  14.725  20.505  0.00  0.00     0.004 A 
ENDBRANCH  17  18
ENDBRANCH  16  17
ENDBRANCH   1  16
TORSDOF 8
ENDMDL
MODEL 5
REMARK VINA RESULT:      -4.3      1.622      4.678
REMARK  8 active torsions:
REMARK  status: ('A' for Active; 'I' for Inactive)
REMARK    1  A    between atoms: C_2  and  S_1 
REMARK    2  A    between atoms: N_3  and  S_1 
REMARK    3  A    between atoms: C_17  and  N_3 
REMARK    4  A    between atoms: O_21  and  C_8 
REMARK    5  A    between atoms: O_22  and  C_16 
REMARK    6  A    between atoms: C_18  and  C_17 
REMARK    7  A    between atoms: C_23  and  O_21 
REMARK    8  A    between atoms: C_24  and  O_22 
ROOT
ATOM      1  S   UNL d   1     -49.242  12.435  21.608  0.00  0.00     0.287 S 
ATOM      2  O   UNL d   1     -49.916  12.271  21.167  0.00  0.00    -0.198 OA
ATOM      3  O   UNL d   1     -48.859  11.779  21.244  0.00  0.00    -0.198 OA
ENDROOT
BRANCH   1   4
ATOM      4  C   UNL d   1     -49.617  13.089  21.973  0.00  0.00     0.130 A 
ATOM      5  C   UNL d   1     -49.404  13.860  21.768  0.00  0.00     0.040 A 
ATOM      6  C   UNL d   1     -49.777  14.491  22.131  0.00  0.00     0.101 A 
ATOM      7  C   UNL d   1     -50.359  14.361  22.695  0.00  0.00     0.027 A 
ATOM      8  C   UNL d   1     -50.584  13.596  22.911  0.00  0.00     0.028 A 
ATOM      9  C   UNL d   1     -50.199  12.959  22.537  0.00  0.00     0.112 A 
BRANCH   6  10
ATOM     10  O   UNL d   1     -49.550  15.280  21.912  0.00  0.00    -0.305 OA
BRANCH  10  11
ATOM     11  C   UNL d   1     -49.153  15.780  22.455  0.00  0.00     0.123 C 
ATOM     12  C   UNL d   1     -48.350  15.922  22.353  0.00  0.00     0.029 C 
ENDBRANCH  10  11
ENDBRANCH   6  10
BRANCH   9  13
ATOM     13  O   UNL d   1     -50.427  12.155  22.756  0.00  0.00    -0.304 OA
BRANCH  13  14
ATOM     14  C   UNL d   1     -50.914  12.033  23.432  0.00  0.00     0.123 C 
ATOM     15  C   UNL d   1     -51.063  11.262  23.693  0.00  0.00     0.029 C 
ENDBRANCH  13  14
ENDBRANCH   9  13
ENDBRANCH   1   4
BRANCH   1  16
ATOM     16  N   UNL d   1     -48.546  12.591  22.052  0.00  0.00    -0.157 NA
BRANCH  16  17
ATOM     17  C   UNL d   1     -47.859  12.117  21.946  0.00  0.00     0.112 C 
BRANCH  17  18
ATOM     18  C   UNL d   1     -47.127  12.368  22.301  0.00  0.00     0.022 A 
ATOM     19  C   UNL d   1     -46.542  12.688  21.808  0.00  0.00     0.028 A 
ATOM     20  C   UNL d   1     -45.829  12.933  22.146  0.00  0.00     0.119 A 
ATOM     21  O   UNL d   1     -45.153  13.267  21.807  0.00  0.00    -0.300 OA
ATOM     22  C   UNL d   1     -45.702  12.861  22.953  0.00  0.00     0.119 A 
ATOM     23  C   UNL d   1     -44.617  13.396  22.416  0.00  0.00     0.304 A 
ATOM     24  O   UNL d   1     -44.946  13.151  23.113  0.00  0.00    -0.300 OA
ATOM     25  C   UNL d   1     -46.285  12.543  23.438  0.00  0.00     0.026 A 
ATOM     26  C   UNL d   1     -47.000  12.296  23.108  0.00  0.00     0.004 A 
ENDBRANCH  17  18
ENDBRANCH  16  17
ENDBRANCH   1  16
TORSDOF 8
ENDMDL
MODEL 6
REMARK VINA RESULT:      -4.3      8.964     10.348
REMARK  8 active torsions:
REMARK  status: ('A' for Active; 'I' for Inactive)
REMARK    1  A    between atoms: C_2  and  S_1 
REMARK    2  A    between atoms: N_3  and  S_1 
REMARK    3  A    between atoms: C_17  and  N_3 
REMARK    4  A    between atoms: O_21  and  C_8 
REMARK    5  A    between atoms: O_22  and  C_16 
REMARK    6  A    between atoms: C_18  and  C_17 
REMARK    7  A    between atoms: C_23  and  O_21 
REMARK    8  A    between atoms: C_24  and  O_22 
ROOT
ATOM      1  S   UNL d   1     -38.421  15.100  18.417  0.00  0.00     0.287 S 
ATOM      2  O   UNL d   1     -38.403  15.582  17.752  0.00  0.00    -0.198 OA
ATOM      3  O   UNL d   1     -38.228  15.768  18.892  0.00  0.00    -0.198 OA
ENDROOT
BRANCH   1   4
ATOM      4  C   UNL d   1     -38.613  14.431  17.950  0.00  0.00     0.130 A 
ATOM      5  C   UNL d   1     -38.188  13.729  18.034  0.00  0.00     0.040 A 
ATOM      6  C   UNL d   1     -38.384  13.082  17.573  0.00  0.00     0.101 A 
ATOM      7  C   UNL d   1     -38.998  13.129  17.031  0.00  0.00     0.027 A 
ATOM      8  C   UNL d   1     -39.432  13.825  16.935  0.00  0.00     0.028 A 
ATOM      9  C   UNL d   1     -39.227  14.479  17.408  0.00  0.00     0.112 A 
BRANCH   6  10
ATOM     10  O   UNL d   1     -37.940  12.363  17.668  0.00  0.00    -0.305 OA
BRANCH  10  11
ATOM     11  C   UNL d   1     -38.321  11.617  17.666  0.00  0.00     0.123 C 
ATOM     12  C   UNL d   1     -37.943  10.975  18.011  0.00  0.00     0.029 C 
ENDBRANCH  10  11
ENDBRANCH   6  10
BRANCH   9  13
ATOM     13  O   UNL d   1     -39.676  15.211  17.315  0.00  0.00    -0.304 OA
BRANCH  13  14
ATOM     14  C   UNL d   1     -40.513  15.176  17.237  0.00  0.00     0.123 C 
ATOM     15  C   UNL d   1     -40.910  15.777  16.828  0.00  0.00     0.029 C 
ENDBRANCH  13  14
ENDBRANCH   9  13
ENDBRANCH   1   4
BRANCH   1  16
ATOM     16  N   UNL d   1     -38.436  14.619  19.106  0.00  0.00    -0.157 NA
BRANCH  16  17
ATOM     17  C   UNL d   1     -38.210  14.936  19.851  0.00  0.00     0.112 C 
BRANCH  17  18
ATOM     18  C   UNL d   1     -38.505  14.571  20.561  0.00  0.00     0.022 A 
ATOM     19  C   UNL d   1     -38.014  14.031  20.956  0.00  0.00     0.028 A 
ATOM     20  C   UNL d   1     -38.293  13.673  21.646  0.00  0.00     0.119 A 
ATOM     21  O   UNL d   1     -37.941  13.123  22.154  0.00  0.00    -0.300 OA
ATOM     22  C   UNL d   1     -39.041  13.846  21.935  0.00  0.00     0.119 A 
ATOM     23  C   UNL d   1     -38.484  12.966  22.752  0.00  0.00     0.304 A 
ATOM     24  O   UNL d   1     -39.152  13.403  22.622  0.00  0.00    -0.300 OA
ATOM     25  C   UNL d   1     -39.524  14.381  21.540  0.00  0.00     0.026 A 
ATOM     26  C   UNL d   1     -39.252  14.744  20.850  0.00  0.00     0.004 A 
ENDBRANCH  17  18
ENDBRANCH  16  17
ENDBRANCH   1  16
TORSDOF 8
ENDMDL
MODEL 7
REMARK VINA RESULT:      -4.2      4.963      7.886
REMARK  8 active torsions:
REMARK  status: ('A' for Active; 'I' for Inactive)
REMARK    1  A    between atoms: C_2  and  S_1 
REMARK    2  A    between atoms: N_3  and  S_1 
REMARK    3  A    between atoms: C_17  and  N_3 
REMARK    4  A    between atoms: O_21  and  C_8 
REMARK    5  A    between atoms: O_22  and  C_16 
REMARK    6  A    between atoms: C_18  and  C_17 
REMARK    7  A    between atoms: C_23  and  O_21 
REMARK    8  A    between atoms: C_24  and  O_22 
ROOT
ATOM      1  S   UNL d   1     -40.260  15.219  20.236  0.00  0.00     0.287 S 
ATOM      2  O   UNL d   1     -39.689  15.800  20.131  0.00  0.00    -0.198 OA
ATOM      3  O   UNL d   1     -40.411  15.523  21.007  0.00  0.00    -0.198 OA
ENDROOT
BRANCH   1   4
ATOM      4  C   UNL d   1     -40.114  14.912  19.470  0.00  0.00     0.130 A 
ATOM      5  C   UNL d   1     -40.647  15.052  18.856  0.00  0.00     0.040 A 
ATOM      6  C   UNL d   1     -40.495  14.748  18.112  0.00  0.00     0.101 A 
ATOM      7  C   UNL d   1     -39.818  14.306  17.975  0.00  0.00     0.027 A 
ATOM      8  C   UNL d   1     -39.274  14.157  18.579  0.00  0.00     0.028 A 
ATOM      9  C   UNL d   1     -39.436  14.470  19.333  0.00  0.00     0.112 A 
BRANCH   6  10
ATOM     10  O   UNL d   1     -41.051  14.900  17.488  0.00  0.00    -0.305 OA
BRANCH  10  11
ATOM     11  C   UNL d   1     -40.945  15.544  16.962  0.00  0.00     0.123 C 
ATOM     12  C   UNL d   1     -41.592  15.830  16.545  0.00  0.00     0.029 C 
ENDBRANCH  10  11
ENDBRANCH   6  10
BRANCH   9  13
ATOM     13  O   UNL d   1     -38.873  14.319  19.971  0.00  0.00    -0.304 OA
BRANCH  13  14
ATOM     14  C   UNL d   1     -38.220  13.806  19.833  0.00  0.00     0.123 C 
ATOM     15  C   UNL d   1     -37.940  13.329  20.448  0.00  0.00     0.029 C 
ENDBRANCH  13  14
ENDBRANCH   9  13
ENDBRANCH   1   4
BRANCH   1  16
ATOM     16  N   UNL d   1     -40.846  14.629  20.357  0.00  0.00    -0.157 NA
BRANCH  16  17
ATOM     17  C   UNL d   1     -41.439  14.733  20.943  0.00  0.00     0.112 C 
BRANCH  17  18
ATOM     18  C   UNL d   1     -41.941  14.076  21.144  0.00  0.00     0.022 A 
ATOM     19  C   UNL d   1     -42.748  14.222  21.267  0.00  0.00     0.028 A 
ATOM     20  C   UNL d   1     -43.240  13.588  21.462  0.00  0.00     0.119 A 
ATOM     21  O   UNL d   1     -44.053  13.557  21.615  0.00  0.00    -0.300 OA
ATOM     22  C   UNL d   1     -42.938  12.829  21.532  0.00  0.00     0.119 A 
ATOM     23  C   UNL d   1     -44.237  12.773  21.779  0.00  0.00     0.304 A 
ATOM     24  O   UNL d   1     -43.563  12.328  21.730  0.00  0.00    -0.300 OA
ATOM     25  C   UNL d   1     -42.138  12.689  21.409  0.00  0.00     0.026 A 
ATOM     26  C   UNL d   1     -41.639  13.317  21.214  0.00  0.00     0.004 A 
ENDBRANCH  17  18
ENDBRANCH  16  17
ENDBRANCH   1  16
TORSDOF 8
ENDMDL
