MODEL 1
REMARK VINA RESULT:      14.8      0.000      0.000
REMARK  1 active torsions:
REMARK  status: ('A' for Active; 'I' for Inactive)
REMARK    1  A    between atoms: C_6  and  N_1 
ROOT
ATOM      1  N   UNL d   1      58.650  49.708  50.571  0.00  0.00    -0.204 N 
ATOM      2  C   UNL d   1      58.538  49.708  49.751  0.00  0.00     0.271 A 
ATOM      3  C   UNL d   1      57.907  49.708  50.935  0.00  0.00     0.270 A 
ATOM      4  C   UNL d   1      57.724  49.708  49.608  0.00  0.00     0.080 A 
ATOM      5  C   UNL d   1      57.339  49.708  50.331  0.00  0.00     0.064 A 
ATOM      6  O   UNL d   1      59.176  49.708  49.272  0.00  0.00    -0.266 OA
ATOM      7  O   UNL d   1      57.760  49.708  51.746  0.00  0.00    -0.266 OA
ATOM      8  N   UNL d   1      56.477  49.708  48.933  0.00  0.00    -0.242 NA
ATOM      9  C   UNL d   1      57.302  49.708  48.904  0.00  0.00     0.104 A 
ATOM     10  C   UNL d   1      56.517  49.708  50.356  0.00  0.00     0.026 A 
ATOM     11  C   UNL d   1      56.081  49.708  49.655  0.00  0.00     0.099 A 
ENDROOT
BRANCH   1  12
ATOM     12  C   UNL d   1      59.379  49.708  50.965  0.00  0.00     0.326 C 
ATOM     13  O   UNL d   1      60.075  49.583  50.540  0.00  0.00    -0.261 OA
ENDBRANCH   1  12
TORSDOF 1
ENDMDL
MODEL 2
REMARK VINA RESULT:      15.0      0.339      1.470
REMARK  1 active torsions:
REMARK  status: ('A' for Active; 'I' for Inactive)
REMARK    1  A    between atoms: C_6  and  N_1 
ROOT
ATOM      1  N   UNL d   1      58.723  49.707  50.580  0.00  0.00    -0.204 N 
ATOM      2  C   UNL d   1      57.990  49.707  50.964  0.00  0.00     0.271 A 
ATOM      3  C   UNL d   1      58.589  49.707  49.763  0.00  0.00     0.270 A 
ATOM      4  C   UNL d   1      57.402  49.707  50.383  0.00  0.00     0.080 A 
ATOM      5  C   UNL d   1      57.768  49.708  49.651  0.00  0.00     0.064 A 
ATOM      6  O   UNL d   1      57.969  49.707  51.761  0.00  0.00    -0.266 OA
ATOM      7  O   UNL d   1      59.165  49.708  49.173  0.00  0.00    -0.266 OA
ATOM      8  N   UNL d   1      56.129  49.708  49.759  0.00  0.00    -0.242 NA
ATOM      9  C   UNL d   1      56.583  49.707  50.448  0.00  0.00     0.104 A 
ATOM     10  C   UNL d   1      57.311  49.708  48.966  0.00  0.00     0.026 A 
ATOM     11  C   UNL d   1      56.488  49.708  49.018  0.00  0.00     0.099 A 
ENDROOT
BRANCH   1  12
ATOM     12  C   UNL d   1      59.467  49.707  50.945  0.00  0.00     0.326 C 
ATOM     13  O   UNL d   1      60.150  49.673  50.483  0.00  0.00    -0.261 OA
ENDBRANCH   1  12
TORSDOF 1
ENDMDL
MODEL 3
REMARK VINA RESULT:      15.6      1.261      2.285
REMARK  1 active torsions:
REMARK  status: ('A' for Active; 'I' for Inactive)
REMARK    1  A    between atoms: C_6  and  N_1 
ROOT
ATOM      1  N   UNL d   1      60.259  49.706  51.189  0.00  0.00    -0.204 N 
ATOM      2  C   UNL d   1      59.522  49.705  51.567  0.00  0.00     0.271 A 
ATOM      3  C   UNL d   1      60.132  49.706  50.371  0.00  0.00     0.270 A 
ATOM      4  C   UNL d   1      58.940  49.703  50.981  0.00  0.00     0.080 A 
ATOM      5  C   UNL d   1      59.312  49.704  50.252  0.00  0.00     0.064 A 
ATOM      6  O   UNL d   1      59.494  49.705  52.364  0.00  0.00    -0.266 OA
ATOM      7  O   UNL d   1      60.713  49.707  49.786  0.00  0.00    -0.266 OA
ATOM      8  N   UNL d   1      57.672  49.701  50.345  0.00  0.00    -0.242 NA
ATOM      9  C   UNL d   1      58.120  49.702  51.038  0.00  0.00     0.104 A 
ATOM     10  C   UNL d   1      58.861  49.703  49.563  0.00  0.00     0.026 A 
ATOM     11  C   UNL d   1      58.037  49.701  49.607  0.00  0.00     0.099 A 
ENDROOT
BRANCH   1  12
ATOM     12  C   UNL d   1      60.999  49.708  51.561  0.00  0.00     0.326 C 
ATOM     13  O   UNL d   1      61.049  49.575  52.374  0.00  0.00    -0.261 OA
ENDBRANCH   1  12
TORSDOF 1
ENDMDL
MODEL 4
REMARK VINA RESULT:      16.3      1.191      3.273
REMARK  1 active torsions:
REMARK  status: ('A' for Active; 'I' for Inactive)
REMARK    1  A    between atoms: C_6  and  N_1 
ROOT
ATOM      1  N   UNL d   1      58.600  49.706  50.482  0.00  0.00    -0.204 N 
ATOM      2  C   UNL d   1      58.789  49.705  51.288  0.00  0.00     0.271 A 
ATOM      3  C   UNL d   1      59.307  49.706  50.050  0.00  0.00     0.270 A 
ATOM      4  C   UNL d   1      59.612  49.706  51.354  0.00  0.00     0.080 A 
ATOM      5  C   UNL d   1      59.928  49.706  50.598  0.00  0.00     0.064 A 
ATOM      6  O   UNL d   1      58.199  49.705  51.825  0.00  0.00    -0.266 OA
ATOM      7  O   UNL d   1      59.377  49.707  49.229  0.00  0.00    -0.266 OA
ATOM      8  N   UNL d   1      60.917  49.705  51.909  0.00  0.00    -0.242 NA
ATOM      9  C   UNL d   1      60.099  49.705  52.016  0.00  0.00     0.104 A 
ATOM     10  C   UNL d   1      60.745  49.706  50.496  0.00  0.00     0.026 A 
ATOM     11  C   UNL d   1      61.244  49.706  51.154  0.00  0.00     0.099 A 
ENDROOT
BRANCH   1  12
ATOM     12  C   UNL d   1      57.838  49.706  50.158  0.00  0.00     0.326 C 
ATOM     13  O   UNL d   1      57.181  49.703  50.657  0.00  0.00    -0.261 OA
ENDBRANCH   1  12
TORSDOF 1
ENDMDL
