MODEL 1
REMARK VINA RESULT:      -2.7      0.000      0.000
REMARK  2 active torsions:
REMARK  status: ('A' for Active; 'I' for Inactive)
REMARK    1  A    between atoms: C_4  and  C_1 
REMARK    2  A    between atoms: N_6  and  C_5 
ROOT
ATOM      1  C   UNL d   1      32.847  20.722 -21.811  0.00  0.00     0.024 A 
ATOM      2  C   UNL d   1      32.572  22.216 -21.162  0.00  0.00     0.064 A 
ATOM      3  C   UNL d   1      33.149  21.400 -22.179  0.00  0.00     0.004 A 
ATOM      4  C   UNL d   1      32.407  20.795 -21.117  0.00  0.00     0.004 A 
ATOM      5  C   UNL d   1      33.013  22.144 -21.856  0.00  0.00     0.018 A 
ATOM      6  C   UNL d   1      32.268  21.545 -20.791  0.00  0.00     0.018 A 
ENDROOT
BRANCH   1   7
ATOM      7  C   UNL d   1      32.982  19.978 -22.131  0.00  0.00     0.111 A 
ATOM      8  N   UNL d   1      33.154  19.286 -21.730  0.00  0.00    -0.237 NA
ATOM      9  C   UNL d   1      33.241  18.694 -22.298  0.00  0.00     0.106 A 
ATOM     10  C   UNL d   1      33.125  19.013 -23.022  0.00  0.00     0.058 A 
ATOM     11  S   UNL d   1      32.965  19.805 -22.924  0.00  0.00    -0.066 SA
ENDBRANCH   1   7
BRANCH   2  12
ATOM     12  N   UNL d   1      32.449  22.974 -20.858  0.00  0.00    -0.301 N 
ATOM     13  C   UNL d   1      32.774  23.167 -20.130  0.00  0.00     0.100 C 
ATOM     14  C   UNL d   1      32.009  23.521 -21.278  0.00  0.00     0.100 C 
ENDBRANCH   2  12
TORSDOF 2
ENDMDL
MODEL 2
REMARK VINA RESULT:      -2.6      4.192      5.788
REMARK  2 active torsions:
REMARK  status: ('A' for Active; 'I' for Inactive)
REMARK    1  A    between atoms: C_4  and  C_1 
REMARK    2  A    between atoms: N_6  and  C_5 
ROOT
ATOM      1  C   UNL d   1      30.351  16.554 -23.987  0.00  0.00     0.024 A 
ATOM      2  C   UNL d   1      31.822  17.305 -23.965  0.00  0.00     0.064 A 
ATOM      3  C   UNL d   1      30.995  16.200 -23.606  0.00  0.00     0.004 A 
ATOM      4  C   UNL d   1      30.445  17.285 -24.357  0.00  0.00     0.004 A 
ATOM      5  C   UNL d   1      31.728  16.573 -23.595  0.00  0.00     0.018 A 
ATOM      6  C   UNL d   1      31.184  17.662 -24.346  0.00  0.00     0.018 A 
ENDROOT
BRANCH   1   7
ATOM      7  C   UNL d   1      29.618  16.184 -23.999  0.00  0.00     0.111 A 
ATOM      8  N   UNL d   1      29.038  16.207 -23.423  0.00  0.00    -0.237 NA
ATOM      9  C   UNL d   1      28.409  15.747 -23.695  0.00  0.00     0.106 A 
ATOM     10  C   UNL d   1      28.599  15.453 -24.414  0.00  0.00     0.058 A 
ATOM     11  S   UNL d   1      29.344  15.719 -24.606  0.00  0.00    -0.066 SA
ENDBRANCH   1   7
BRANCH   2  12
ATOM     12  N   UNL d   1      32.567  17.659 -23.940  0.00  0.00    -0.301 N 
ATOM     13  C   UNL d   1      33.086  17.537 -24.563  0.00  0.00     0.100 C 
ATOM     14  C   UNL d   1      32.782  18.125 -23.303  0.00  0.00     0.100 C 
ENDBRANCH   2  12
TORSDOF 2
ENDMDL
MODEL 3
REMARK VINA RESULT:      -2.4      2.828      5.320
REMARK  2 active torsions:
REMARK  status: ('A' for Active; 'I' for Inactive)
REMARK    1  A    between atoms: C_4  and  C_1 
REMARK    2  A    between atoms: N_6  and  C_5 
ROOT
ATOM      1  C   UNL d   1      32.140  17.830 -23.661  0.00  0.00     0.024 A 
ATOM      2  C   UNL d   1      31.263  16.501 -24.103  0.00  0.00     0.064 A 
ATOM      3  C   UNL d   1      32.403  17.070 -23.461  0.00  0.00     0.004 A 
ATOM      4  C   UNL d   1      31.437  17.923 -24.082  0.00  0.00     0.004 A 
ATOM      5  C   UNL d   1      31.967  16.409 -23.681  0.00  0.00     0.018 A 
ATOM      6  C   UNL d   1      30.997  17.255 -24.304  0.00  0.00     0.018 A 
ENDROOT
BRANCH   1   7
ATOM      7  C   UNL d   1      32.574  18.492 -23.443  0.00  0.00     0.111 A 
ATOM      8  N   UNL d   1      32.829  18.696 -22.693  0.00  0.00    -0.237 NA
ATOM      9  C   UNL d   1      33.241  19.408 -22.763  0.00  0.00     0.106 A 
ATOM     10  C   UNL d   1      33.237  19.631 -23.531  0.00  0.00     0.058 A 
ATOM     11  S   UNL d   1      32.827  19.070 -23.954  0.00  0.00    -0.066 SA
ENDBRANCH   1   7
BRANCH   2  12
ATOM     12  N   UNL d   1      30.844  15.822 -24.312  0.00  0.00    -0.301 N 
ATOM     13  C   UNL d   1      30.286  15.524 -23.790  0.00  0.00     0.100 C 
ATOM     14  C   UNL d   1      30.984  15.454 -25.029  0.00  0.00     0.100 C 
ENDBRANCH   2  12
TORSDOF 2
ENDMDL
MODEL 4
REMARK VINA RESULT:      -2.1      1.516      4.223
REMARK  2 active torsions:
REMARK  status: ('A' for Active; 'I' for Inactive)
REMARK    1  A    between atoms: C_4  and  C_1 
REMARK    2  A    between atoms: N_6  and  C_5 
ROOT
ATOM      1  C   UNL d   1      32.949  19.175 -22.673  0.00  0.00     0.024 A 
ATOM      2  C   UNL d   1      32.802  17.808 -23.590  0.00  0.00     0.064 A 
ATOM      3  C   UNL d   1      32.582  19.207 -23.416  0.00  0.00     0.004 A 
ATOM      4  C   UNL d   1      33.241  18.457 -22.391  0.00  0.00     0.004 A 
ATOM      5  C   UNL d   1      32.509  18.527 -23.872  0.00  0.00     0.018 A 
ATOM      6  C   UNL d   1      33.167  17.771 -22.852  0.00  0.00     0.018 A 
ENDROOT
BRANCH   1   7
ATOM      7  C   UNL d   1      33.023  19.852 -22.215  0.00  0.00     0.111 A 
ATOM      8  N   UNL d   1      32.915  19.922 -21.408  0.00  0.00    -0.237 NA
ATOM      9  C   UNL d   1      33.054  20.713 -21.214  0.00  0.00     0.106 A 
ATOM     10  C   UNL d   1      33.240  21.112 -21.881  0.00  0.00     0.058 A 
ATOM     11  S   UNL d   1      33.222  20.586 -22.502  0.00  0.00    -0.066 SA
ENDBRANCH   1   7
BRANCH   2  12
ATOM     12  N   UNL d   1      32.716  17.140 -24.067  0.00  0.00    -0.301 N 
ATOM     13  C   UNL d   1      32.114  16.609 -23.901  0.00  0.00     0.100 C 
ATOM     14  C   UNL d   1      33.225  17.013 -24.695  0.00  0.00     0.100 C 
ENDBRANCH   2  12
TORSDOF 2
ENDMDL
MODEL 5
REMARK VINA RESULT:      -2.1      2.251      3.613
REMARK  2 active torsions:
REMARK  status: ('A' for Active; 'I' for Inactive)
REMARK    1  A    between atoms: C_4  and  C_1 
REMARK    2  A    between atoms: N_6  and  C_5 
ROOT
ATOM      1  C   UNL d   1      32.581  17.707 -23.540  0.00  0.00     0.024 A 
ATOM      2  C   UNL d   1      32.971  19.147 -22.831  0.00  0.00     0.064 A 
ATOM      3  C   UNL d   1      32.321  18.420 -23.872  0.00  0.00     0.004 A 
ATOM      4  C   UNL d   1      33.037  17.717 -22.852  0.00  0.00     0.004 A 
ATOM      5  C   UNL d   1      32.515  19.137 -23.519  0.00  0.00     0.018 A 
ATOM      6  C   UNL d   1      33.232  18.440 -22.496  0.00  0.00     0.018 A 
ENDROOT
BRANCH   1   7
ATOM      7  C   UNL d   1      32.389  16.990 -23.890  0.00  0.00     0.111 A 
ATOM      8  N   UNL d   1      31.788  16.477 -23.679  0.00  0.00    -0.237 NA
ATOM      9  C   UNL d   1      31.824  15.836 -24.198  0.00  0.00     0.106 A 
ATOM     10  C   UNL d   1      32.427  15.954 -24.709  0.00  0.00     0.058 A 
ATOM     11  S   UNL d   1      32.780  16.664 -24.523  0.00  0.00    -0.066 SA
ENDBRANCH   1   7
BRANCH   2  12
ATOM     12  N   UNL d   1      33.152  19.880 -22.496  0.00  0.00    -0.301 N 
ATOM     13  C   UNL d   1      33.240  20.530 -22.988  0.00  0.00     0.100 C 
ATOM     14  C   UNL d   1      33.241  19.953 -21.686  0.00  0.00     0.100 C 
ENDBRANCH   2  12
TORSDOF 2
ENDMDL
