MODEL 1
REMARK VINA RESULT:      23.6      0.000      0.000
REMARK  6 active torsions:
REMARK  status: ('A' for Active; 'I' for Inactive)
REMARK    1  A    between atoms: C_2  and  S_1 
REMARK    2  A    between atoms: N_3  and  S_1 
REMARK    3  A    between atoms: C_9  and  N_3 
REMARK    4  A    between atoms: C_13  and  C_7 
REMARK    5  A    between atoms: O_14  and  C_8 
REMARK    6  A    between atoms: C_20  and  O_14 
ROOT
ATOM      1  C   UNL d   1      13.514  12.994  -3.457  0.00  0.00     0.128 A 
ATOM      2  C   UNL d   1      13.797  13.756  -3.311  0.00  0.00     0.015 A 
ATOM      3  C   UNL d   1      13.623  14.369  -3.835  0.00  0.00     0.001 A 
ATOM      4  C   UNL d   1      13.060  12.851  -4.126  0.00  0.00     0.112 A 
ATOM      5  C   UNL d   1      13.167  14.218  -4.506  0.00  0.00     0.002 A 
ATOM      6  C   UNL d   1      12.884  13.456  -4.652  0.00  0.00     0.025 A 
ENDROOT
BRANCH   1   7
ATOM      7  S   UNL d   1      13.691  12.389  -2.931  0.00  0.00     0.287 S 
ATOM      8  O   UNL d   1      12.942  12.437  -2.606  0.00  0.00    -0.198 OA
ATOM      9  O   UNL d   1      14.447  12.337  -3.255  0.00  0.00    -0.198 OA
BRANCH   7  10
ATOM     10  N   UNL d   1      13.875  11.780  -2.405  0.00  0.00    -0.157 NA
BRANCH  10  11
ATOM     11  C   UNL d   1      14.107  11.961  -1.634  0.00  0.00     0.113 A 
ATOM     12  C   UNL d   1      14.870  12.216  -1.484  0.00  0.00     0.119 A 
ATOM     13  N   UNL d   1      15.101  12.396  -0.713  0.00  0.00    -0.241 NA
ATOM     14  C   UNL d   1      14.561  12.319  -0.085  0.00  0.00     0.099 A 
ATOM     15  C   UNL d   1      13.791  12.061  -0.245  0.00  0.00     0.022 A 
ATOM     16  C   UNL d   1      13.560  11.881  -1.016  0.00  0.00     0.023 A 
ENDBRANCH  10  11
ENDBRANCH   7  10
ENDBRANCH   1   7
BRANCH   4  17
ATOM     17  O   UNL d   1      12.777  12.088  -4.272  0.00  0.00    -0.304 OA
BRANCH  17  18
ATOM     18  C   UNL d   1      12.793  11.781  -5.037  0.00  0.00     0.123 C 
ATOM     19  C   UNL d   1      13.494  11.795  -5.475  0.00  0.00     0.029 C 
ENDBRANCH  17  18
ENDBRANCH   4  17
BRANCH   3  20
ATOM     20  C   UNL d   1      13.906  15.132  -3.689  0.00  0.00     0.000 C 
ATOM     21  C   UNL d   1      13.877  15.704  -4.283  0.00  0.00     0.000 C 
ATOM     22  C   UNL d   1      14.220  15.321  -2.942  0.00  0.00     0.000 C 
ENDBRANCH   3  20
TORSDOF 6
ENDMDL
