MODEL 1
REMARK VINA RESULT:      11.5      0.000      0.000
REMARK  1 active torsions:
REMARK  status: ('A' for Active; 'I' for Inactive)
REMARK    1  A    between atoms: C_6  and  C_2 
ROOT
ATOM      1  C   UNL d   1      57.736  49.684  50.285  0.00  0.00     0.019 A 
ATOM      2  C   UNL d   1      57.120  49.701  50.821  0.00  0.00     0.001 A 
ATOM      3  C   UNL d   1      57.601  49.673  49.481  0.00  0.00     0.001 A 
ATOM      4  C   UNL d   1      56.828  49.679  49.197  0.00  0.00     0.000 A 
ATOM      5  C   UNL d   1      56.340  49.707  50.542  0.00  0.00     0.000 A 
ATOM      6  C   UNL d   1      56.197  49.696  49.733  0.00  0.00     0.000 A 
ENDROOT
BRANCH   1   7
ATOM      7  C   UNL d   1      58.518  49.678  50.568  0.00  0.00     0.102 A 
ATOM      8  N   UNL d   1      58.745  49.667  51.360  0.00  0.00    -0.222 NA
ATOM      9  C   UNL d   1      59.571  49.664  51.388  0.00  0.00     0.199 A 
ATOM     10  N   UNL d   1      59.852  49.674  50.615  0.00  0.00    -0.221 NA
ATOM     11  C   UNL d   1      59.204  49.682  50.104  0.00  0.00     0.120 A 
ENDBRANCH   1   7
TORSDOF 1
ENDMDL
MODEL 2
REMARK VINA RESULT:      12.5      1.039      2.912
REMARK  1 active torsions:
REMARK  status: ('A' for Active; 'I' for Inactive)
REMARK    1  A    between atoms: C_6  and  C_2 
ROOT
ATOM      1  C   UNL d   1      59.476  49.693  50.941  0.00  0.00     0.019 A 
ATOM      2  C   UNL d   1      59.624  49.702  51.744  0.00  0.00     0.001 A 
ATOM      3  C   UNL d   1      60.083  49.686  50.396  0.00  0.00     0.001 A 
ATOM      4  C   UNL d   1      60.865  49.688  50.656  0.00  0.00     0.000 A 
ATOM      5  C   UNL d   1      60.407  49.704  52.012  0.00  0.00     0.000 A 
ATOM      6  C   UNL d   1      61.024  49.697  51.469  0.00  0.00     0.000 A 
ENDROOT
BRANCH   1   7
ATOM      7  C   UNL d   1      58.688  49.691  50.675  0.00  0.00     0.102 A 
ATOM      8  N   UNL d   1      58.017  49.674  51.153  0.00  0.00    -0.222 NA
ATOM      9  C   UNL d   1      57.354  49.678  50.659  0.00  0.00     0.199 A 
ATOM     10  N   UNL d   1      57.616  49.697  49.879  0.00  0.00    -0.221 NA
ATOM     11  C   UNL d   1      58.442  49.705  49.884  0.00  0.00     0.120 A 
ENDBRANCH   1   7
TORSDOF 1
ENDMDL
MODEL 3
REMARK VINA RESULT:      12.9      0.897      1.340
REMARK  1 active torsions:
REMARK  status: ('A' for Active; 'I' for Inactive)
REMARK    1  A    between atoms: C_6  and  C_2 
ROOT
ATOM      1  C   UNL d   1      59.049  49.695  50.492  0.00  0.00     0.019 A 
ATOM      2  C   UNL d   1      58.487  49.692  51.084  0.00  0.00     0.001 A 
ATOM      3  C   UNL d   1      58.839  49.703  49.703  0.00  0.00     0.001 A 
ATOM      4  C   UNL d   1      58.042  49.707  49.494  0.00  0.00     0.000 A 
ATOM      5  C   UNL d   1      57.684  49.697  50.880  0.00  0.00     0.000 A 
ATOM      6  C   UNL d   1      57.465  49.704  50.089  0.00  0.00     0.000 A 
ENDROOT
BRANCH   1   7
ATOM      7  C   UNL d   1      59.855  49.690  50.699  0.00  0.00     0.102 A 
ATOM      8  N   UNL d   1      60.156  49.704  51.465  0.00  0.00    -0.222 NA
ATOM      9  C   UNL d   1      60.981  49.694  51.414  0.00  0.00     0.199 A 
ATOM     10  N   UNL d   1      61.187  49.673  50.618  0.00  0.00    -0.221 NA
ATOM     11  C   UNL d   1      60.493  49.671  50.171  0.00  0.00     0.120 A 
ENDBRANCH   1   7
TORSDOF 1
ENDMDL
