MODEL 1
REMARK VINA RESULT:      37.2      0.000      0.000
REMARK  3 active torsions:
REMARK  status: ('A' for Active; 'I' for Inactive)
REMARK    1  A    between atoms: C_11  and  C_6 
REMARK    2  A    between atoms: O_20  and  C_11 
REMARK    3  A    between atoms: C_22  and  O_20 
ROOT
ATOM      1  C   UNL d   1      46.189 -16.821  42.917  0.00  0.00     0.155 A 
ATOM      2  C   UNL d   1      45.971 -17.235  43.596  0.00  0.00     0.091 A 
ATOM      3  N   UNL d   1      46.183 -15.998  42.917  0.00  0.00    -0.210 NA
ATOM      4  N   UNL d   1      45.742 -16.004  44.275  0.00  0.00    -0.258 N 
ATOM      5  N   UNL d   1      46.412 -17.230  42.238  0.00  0.00    -0.272 N 
ATOM      6  C   UNL d   1      46.202 -18.475  42.913  0.00  0.00     0.100 A 
ATOM      7  C   UNL d   1      45.961 -15.596  43.592  0.00  0.00     0.152 A 
ATOM      8  C   UNL d   1      45.748 -16.828  44.275  0.00  0.00     0.269 A 
ATOM      9  C   UNL d   1      46.420 -18.060  42.234  0.00  0.00     0.176 A 
ATOM     10  C   UNL d   1      45.976 -18.061  43.600  0.00  0.00     0.016 A 
ATOM     11  C   UNL d   1      45.954 -14.766  43.596  0.00  0.00     0.035 A 
ATOM     12  C   UNL d   1      45.519 -15.596  44.954  0.00  0.00     0.084 A 
ATOM     13  N   UNL d   1      46.644 -18.472  41.554  0.00  0.00    -0.128 N 
ATOM     14  O   UNL d   1      45.530 -17.242  44.955  0.00  0.00    -0.266 OA
ATOM     15  C   UNL d   1      45.514 -14.780  44.950  0.00  0.00     0.019 A 
ATOM     16  C   UNL d   1      45.732 -14.365  44.270  0.00  0.00     0.005 A 
ATOM     17  C   UNL d   1      46.630 -16.815  41.559  0.00  0.00     0.102 C 
ATOM     18  C   UNL d   1      46.172 -14.352  42.917  0.00  0.00     0.003 C 
ENDROOT
BRANCH   6  19
ATOM     19  C   UNL d   1      46.208 -19.302  42.912  0.00  0.00     0.303 C 
ATOM     20  O   UNL d   1      45.827 -19.716  42.309  0.00  0.00    -0.259 OA
BRANCH  19  21
ATOM     21  O   UNL d   1      46.595 -19.711  43.514  0.00  0.00    -0.271 OA
BRANCH  21  22
ATOM     22  C   UNL d   1      46.211 -20.327  43.902  0.00  0.00     0.126 C 
ATOM     23  C   UNL d   1      46.142 -20.313  44.723  0.00  0.00     0.029 C 
ENDBRANCH  21  22
ENDBRANCH  19  21
ENDBRANCH   6  19
TORSDOF 3
ENDMDL
MODEL 2
REMARK VINA RESULT:      37.8      2.090      3.696
REMARK  3 active torsions:
REMARK  status: ('A' for Active; 'I' for Inactive)
REMARK    1  A    between atoms: C_11  and  C_6 
REMARK    2  A    between atoms: O_20  and  C_11 
REMARK    3  A    between atoms: C_22  and  O_20 
ROOT
ATOM      1  C   UNL d   1      46.334 -19.061  42.090  0.00  0.00     0.155 A 
ATOM      2  C   UNL d   1      46.127 -18.262  42.113  0.00  0.00     0.091 A 
ATOM      3  N   UNL d   1      46.437 -19.480  42.790  0.00  0.00    -0.210 NA
ATOM      4  N   UNL d   1      46.127 -18.305  43.538  0.00  0.00    -0.258 N 
ATOM      5  N   UNL d   1      46.437 -19.438  41.365  0.00  0.00    -0.272 N 
ATOM      6  C   UNL d   1      46.127 -18.220  40.680  0.00  0.00     0.100 A 
ATOM      7  C   UNL d   1      46.333 -19.103  43.506  0.00  0.00     0.152 A 
ATOM      8  C   UNL d   1      46.023 -17.884  42.837  0.00  0.00     0.269 A 
ATOM      9  C   UNL d   1      46.334 -19.018  40.656  0.00  0.00     0.176 A 
ATOM     10  C   UNL d   1      46.023 -17.838  41.413  0.00  0.00     0.016 A 
ATOM     11  C   UNL d   1      46.437 -19.523  44.214  0.00  0.00     0.035 A 
ATOM     12  C   UNL d   1      46.023 -17.926  44.261  0.00  0.00     0.084 A 
ATOM     13  N   UNL d   1      46.437 -19.395  39.929  0.00  0.00    -0.128 N 
ATOM     14  O   UNL d   1      45.816 -17.086  42.861  0.00  0.00    -0.266 OA
ATOM     15  C   UNL d   1      46.126 -18.347  44.953  0.00  0.00     0.019 A 
ATOM     16  C   UNL d   1      46.333 -19.145  44.929  0.00  0.00     0.005 A 
ATOM     17  C   UNL d   1      46.644 -20.236  41.341  0.00  0.00     0.102 C 
ATOM     18  C   UNL d   1      46.643 -20.321  44.190  0.00  0.00     0.003 C 
ENDROOT
BRANCH   6  19
ATOM     19  C   UNL d   1      46.024 -17.799  39.976  0.00  0.00     0.303 C 
ATOM     20  O   UNL d   1      46.646 -17.355  39.666  0.00  0.00    -0.259 OA
BRANCH  19  21
ATOM     21  O   UNL d   1      45.299 -17.823  39.585  0.00  0.00    -0.271 OA
BRANCH  21  22
ATOM     22  C   UNL d   1      45.037 -17.164  39.167  0.00  0.00     0.126 C 
ATOM     23  C   UNL d   1      44.538 -17.262  38.519  0.00  0.00     0.029 C 
ENDBRANCH  21  22
ENDBRANCH  19  21
ENDBRANCH   6  19
TORSDOF 3
ENDMDL
