MODEL 1
REMARK VINA RESULT:      -2.3      0.000      0.000
REMARK  7 active torsions:
REMARK  status: ('A' for Active; 'I' for Inactive)
REMARK    1  A    between atoms: S_10  and  C_9 
REMARK    2  A    between atoms: C_15  and  S_10 
REMARK    3  A    between atoms: C_11  and  C_15 
REMARK       I    between atoms: N_16  and  C_11 
REMARK    4  A    between atoms: C_24  and  N_16 
REMARK    5  A    between atoms: C_21  and  C_24 
REMARK    6  A    between atoms: C_25  and  C_21 
REMARK    7  A    between atoms: O_23  and  C_25 
ROOT
ATOM      1  C   UNL d   1      59.362  -9.817  31.474  0.00  0.00     0.004 A 
ATOM      2  C   UNL d   1      60.054  -9.817  31.041  0.00  0.00     0.000 A 
ATOM      3  C   UNL d   1      58.623  -9.817  31.100  0.00  0.00     0.039 A 
ATOM      4  C   UNL d   1      58.562  -9.817  30.286  0.00  0.00     0.196 A 
ATOM      5  C   UNL d   1      60.001  -9.817  30.211  0.00  0.00     0.003 A 
ATOM      6  C   UNL d   1      59.242  -9.817  29.827  0.00  0.00     0.039 A 
ATOM      7  C   UNL d   1      59.414  -9.817  32.304  0.00  0.00     0.006 A 
ATOM      8  C   UNL d   1      60.792  -9.818  31.414  0.00  0.00     0.001 A 
ATOM      9  C   UNL d   1      60.152  -9.817  32.678  0.00  0.00     0.030 A 
ATOM     10  O   UNL d   1      57.820  -9.817  29.910  0.00  0.00    -0.287 OA
ATOM     11  C   UNL d   1      60.832  -9.818  32.218  0.00  0.00     0.006 A 
ATOM     12  C   UNL d   1      57.922  -9.817  31.549  0.00  0.00     0.003 A 
ATOM     13  C   UNL d   1      60.700  -9.817  29.763  0.00  0.00     0.000 A 
ATOM     14  C   UNL d   1      59.209  -9.817  29.008  0.00  0.00     0.003 A 
ATOM     15  C   UNL d   1      58.714  -9.817  32.752  0.00  0.00     0.001 A 
ATOM     16  C   UNL d   1      57.986  -9.817  32.421  0.00  0.00     0.000 A 
ATOM     17  C   UNL d   1      59.891  -9.817  28.544  0.00  0.00     0.000 A 
ATOM     18  C   UNL d   1      60.679  -9.817  28.943  0.00  0.00     0.000 A 
ENDROOT
BRANCH   9  19
ATOM     19  S   UNL d   1      60.215  -9.817  33.512  0.00  0.00    -0.081 SA
BRANCH  19  20
ATOM     20  C   UNL d   1      60.893  -9.507  33.877  0.00  0.00     0.098 C 
BRANCH  20  21
ATOM     21  C   UNL d   1      60.873  -9.256  34.632  0.00  0.00     0.286 C 
ATOM     22  O   UNL d   1      60.590  -9.749  35.224  0.00  0.00    -0.265 OA
ATOM     23  N   UNL d   1      61.133  -8.503  34.828  0.00  0.00    -0.206 NA
BRANCH  23  24
ATOM     24  C   UNL d   1      61.120  -8.223  35.609  0.00  0.00     0.104 C 
BRANCH  24  25
ATOM     25  C   UNL d   1      60.542  -7.695  35.830  0.00  0.00     0.047 C 
BRANCH  25  26
ATOM     26  C   UNL d   1      60.727  -6.897  35.855  0.00  0.00     0.118 C 
BRANCH  26  27
ATOM     27  O   UNL d   1      60.237  -6.367  36.211  0.00  0.00    -0.326 OA
ATOM     28  C   UNL d   1      60.456  -5.582  36.305  0.00  0.00     0.181 C 
ENDBRANCH  26  27
ENDBRANCH  25  26
ENDBRANCH  24  25
ENDBRANCH  23  24
ENDBRANCH  20  21
ENDBRANCH  19  20
ENDBRANCH   9  19
TORSDOF 7
ENDMDL
MODEL 2
REMARK VINA RESULT:      -0.8      8.203      9.308
REMARK  7 active torsions:
REMARK  status: ('A' for Active; 'I' for Inactive)
REMARK    1  A    between atoms: S_10  and  C_9 
REMARK    2  A    between atoms: C_15  and  S_10 
REMARK    3  A    between atoms: C_11  and  C_15 
REMARK       I    between atoms: N_16  and  C_11 
REMARK    4  A    between atoms: C_24  and  N_16 
REMARK    5  A    between atoms: C_21  and  C_24 
REMARK    6  A    between atoms: C_25  and  C_21 
REMARK    7  A    between atoms: O_23  and  C_25 
ROOT
ATOM      1  C   UNL d   1      59.262  -0.833  29.964  0.00  0.00     0.004 A 
ATOM      2  C   UNL d   1      58.746  -1.452  29.832  0.00  0.00     0.000 A 
ATOM      3  C   UNL d   1      60.032  -0.845  29.661  0.00  0.00     0.039 A 
ATOM      4  C   UNL d   1      60.302  -1.476  29.220  0.00  0.00     0.196 A 
ATOM      5  C   UNL d   1      59.013  -2.099  29.384  0.00  0.00     0.003 A 
ATOM      6  C   UNL d   1      59.804  -2.111  29.072  0.00  0.00     0.039 A 
ATOM      7  C   UNL d   1      58.995  -0.185  30.413  0.00  0.00     0.006 A 
ATOM      8  C   UNL d   1      57.977  -1.440  30.135  0.00  0.00     0.001 A 
ATOM      9  C   UNL d   1      58.225  -0.173  30.716  0.00  0.00     0.030 A 
ATOM     10  O   UNL d   1      61.076  -1.488  28.915  0.00  0.00    -0.287 OA
ATOM     11  C   UNL d   1      57.728  -0.809  30.568  0.00  0.00     0.006 A 
ATOM     12  C   UNL d   1      60.550  -0.209  29.801  0.00  0.00     0.003 A 
ATOM     13  C   UNL d   1      58.495  -2.734  29.245  0.00  0.00     0.000 A 
ATOM     14  C   UNL d   1      60.050  -2.758  28.632  0.00  0.00     0.003 A 
ATOM     15  C   UNL d   1      59.513   0.450  30.553  0.00  0.00     0.001 A 
ATOM     16  C   UNL d   1      60.263   0.468  30.273  0.00  0.00     0.000 A 
ATOM     17  C   UNL d   1      59.552  -3.398  28.482  0.00  0.00     0.000 A 
ATOM     18  C   UNL d   1      58.730  -3.385  28.806  0.00  0.00     0.000 A 
ENDROOT
BRANCH   9  19
ATOM     19  S   UNL d   1      57.948   0.474  31.169  0.00  0.00    -0.081 SA
BRANCH  19  20
ATOM     20  C   UNL d   1      57.198   0.442  31.522  0.00  0.00     0.098 C 
BRANCH  20  21
ATOM     21  C   UNL d   1      57.109   0.547  32.306  0.00  0.00     0.286 C 
ATOM     22  O   UNL d   1      57.768   0.628  32.789  0.00  0.00    -0.265 OA
ATOM     23  N   UNL d   1      56.361   0.574  32.642  0.00  0.00    -0.206 NA
BRANCH  23  24
ATOM     24  C   UNL d   1      56.249   0.682  33.457  0.00  0.00     0.104 C 
BRANCH  24  25
ATOM     25  C   UNL d   1      55.623   0.311  33.821  0.00  0.00     0.047 C 
BRANCH  25  26
ATOM     26  C   UNL d   1      55.458   0.495  34.603  0.00  0.00     0.118 C 
BRANCH  26  27
ATOM     27  O   UNL d   1      54.784   0.234  34.959  0.00  0.00    -0.326 OA
ATOM     28  C   UNL d   1      54.407   0.682  35.534  0.00  0.00     0.181 C 
ENDBRANCH  26  27
ENDBRANCH  25  26
ENDBRANCH  24  25
ENDBRANCH  23  24
ENDBRANCH  20  21
ENDBRANCH  19  20
ENDBRANCH   9  19
TORSDOF 7
ENDMDL
MODEL 3
REMARK VINA RESULT:       0.3      1.661      5.127
REMARK  7 active torsions:
REMARK  status: ('A' for Active; 'I' for Inactive)
REMARK    1  A    between atoms: S_10  and  C_9 
REMARK    2  A    between atoms: C_15  and  S_10 
REMARK    3  A    between atoms: C_11  and  C_15 
REMARK       I    between atoms: N_16  and  C_11 
REMARK    4  A    between atoms: C_24  and  N_16 
REMARK    5  A    between atoms: C_21  and  C_24 
REMARK    6  A    between atoms: C_25  and  C_21 
REMARK    7  A    between atoms: O_23  and  C_25 
ROOT
ATOM      1  C   UNL d   1      59.703  -9.290  33.319  0.00  0.00     0.004 A 
ATOM      2  C   UNL d   1      60.405  -9.039  33.653  0.00  0.00     0.000 A 
ATOM      3  C   UNL d   1      58.998  -9.286  33.752  0.00  0.00     0.039 A 
ATOM      4  C   UNL d   1      58.980  -9.031  34.528  0.00  0.00     0.196 A 
ATOM      5  C   UNL d   1      60.396  -8.778  34.442  0.00  0.00     0.003 A 
ATOM      6  C   UNL d   1      59.672  -8.773  34.886  0.00  0.00     0.039 A 
ATOM      7  C   UNL d   1      59.712  -9.552  32.529  0.00  0.00     0.006 A 
ATOM      8  C   UNL d   1      61.110  -9.043  33.220  0.00  0.00     0.001 A 
ATOM      9  C   UNL d   1      60.416  -9.556  32.096  0.00  0.00     0.030 A 
ATOM     10  O   UNL d   1      58.271  -9.026  34.963  0.00  0.00    -0.287 OA
ATOM     11  C   UNL d   1      61.107  -9.299  32.456  0.00  0.00     0.006 A 
ATOM     12  C   UNL d   1      58.287  -9.543  33.405  0.00  0.00     0.003 A 
ATOM     13  C   UNL d   1      61.106  -8.521  34.789  0.00  0.00     0.000 A 
ATOM     14  C   UNL d   1      59.681  -8.512  35.664  0.00  0.00     0.003 A 
ATOM     15  C   UNL d   1      59.002  -9.809  32.182  0.00  0.00     0.001 A 
ATOM     16  C   UNL d   1      58.304  -9.817  32.575  0.00  0.00     0.000 A 
ATOM     17  C   UNL d   1      60.376  -8.253  36.027  0.00  0.00     0.000 A 
ATOM     18  C   UNL d   1      61.128  -8.257  35.565  0.00  0.00     0.000 A 
ENDROOT
BRANCH   9  19
ATOM     19  S   UNL d   1      60.435  -9.818  31.302  0.00  0.00    -0.081 SA
BRANCH  19  20
ATOM     20  C   UNL d   1      60.695  -9.306  30.702  0.00  0.00     0.098 C 
BRANCH  20  21
ATOM     21  C   UNL d   1      60.532  -9.454  29.938  0.00  0.00     0.286 C 
ATOM     22  O   UNL d   1      61.132  -9.443  29.378  0.00  0.00    -0.265 OA
ATOM     23  N   UNL d   1      59.765  -9.619  29.698  0.00  0.00    -0.206 NA
BRANCH  23  24
ATOM     24  C   UNL d   1      59.576  -9.776  28.906  0.00  0.00     0.104 C 
BRANCH  24  25
ATOM     25  C   UNL d   1      58.929  -9.409  28.574  0.00  0.00     0.047 C 
BRANCH  25  26
ATOM     26  C   UNL d   1      58.192  -9.758  28.659  0.00  0.00     0.118 C 
BRANCH  26  27
ATOM     27  O   UNL d   1      57.516  -9.338  28.537  0.00  0.00    -0.326 OA
ATOM     28  C   UNL d   1      56.781  -9.655  28.716  0.00  0.00     0.181 C 
ENDBRANCH  26  27
ENDBRANCH  25  26
ENDBRANCH  24  25
ENDBRANCH  23  24
ENDBRANCH  20  21
ENDBRANCH  19  20
ENDBRANCH   9  19
TORSDOF 7
ENDMDL
MODEL 4
REMARK VINA RESULT:       0.6      8.806      9.700
REMARK  7 active torsions:
REMARK  status: ('A' for Active; 'I' for Inactive)
REMARK    1  A    between atoms: S_10  and  C_9 
REMARK    2  A    between atoms: C_15  and  S_10 
REMARK    3  A    between atoms: C_11  and  C_15 
REMARK       I    between atoms: N_16  and  C_11 
REMARK    4  A    between atoms: C_24  and  N_16 
REMARK    5  A    between atoms: C_21  and  C_24 
REMARK    6  A    between atoms: C_25  and  C_21 
REMARK    7  A    between atoms: O_23  and  C_25 
ROOT
ATOM      1  C   UNL d   1      58.594  -0.572  30.266  0.00  0.00     0.004 A 
ATOM      2  C   UNL d   1      59.267  -0.112  30.227  0.00  0.00     0.000 A 
ATOM      3  C   UNL d   1      58.475  -1.201  29.741  0.00  0.00     0.039 A 
ATOM      4  C   UNL d   1      59.027  -1.382  29.167  0.00  0.00     0.196 A 
ATOM      5  C   UNL d   1      59.834  -0.290  29.646  0.00  0.00     0.003 A 
ATOM      6  C   UNL d   1      59.712  -0.936  29.107  0.00  0.00     0.039 A 
ATOM      7  C   UNL d   1      58.026  -0.394  30.847  0.00  0.00     0.006 A 
ATOM      8  C   UNL d   1      59.386   0.517  30.751  0.00  0.00     0.001 A 
ATOM      9  C   UNL d   1      58.145   0.234  31.371  0.00  0.00     0.030 A 
ATOM     10  O   UNL d   1      58.907  -2.015  28.640  0.00  0.00    -0.287 OA
ATOM     11  C   UNL d   1      58.831   0.681  31.310  0.00  0.00     0.006 A 
ATOM     12  C   UNL d   1      57.786  -1.665  29.787  0.00  0.00     0.003 A 
ATOM     13  C   UNL d   1      60.523   0.174  29.600  0.00  0.00     0.000 A 
ATOM     14  C   UNL d   1      60.282  -1.097  28.540  0.00  0.00     0.003 A 
ATOM     15  C   UNL d   1      57.338  -0.858  30.893  0.00  0.00     0.001 A 
ATOM     16  C   UNL d   1      57.194  -1.472  30.400  0.00  0.00     0.000 A 
ATOM     17  C   UNL d   1      60.973  -0.649  28.478  0.00  0.00     0.000 A 
ATOM     18  C   UNL d   1      61.100   0.022  29.037  0.00  0.00     0.000 A 
ENDROOT
BRANCH   9  19
ATOM     19  S   UNL d   1      57.579   0.421  31.959  0.00  0.00    -0.081 SA
BRANCH  19  20
ATOM     20  C   UNL d   1      57.825   0.582  32.735  0.00  0.00     0.098 C 
BRANCH  20  21
ATOM     21  C   UNL d   1      57.303   0.602  33.335  0.00  0.00     0.286 C 
ATOM     22  O   UNL d   1      57.566   0.669  34.110  0.00  0.00    -0.265 OA
ATOM     23  N   UNL d   1      56.497   0.555  33.189  0.00  0.00    -0.206 NA
BRANCH  23  24
ATOM     24  C   UNL d   1      55.937   0.574  33.802  0.00  0.00     0.104 C 
BRANCH  24  25
ATOM     25  C   UNL d   1      55.146   0.600  33.613  0.00  0.00     0.047 C 
BRANCH  25  26
ATOM     26  C   UNL d   1      54.596   0.584  34.220  0.00  0.00     0.118 C 
BRANCH  26  27
ATOM     27  O   UNL d   1      53.816   0.454  34.072  0.00  0.00    -0.326 OA
ATOM     28  C   UNL d   1      53.244   0.600  34.643  0.00  0.00     0.181 C 
ENDBRANCH  26  27
ENDBRANCH  25  26
ENDBRANCH  24  25
ENDBRANCH  23  24
ENDBRANCH  20  21
ENDBRANCH  19  20
ENDBRANCH   9  19
TORSDOF 7
ENDMDL
