MODEL 1
REMARK VINA RESULT:      -2.9      0.000      0.000
REMARK  1 active torsions:
REMARK  status: ('A' for Active; 'I' for Inactive)
REMARK    1  A    between atoms: C_6  and  C_1 
ROOT
ATOM      1  C   UNL d   1      29.389  16.588 -24.161  0.00  0.00     0.085 A 
ATOM      2  C   UNL d   1      29.510  17.262 -24.627  0.00  0.00     0.137 A 
ATOM      3  C   UNL d   1      30.105  16.314 -23.907  0.00  0.00     0.013 A 
ATOM      4  C   UNL d   1      30.675  16.817 -24.214  0.00  0.00     0.031 A 
ATOM      5  S   UNL d   1      30.293  17.399 -24.657  0.00  0.00    -0.066 SA
ATOM      6  C   UNL d   1      30.324  15.671 -23.436  0.00  0.00     0.001 A 
ATOM      7  C   UNL d   1      31.454  16.687 -24.057  0.00  0.00     0.006 A 
ATOM      8  N   UNL d   1      28.904  17.740 -25.015  0.00  0.00    -0.141 N 
ATOM      9  C   UNL d   1      31.097  15.532 -23.272  0.00  0.00     0.000 A 
ATOM     10  C   UNL d   1      31.683  16.062 -23.597  0.00  0.00     0.001 A 
ATOM     11  C   UNL d   1      32.524  15.925 -23.429  0.00  0.00     0.000 C 
ENDROOT
BRANCH   1  12
ATOM     12  C   UNL d   1      28.632  16.256 -23.992  0.00  0.00     0.299 C 
ATOM     13  O   UNL d   1      28.349  15.630 -24.438  0.00  0.00    -0.264 OA
ATOM     14  N   UNL d   1      28.156  16.565 -23.359  0.00  0.00    -0.102 N 
ENDBRANCH   1  12
TORSDOF 1
ENDMDL
MODEL 2
REMARK VINA RESULT:      -2.8      1.748      2.611
REMARK  1 active torsions:
REMARK  status: ('A' for Active; 'I' for Inactive)
REMARK    1  A    between atoms: C_6  and  C_1 
ROOT
ATOM      1  C   UNL d   1      31.039  16.769 -24.123  0.00  0.00     0.085 A 
ATOM      2  C   UNL d   1      30.839  17.347 -24.681  0.00  0.00     0.137 A 
ATOM      3  C   UNL d   1      30.363  16.402 -23.874  0.00  0.00     0.013 A 
ATOM      4  C   UNL d   1      29.741  16.751 -24.277  0.00  0.00     0.031 A 
ATOM      5  S   UNL d   1      30.049  17.334 -24.773  0.00  0.00    -0.066 SA
ATOM      6  C   UNL d   1      30.223  15.793 -23.333  0.00  0.00     0.001 A 
ATOM      7  C   UNL d   1      28.986  16.501 -24.147  0.00  0.00     0.006 A 
ATOM      8  N   UNL d   1      31.381  17.876 -25.096  0.00  0.00    -0.141 N 
ATOM      9  C   UNL d   1      29.476  15.536 -23.195  0.00  0.00     0.000 A 
ATOM     10  C   UNL d   1      28.834  15.907 -23.620  0.00  0.00     0.001 A 
ATOM     11  C   UNL d   1      28.018  15.640 -23.482  0.00  0.00     0.000 C 
ENDROOT
BRANCH   1  12
ATOM     12  C   UNL d   1      31.825  16.604 -23.868  0.00  0.00     0.299 C 
ATOM     13  O   UNL d   1      32.145  17.012 -23.233  0.00  0.00    -0.264 OA
ATOM     14  N   UNL d   1      32.295  16.017 -24.264  0.00  0.00    -0.102 N 
ENDBRANCH   1  12
TORSDOF 1
ENDMDL
MODEL 3
REMARK VINA RESULT:      -2.8      6.394      6.802
REMARK  1 active torsions:
REMARK  status: ('A' for Active; 'I' for Inactive)
REMARK    1  A    between atoms: C_6  and  C_1 
ROOT
ATOM      1  C   UNL d   1      32.749  22.606 -21.437  0.00  0.00     0.085 A 
ATOM      2  C   UNL d   1      33.012  22.876 -22.175  0.00  0.00     0.137 A 
ATOM      3  C   UNL d   1      32.811  21.801 -21.416  0.00  0.00     0.013 A 
ATOM      4  C   UNL d   1      33.114  21.566 -22.141  0.00  0.00     0.031 A 
ATOM      5  S   UNL d   1      33.234  22.241 -22.601  0.00  0.00    -0.066 SA
ATOM      6  C   UNL d   1      32.634  21.240 -20.835  0.00  0.00     0.001 A 
ATOM      7  C   UNL d   1      33.241  20.786 -22.291  0.00  0.00     0.006 A 
ATOM      8  N   UNL d   1      33.046  23.695 -22.446  0.00  0.00    -0.141 N 
ATOM      9  C   UNL d   1      32.756  20.459 -20.973  0.00  0.00     0.000 A 
ATOM     10  C   UNL d   1      33.072  20.225 -21.732  0.00  0.00     0.001 A 
ATOM     11  C   UNL d   1      33.210  19.384 -21.897  0.00  0.00     0.000 C 
ENDROOT
BRANCH   1  12
ATOM     12  C   UNL d   1      32.465  23.107 -20.822  0.00  0.00     0.299 C 
ATOM     13  O   UNL d   1      31.661  23.252 -20.748  0.00  0.00    -0.264 OA
ATOM     14  N   UNL d   1      33.004  23.466 -20.272  0.00  0.00    -0.102 N 
ENDBRANCH   1  12
TORSDOF 1
ENDMDL
MODEL 4
REMARK VINA RESULT:      -2.8      0.990      1.538
REMARK  1 active torsions:
REMARK  status: ('A' for Active; 'I' for Inactive)
REMARK    1  A    between atoms: C_6  and  C_1 
ROOT
ATOM      1  C   UNL d   1      29.657  16.507 -23.984  0.00  0.00     0.085 A 
ATOM      2  C   UNL d   1      29.576  15.848 -23.488  0.00  0.00     0.137 A 
ATOM      3  C   UNL d   1      30.440  16.696 -24.042  0.00  0.00     0.013 A 
ATOM      4  C   UNL d   1      30.850  16.156 -23.582  0.00  0.00     0.031 A 
ATOM      5  S   UNL d   1      30.304  15.637 -23.244  0.00  0.00    -0.066 SA
ATOM      6  C   UNL d   1      30.844  17.289 -24.452  0.00  0.00     0.001 A 
ATOM      7  C   UNL d   1      31.652  16.201 -23.526  0.00  0.00     0.006 A 
ATOM      8  N   UNL d   1      28.841  15.453 -23.266  0.00  0.00    -0.141 N 
ATOM      9  C   UNL d   1      31.643  17.344 -24.405  0.00  0.00     0.000 A 
ATOM     10  C   UNL d   1      32.062  16.776 -23.922  0.00  0.00     0.001 A 
ATOM     11  C   UNL d   1      32.927  16.821 -23.860  0.00  0.00     0.000 C 
ENDROOT
BRANCH   1  12
ATOM     12  C   UNL d   1      29.013  16.902 -24.359  0.00  0.00     0.299 C 
ATOM     13  O   UNL d   1      28.753  16.655 -25.096  0.00  0.00    -0.264 OA
ATOM     14  N   UNL d   1      28.626  17.556 -23.979  0.00  0.00    -0.102 N 
ENDBRANCH   1  12
TORSDOF 1
ENDMDL
MODEL 5
REMARK VINA RESULT:      -2.8      1.977      2.985
REMARK  1 active torsions:
REMARK  status: ('A' for Active; 'I' for Inactive)
REMARK    1  A    between atoms: C_6  and  C_1 
ROOT
ATOM      1  C   UNL d   1      31.262  16.675 -23.949  0.00  0.00     0.085 A 
ATOM      2  C   UNL d   1      31.611  16.045 -23.540  0.00  0.00     0.137 A 
ATOM      3  C   UNL d   1      30.460  16.575 -23.948  0.00  0.00     0.013 A 
ATOM      4  C   UNL d   1      30.307  15.882 -23.538  0.00  0.00     0.031 A 
ATOM      5  S   UNL d   1      31.027  15.564 -23.291  0.00  0.00    -0.066 SA
ATOM      6  C   UNL d   1      29.840  17.021 -24.264  0.00  0.00     0.001 A 
ATOM      7  C   UNL d   1      29.549  15.631 -23.441  0.00  0.00     0.006 A 
ATOM      8  N   UNL d   1      32.454  15.919 -23.402  0.00  0.00    -0.141 N 
ATOM      9  C   UNL d   1      29.080  16.780 -24.174  0.00  0.00     0.000 A 
ATOM     10  C   UNL d   1      28.931  16.056 -23.745  0.00  0.00     0.001 A 
ATOM     11  C   UNL d   1      28.114  15.781 -23.639  0.00  0.00     0.000 C 
ENDROOT
BRANCH   1  12
ATOM     12  C   UNL d   1      31.691  17.309 -24.302  0.00  0.00     0.299 C 
ATOM     13  O   UNL d   1      31.825  18.000 -23.882  0.00  0.00    -0.264 OA
ATOM     14  N   UNL d   1      31.991  17.240 -25.095  0.00  0.00    -0.102 N 
ENDBRANCH   1  12
TORSDOF 1
ENDMDL
MODEL 6
REMARK VINA RESULT:      -2.5      6.552      7.080
REMARK  1 active torsions:
REMARK  status: ('A' for Active; 'I' for Inactive)
REMARK    1  A    between atoms: C_6  and  C_1 
ROOT
ATOM      1  C   UNL d   1      32.685  21.817 -21.357  0.00  0.00     0.085 A 
ATOM      2  C   UNL d   1      32.990  21.104 -21.648  0.00  0.00     0.137 A 
ATOM      3  C   UNL d   1      32.751  22.383 -21.931  0.00  0.00     0.013 A 
ATOM      4  C   UNL d   1      33.098  22.023 -22.580  0.00  0.00     0.031 A 
ATOM      5  S   UNL d   1      33.241  21.233 -22.393  0.00  0.00    -0.066 SA
ATOM      6  C   UNL d   1      32.543  23.182 -21.955  0.00  0.00     0.001 A 
ATOM      7  C   UNL d   1      33.238  22.449 -23.249  0.00  0.00     0.006 A 
ATOM      8  N   UNL d   1      33.035  20.350 -21.229  0.00  0.00    -0.141 N 
ATOM      9  C   UNL d   1      32.678  23.617 -22.616  0.00  0.00     0.000 A 
ATOM     10  C   UNL d   1      33.040  23.233 -23.288  0.00  0.00     0.001 A 
ATOM     11  C   UNL d   1      33.193  23.689 -24.011  0.00  0.00     0.000 C 
ENDROOT
BRANCH   1  12
ATOM     12  C   UNL d   1      32.362  21.917 -20.585  0.00  0.00     0.299 C 
ATOM     13  O   UNL d   1      31.568  21.763 -20.449  0.00  0.00    -0.264 OA
ATOM     14  N   UNL d   1      32.852  22.175 -19.940  0.00  0.00    -0.102 N 
ENDBRANCH   1  12
TORSDOF 1
ENDMDL
MODEL 7
REMARK VINA RESULT:      -2.4      7.514      7.965
REMARK  1 active torsions:
REMARK  status: ('A' for Active; 'I' for Inactive)
REMARK    1  A    between atoms: C_6  and  C_1 
ROOT
ATOM      1  C   UNL d   1      32.814  22.690 -21.297  0.00  0.00     0.085 A 
ATOM      2  C   UNL d   1      32.961  21.878 -21.374  0.00  0.00     0.137 A 
ATOM      3  C   UNL d   1      32.889  22.897 -20.520  0.00  0.00     0.013 A 
ATOM      4  C   UNL d   1      33.083  22.214 -20.110  0.00  0.00     0.031 A 
ATOM      5  S   UNL d   1      33.124  21.592 -20.650  0.00  0.00    -0.066 SA
ATOM      6  C   UNL d   1      32.807  23.616 -20.121  0.00  0.00     0.001 A 
ATOM      7  C   UNL d   1      33.195  22.242 -19.313  0.00  0.00     0.006 A 
ATOM      8  N   UNL d   1      32.944  21.414 -22.103  0.00  0.00    -0.141 N 
ATOM      9  C   UNL d   1      32.917  23.656 -19.328  0.00  0.00     0.000 A 
ATOM     10  C   UNL d   1      33.119  22.938 -18.909  0.00  0.00     0.001 A 
ATOM     11  C   UNL d   1      33.241  22.964 -18.050  0.00  0.00     0.000 C 
ENDROOT
BRANCH   1  12
ATOM     12  C   UNL d   1      32.619  23.201 -21.939  0.00  0.00     0.299 C 
ATOM     13  O   UNL d   1      31.834  23.363 -22.112  0.00  0.00    -0.264 OA
ATOM     14  N   UNL d   1      33.230  23.553 -22.414  0.00  0.00    -0.102 N 
ENDBRANCH   1  12
TORSDOF 1
ENDMDL
MODEL 8
REMARK VINA RESULT:      -2.3      2.005      2.544
REMARK  1 active torsions:
REMARK  status: ('A' for Active; 'I' for Inactive)
REMARK    1  A    between atoms: C_6  and  C_1 
ROOT
ATOM      1  C   UNL d   1      31.381  16.805 -24.111  0.00  0.00     0.085 A 
ATOM      2  C   UNL d   1      30.908  16.976 -24.769  0.00  0.00     0.137 A 
ATOM      3  C   UNL d   1      31.902  17.412 -23.998  0.00  0.00     0.013 A 
ATOM      4  C   UNL d   1      31.754  17.964 -24.585  0.00  0.00     0.031 A 
ATOM      5  S   UNL d   1      31.137  17.683 -25.056  0.00  0.00    -0.066 SA
ATOM      6  C   UNL d   1      32.496  17.544 -23.438  0.00  0.00     0.001 A 
ATOM      7  C   UNL d   1      32.189  18.641 -24.620  0.00  0.00     0.006 A 
ATOM      8  N   UNL d   1      30.276  16.486 -25.096  0.00  0.00    -0.141 N 
ATOM      9  C   UNL d   1      32.935  18.214 -23.463  0.00  0.00     0.000 A 
ATOM     10  C   UNL d   1      32.774  18.784 -24.080  0.00  0.00     0.001 A 
ATOM     11  C   UNL d   1      33.241  19.515 -24.120  0.00  0.00     0.000 C 
ENDROOT
BRANCH   1  12
ATOM     12  C   UNL d   1      31.315  16.104 -23.648  0.00  0.00     0.299 C 
ATOM     13  O   UNL d   1      31.820  15.472 -23.783  0.00  0.00    -0.264 OA
ATOM     14  N   UNL d   1      30.727  16.042 -23.037  0.00  0.00    -0.102 N 
ENDBRANCH   1  12
TORSDOF 1
ENDMDL
MODEL 9
REMARK VINA RESULT:      -1.6      3.474      4.149
REMARK  1 active torsions:
REMARK  status: ('A' for Active; 'I' for Inactive)
REMARK    1  A    between atoms: C_6  and  C_1 
ROOT
ATOM      1  C   UNL d   1      32.543  18.221 -23.659  0.00  0.00     0.085 A 
ATOM      2  C   UNL d   1      32.885  17.552 -23.310  0.00  0.00     0.137 A 
ATOM      3  C   UNL d   1      32.646  18.854 -23.166  0.00  0.00     0.013 A 
ATOM      4  C   UNL d   1      33.053  18.580 -22.510  0.00  0.00     0.031 A 
ATOM      5  S   UNL d   1      33.195  17.773 -22.611  0.00  0.00    -0.066 SA
ATOM      6  C   UNL d   1      32.426  19.648 -23.222  0.00  0.00     0.001 A 
ATOM      7  C   UNL d   1      33.241  19.086 -21.913  0.00  0.00     0.006 A 
ATOM      8  N   UNL d   1      32.909  16.752 -23.636  0.00  0.00    -0.141 N 
ATOM      9  C   UNL d   1      32.608  20.162 -22.633  0.00  0.00     0.000 A 
ATOM     10  C   UNL d   1      33.032  19.867 -21.952  0.00  0.00     0.001 A 
ATOM     11  C   UNL d   1      33.236  20.410 -21.306  0.00  0.00     0.000 C 
ENDROOT
BRANCH   1  12
ATOM     12  C   UNL d   1      32.155  18.222 -24.407  0.00  0.00     0.299 C 
ATOM     13  O   UNL d   1      32.556  18.469 -25.078  0.00  0.00    -0.264 OA
ATOM     14  N   UNL d   1      31.347  17.968 -24.476  0.00  0.00    -0.102 N 
ENDBRANCH   1  12
TORSDOF 1
ENDMDL
