MODEL 1
REMARK VINA RESULT:      40.6      0.000      0.000
REMARK  3 active torsions:
REMARK  status: ('A' for Active; 'I' for Inactive)
REMARK    1  A    between atoms: C_2  and  S_1 
REMARK    2  A    between atoms: N_3  and  S_1 
REMARK    3  A    between atoms: C_9  and  N_3 
ROOT
ATOM      1  S   UNL d   1     -56.367 -99.472 -44.408  0.00  0.00     0.285 S 
ATOM      2  O   UNL d   1     -56.704 -99.648 -43.683  0.00  0.00    -0.198 OA
ATOM      3  O   UNL d   1     -56.024 -99.297 -45.139  0.00  0.00    -0.198 OA
ENDROOT
BRANCH   1   4
ATOM      4  C   UNL d   1     -55.953-100.188 -44.389  0.00  0.00     0.105 A 
ATOM      5  C   UNL d   1     -56.326-100.887 -44.610  0.00  0.00     0.013 A 
ATOM      6  C   UNL d   1     -55.919-101.596 -44.591  0.00  0.00     0.001 A 
ATOM      7  C   UNL d   1     -56.293-102.301 -44.813  0.00  0.00     0.000 C 
ATOM      8  C   UNL d   1     -55.129-101.616 -44.350  0.00  0.00     0.000 A 
ATOM      9  C   UNL d   1     -54.753-100.914 -44.128  0.00  0.00     0.001 A 
ATOM     10  C   UNL d   1     -54.711-102.329 -44.329  0.00  0.00     0.000 C 
ATOM     11  C   UNL d   1     -55.164-100.197 -44.147  0.00  0.00     0.012 A 
ATOM     12  C   UNL d   1     -54.788 -99.501 -43.925  0.00  0.00     0.001 C 
ENDBRANCH   1   4
BRANCH   1  13
ATOM     13  N   UNL d   1     -56.779 -98.755 -44.431  0.00  0.00    -0.159 NA
BRANCH  13  14
ATOM     14  C   UNL d   1     -57.598 -98.756 -44.419  0.00  0.00     0.089 A 
ATOM     15  C   UNL d   1     -58.024 -98.756 -45.127  0.00  0.00     0.015 A 
ATOM     16  C   UNL d   1     -58.844 -98.756 -45.119  0.00  0.00     0.100 A 
ATOM     17  C   UNL d   1     -59.559 -98.756 -45.525  0.00  0.00     0.029 C 
ATOM     18  C   UNL d   1     -58.849 -98.756 -45.942  0.00  0.00     0.029 C 
ATOM     19  N   UNL d   1     -59.245 -98.757 -44.404  0.00  0.00    -0.295 NA
ATOM     20  C   UNL d   1     -58.828 -98.757 -43.694  0.00  0.00     0.100 A 
ATOM     21  C   UNL d   1     -58.007 -98.756 -43.702  0.00  0.00     0.015 A 
ATOM     22  C   UNL d   1     -58.818 -98.757 -42.870  0.00  0.00     0.029 C 
ATOM     23  C   UNL d   1     -59.541 -98.757 -43.275  0.00  0.00     0.029 C 
ENDBRANCH  13  14
ENDBRANCH   1  13
TORSDOF 3
ENDMDL
MODEL 2
REMARK VINA RESULT:      42.1      0.368      1.392
REMARK  3 active torsions:
REMARK  status: ('A' for Active; 'I' for Inactive)
REMARK    1  A    between atoms: C_2  and  S_1 
REMARK    2  A    between atoms: N_3  and  S_1 
REMARK    3  A    between atoms: C_9  and  N_3 
ROOT
ATOM      1  S   UNL d   1     -56.362 -99.471 -44.479  0.00  0.00     0.285 S 
ATOM      2  O   UNL d   1     -55.762 -99.118 -44.910  0.00  0.00    -0.198 OA
ATOM      3  O   UNL d   1     -56.966 -99.830 -44.044  0.00  0.00    -0.198 OA
ENDROOT
BRANCH   1   4
ATOM      4  C   UNL d   1     -55.949-100.187 -44.493  0.00  0.00     0.105 A 
ATOM      5  C   UNL d   1     -56.341-100.893 -44.331  0.00  0.00     0.013 A 
ATOM      6  C   UNL d   1     -55.935-101.603 -44.343  0.00  0.00     0.001 A 
ATOM      7  C   UNL d   1     -56.328-102.314 -44.180  0.00  0.00     0.000 C 
ATOM      8  C   UNL d   1     -55.128-101.617 -44.519  0.00  0.00     0.000 A 
ATOM      9  C   UNL d   1     -54.734-100.910 -44.682  0.00  0.00     0.001 A 
ATOM     10  C   UNL d   1     -54.712-102.331 -44.534  0.00  0.00     0.000 C 
ATOM     11  C   UNL d   1     -55.144-100.191 -44.669  0.00  0.00     0.012 A 
ATOM     12  C   UNL d   1     -54.749 -99.489 -44.831  0.00  0.00     0.001 C 
ENDBRANCH   1   4
BRANCH   1  13
ATOM     13  N   UNL d   1     -56.777 -98.755 -44.464  0.00  0.00    -0.159 NA
BRANCH  13  14
ATOM     14  C   UNL d   1     -57.588 -98.756 -44.352  0.00  0.00     0.089 A 
ATOM     15  C   UNL d   1     -57.902 -98.756 -43.588  0.00  0.00     0.015 A 
ATOM     16  C   UNL d   1     -58.714 -98.758 -43.472  0.00  0.00     0.100 A 
ATOM     17  C   UNL d   1     -59.359 -98.758 -42.963  0.00  0.00     0.029 C 
ATOM     18  C   UNL d   1     -58.595 -98.757 -42.658  0.00  0.00     0.029 C 
ATOM     19  N   UNL d   1     -59.219 -98.759 -44.118  0.00  0.00    -0.295 NA
ATOM     20  C   UNL d   1     -58.914 -98.759 -44.883  0.00  0.00     0.100 A 
ATOM     21  C   UNL d   1     -58.101 -98.758 -44.998  0.00  0.00     0.015 A 
ATOM     22  C   UNL d   1     -59.028 -98.760 -45.699  0.00  0.00     0.029 C 
ATOM     23  C   UNL d   1     -59.682 -98.760 -45.189  0.00  0.00     0.029 C 
ENDBRANCH  13  14
ENDBRANCH   1  13
TORSDOF 3
ENDMDL
