MODEL 1
REMARK VINA RESULT:       1.5      0.000      0.000
REMARK  5 active torsions:
REMARK  status: ('A' for Active; 'I' for Inactive)
REMARK    1  A    between atoms: C_14  and  N_4 
REMARK    2  A    between atoms: C_15  and  C_9 
REMARK    3  A    between atoms: O_18  and  C_12 
REMARK    4  A    between atoms: O_19  and  C_13 
REMARK    5  A    between atoms: C_16  and  C_14 
ROOT
ATOM      1  C   UNL d   1      57.020  -0.518  31.762  0.00  0.00     0.056 A 
ATOM      2  C   UNL d   1      57.065  -1.115  31.186  0.00  0.00     0.107 A 
ATOM      3  C   UNL d   1      57.673  -1.109  30.632  0.00  0.00     0.038 A 
ATOM      4  N   UNL d   1      58.200   0.083  31.216  0.00  0.00    -0.304 N 
ATOM      5  N   UNL d   1      56.432  -1.626  31.310  0.00  0.00    -0.148 NA
ATOM      6  C   UNL d   1      57.587   0.080  31.777  0.00  0.00     0.083 A 
ATOM      7  N   UNL d   1      56.000  -1.348  31.956  0.00  0.00    -0.148 NA
ATOM      8  C   UNL d   1      58.240  -0.511  30.647  0.00  0.00     0.068 A 
ATOM      9  C   UNL d   1      56.357  -0.666  32.239  0.00  0.00     0.106 A 
ATOM     10  C   UNL d   1      58.849  -0.505  30.092  0.00  0.00     0.044 A 
ATOM     11  C   UNL d   1      57.714  -1.702  30.062  0.00  0.00     0.029 A 
ATOM     12  C   UNL d   1      58.890  -1.099  29.523  0.00  0.00     0.118 A 
ATOM     13  C   UNL d   1      58.322  -1.697  29.508  0.00  0.00     0.116 A 
ENDROOT
BRANCH   4  14
ATOM     14  C   UNL d   1      58.767   0.681  31.231  0.00  0.00     0.080 C 
BRANCH  14  15
ATOM     15  C   UNL d   1      59.354   0.679  31.809  0.00  0.00     0.018 A 
ATOM     16  C   UNL d   1      60.157   0.679  31.589  0.00  0.00     0.004 A 
ATOM     17  C   UNL d   1      60.744   0.677  32.166  0.00  0.00     0.030 A 
ATOM     18  C   UNL d   1      60.538   0.674  32.974  0.00  0.00     0.140 A 
ATOM     19  C   UNL d   1      59.734   0.674  33.195  0.00  0.00     0.030 A 
ATOM     20  F   UNL d   1      61.132   0.672  33.563  0.00  0.00    -0.204 F 
ATOM     21  C   UNL d   1      59.147   0.677  32.614  0.00  0.00     0.004 A 
ENDBRANCH  14  15
ENDBRANCH   4  14
BRANCH   9  22
ATOM     22  C   UNL d   1      56.038  -0.270  32.888  0.00  0.00     0.019 A 
ATOM     23  C   UNL d   1      55.291   0.075  32.832  0.00  0.00     0.002 A 
ATOM     24  C   UNL d   1      54.974   0.472  33.486  0.00  0.00     0.000 A 
ATOM     25  C   UNL d   1      55.402   0.523  34.195  0.00  0.00     0.000 A 
ATOM     26  C   UNL d   1      56.151   0.174  34.243  0.00  0.00     0.000 A 
ATOM     27  C   UNL d   1      56.467  -0.220  33.593  0.00  0.00     0.002 A 
ENDBRANCH   9  22
BRANCH  12  28
ATOM     28  O   UNL d   1      59.513  -1.089  28.959  0.00  0.00    -0.326 OA
ATOM     29  C   UNL d   1      59.815  -0.367  28.694  0.00  0.00     0.181 C 
ENDBRANCH  12  28
BRANCH  13  30
ATOM     30  O   UNL d   1      58.369  -2.295  28.929  0.00  0.00    -0.326 OA
ATOM     31  C   UNL d   1      58.199  -3.080  29.132  0.00  0.00     0.181 C 
ENDBRANCH  13  30
TORSDOF 5
ENDMDL
MODEL 2
REMARK VINA RESULT:       2.9      2.185      4.812
REMARK  5 active torsions:
REMARK  status: ('A' for Active; 'I' for Inactive)
REMARK    1  A    between atoms: C_14  and  N_4 
REMARK    2  A    between atoms: C_15  and  C_9 
REMARK    3  A    between atoms: O_18  and  C_12 
REMARK    4  A    between atoms: O_19  and  C_13 
REMARK    5  A    between atoms: C_16  and  C_14 
ROOT
ATOM      1  C   UNL d   1      58.756  -0.376  30.521  0.00  0.00     0.056 A 
ATOM      2  C   UNL d   1      58.395  -0.087  31.211  0.00  0.00     0.107 A 
ATOM      3  C   UNL d   1      57.727  -0.458  31.515  0.00  0.00     0.038 A 
ATOM      4  N   UNL d   1      57.766  -1.409  30.451  0.00  0.00    -0.304 N 
ATOM      5  N   UNL d   1      58.827   0.568  31.459  0.00  0.00    -0.148 NA
ATOM      6  C   UNL d   1      58.441  -1.037  30.141  0.00  0.00     0.083 A 
ATOM      7  N   UNL d   1      59.449   0.682  30.928  0.00  0.00    -0.148 NA
ATOM      8  C   UNL d   1      57.412  -1.119  31.135  0.00  0.00     0.068 A 
ATOM      9  C   UNL d   1      59.410   0.103  30.348  0.00  0.00     0.106 A 
ATOM     10  C   UNL d   1      56.743  -1.491  31.439  0.00  0.00     0.044 A 
ATOM     11  C   UNL d   1      57.372  -0.168  32.199  0.00  0.00     0.029 A 
ATOM     12  C   UNL d   1      56.389  -1.200  32.124  0.00  0.00     0.118 A 
ATOM     13  C   UNL d   1      56.704  -0.539  32.504  0.00  0.00     0.116 A 
ENDROOT
BRANCH   4  14
ATOM     14  C   UNL d   1      57.451  -2.071  30.071  0.00  0.00     0.080 C 
BRANCH  14  15
ATOM     15  C   UNL d   1      57.949  -2.593  29.674  0.00  0.00     0.018 A 
ATOM     16  C   UNL d   1      57.863  -2.709  28.854  0.00  0.00     0.004 A 
ATOM     17  C   UNL d   1      58.359  -3.231  28.456  0.00  0.00     0.030 A 
ATOM     18  C   UNL d   1      58.951  -3.647  28.872  0.00  0.00     0.140 A 
ATOM     19  C   UNL d   1      59.037  -3.532  29.692  0.00  0.00     0.030 A 
ATOM     20  F   UNL d   1      59.457  -4.178  28.470  0.00  0.00    -0.204 F 
ATOM     21  C   UNL d   1      58.537  -3.007  30.089  0.00  0.00     0.004 A 
ENDBRANCH  14  15
ENDBRANCH   4  14
BRANCH   9  22
ATOM     22  C   UNL d   1      59.969   0.087  29.742  0.00  0.00     0.019 A 
ATOM     23  C   UNL d   1      59.925   0.633  29.126  0.00  0.00     0.002 A 
ATOM     24  C   UNL d   1      60.489   0.613  28.520  0.00  0.00     0.000 A 
ATOM     25  C   UNL d   1      61.096   0.047  28.529  0.00  0.00     0.000 A 
ATOM     26  C   UNL d   1      61.133  -0.498  29.150  0.00  0.00     0.000 A 
ATOM     27  C   UNL d   1      60.573  -0.479  29.753  0.00  0.00     0.002 A 
ENDBRANCH   9  22
BRANCH  12  28
ATOM     28  O   UNL d   1      55.707  -1.582  32.431  0.00  0.00    -0.326 OA
ATOM     29  C   UNL d   1      55.725  -1.906  33.192  0.00  0.00     0.181 C 
ENDBRANCH  12  28
BRANCH  13  30
ATOM     30  O   UNL d   1      56.341  -0.250  33.196  0.00  0.00    -0.326 OA
ATOM     31  C   UNL d   1      56.300   0.566  33.331  0.00  0.00     0.181 C 
ENDBRANCH  13  30
TORSDOF 5
ENDMDL
MODEL 3
REMARK VINA RESULT:       3.9      1.637      3.830
REMARK  5 active torsions:
REMARK  status: ('A' for Active; 'I' for Inactive)
REMARK    1  A    between atoms: C_14  and  N_4 
REMARK    2  A    between atoms: C_15  and  C_9 
REMARK    3  A    between atoms: O_18  and  C_12 
REMARK    4  A    between atoms: O_19  and  C_13 
REMARK    5  A    between atoms: C_16  and  C_14 
ROOT
ATOM      1  C   UNL d   1      57.787  -0.929  30.749  0.00  0.00     0.056 A 
ATOM      2  C   UNL d   1      57.129  -1.330  31.058  0.00  0.00     0.107 A 
ATOM      3  C   UNL d   1      56.765  -1.061  31.745  0.00  0.00     0.038 A 
ATOM      4  N   UNL d   1      57.705   0.011  31.828  0.00  0.00    -0.304 N 
ATOM      5  N   UNL d   1      56.973  -1.968  30.562  0.00  0.00    -0.148 NA
ATOM      6  C   UNL d   1      58.075  -0.258  31.134  0.00  0.00     0.083 A 
ATOM      7  N   UNL d   1      57.530  -1.960  29.952  0.00  0.00    -0.148 NA
ATOM      8  C   UNL d   1      57.053  -0.390  32.130  0.00  0.00     0.068 A 
ATOM      9  C   UNL d   1      58.034  -1.322  30.063  0.00  0.00     0.106 A 
ATOM     10  C   UNL d   1      56.688  -0.120  32.818  0.00  0.00     0.044 A 
ATOM     11  C   UNL d   1      56.113  -1.462  32.048  0.00  0.00     0.029 A 
ATOM     12  C   UNL d   1      56.036  -0.522  33.120  0.00  0.00     0.118 A 
ATOM     13  C   UNL d   1      55.749  -1.192  32.735  0.00  0.00     0.116 A 
ENDROOT
BRANCH   4  14
ATOM     14  C   UNL d   1      57.993   0.682  32.212  0.00  0.00     0.080 C 
BRANCH  14  15
ATOM     15  C   UNL d   1      58.754   0.682  32.526  0.00  0.00     0.018 A 
ATOM     16  C   UNL d   1      58.864   0.682  33.352  0.00  0.00     0.004 A 
ATOM     17  C   UNL d   1      59.624   0.682  33.667  0.00  0.00     0.030 A 
ATOM     18  C   UNL d   1      60.288   0.682  33.162  0.00  0.00     0.140 A 
ATOM     19  C   UNL d   1      60.178   0.682  32.337  0.00  0.00     0.030 A 
ATOM     20  F   UNL d   1      61.062   0.681  33.480  0.00  0.00    -0.204 F 
ATOM     21  C   UNL d   1      59.414   0.682  32.023  0.00  0.00     0.004 A 
ENDBRANCH  14  15
ENDBRANCH   4  14
BRANCH   9  22
ATOM     22  C   UNL d   1      58.647  -1.182  29.529  0.00  0.00     0.019 A 
ATOM     23  C   UNL d   1      59.078  -1.814  29.222  0.00  0.00     0.002 A 
ATOM     24  C   UNL d   1      59.693  -1.669  28.687  0.00  0.00     0.000 A 
ATOM     25  C   UNL d   1      59.877  -0.893  28.458  0.00  0.00     0.000 A 
ATOM     26  C   UNL d   1      59.439  -0.263  28.771  0.00  0.00     0.000 A 
ATOM     27  C   UNL d   1      58.828  -0.407  29.303  0.00  0.00     0.002 A 
ENDBRANCH   9  22
BRANCH  12  28
ATOM     28  O   UNL d   1      55.668  -0.243  33.822  0.00  0.00    -0.326 OA
ATOM     29  C   UNL d   1      55.406   0.540  33.864  0.00  0.00     0.181 C 
ENDBRANCH  12  28
BRANCH  13  30
ATOM     30  O   UNL d   1      55.088  -1.594  33.047  0.00  0.00    -0.326 OA
ATOM     31  C   UNL d   1      55.137  -2.405  33.208  0.00  0.00     0.181 C 
ENDBRANCH  13  30
TORSDOF 5
ENDMDL
