MODEL 1
REMARK VINA RESULT:      58.8      0.000      0.000
REMARK  5 active torsions:
REMARK  status: ('A' for Active; 'I' for Inactive)
REMARK    1  A    between atoms: C_14  and  N_4 
REMARK    2  A    between atoms: C_12  and  N_6 
REMARK    3  A    between atoms: C_10  and  C_12 
REMARK       I    between atoms: N_11  and  C_10 
REMARK    4  A    between atoms: C_13  and  N_11 
REMARK    5  A    between atoms: O_18  and  C_17 
ROOT
ATOM      1  C   UNL d   1     -51.046  25.384  33.352  0.00  0.00     0.172 A 
ATOM      2  C   UNL d   1     -50.221  25.381  33.333  0.00  0.00     0.113 A 
ATOM      3  N   UNL d   1     -51.456  26.094  33.381  0.00  0.00    -0.206 NA
ATOM      4  N   UNL d   1     -51.298  24.593  33.336  0.00  0.00    -0.212 N 
ATOM      5  C   UNL d   1     -49.806  26.088  33.343  0.00  0.00     0.271 A 
ATOM      6  N   UNL d   1     -50.215  26.807  33.373  0.00  0.00    -0.251 N 
ATOM      7  N   UNL d   1     -50.631  24.120  33.308  0.00  0.00    -0.162 NA
ATOM      8  C   UNL d   1     -51.040  26.810  33.392  0.00  0.00     0.187 A 
ATOM      9  C   UNL d   1     -49.977  24.588  33.306  0.00  0.00     0.129 A 
ATOM     10  O   UNL d   1     -48.981  26.085  33.324  0.00  0.00    -0.266 OA
ENDROOT
BRANCH   6  11
ATOM     11  C   UNL d   1     -49.799  27.532  33.383  0.00  0.00     0.147 C 
BRANCH  11  12
ATOM     12  C   UNL d   1     -49.346  27.741  34.049  0.00  0.00     0.297 C 
ATOM     13  N   UNL d   1     -49.186  28.539  34.189  0.00  0.00    -0.205 NA
ATOM     14  O   UNL d   1     -49.068  27.159  34.551  0.00  0.00    -0.264 OA
BRANCH  13  15
ATOM     15  C   UNL d   1     -48.733  28.748  34.855  0.00  0.00     0.107 A 
ATOM     16  C   UNL d   1     -48.316  29.452  34.839  0.00  0.00     0.112 A 
ATOM     17  C   UNL d   1     -47.863  29.661  35.505  0.00  0.00     0.026 A 
ATOM     18  C   UNL d   1     -47.837  29.171  36.158  0.00  0.00     0.002 A 
ATOM     19  C   UNL d   1     -48.254  28.468  36.174  0.00  0.00     0.002 A 
ATOM     20  C   UNL d   1     -48.702  28.264  35.512  0.00  0.00     0.021 A 
BRANCH  16  21
ATOM     21  O   UNL d   1     -48.342  29.941  34.186  0.00  0.00    -0.327 OA
ATOM     22  C   UNL d   1     -48.113  30.724  34.239  0.00  0.00     0.181 C 
ENDBRANCH  16  21
ENDBRANCH  13  15
ENDBRANCH  11  12
ENDBRANCH   6  11
BRANCH   4  23
ATOM     23  C   UNL d   1     -52.058  24.298  33.345  0.00  0.00     0.085 A 
ATOM     24  C   UNL d   1     -52.708  24.819  33.308  0.00  0.00     0.019 A 
ATOM     25  C   UNL d   1     -53.468  24.517  33.318  0.00  0.00     0.002 A 
ATOM     26  C   UNL d   1     -53.595  23.686  33.365  0.00  0.00     0.000 A 
ATOM     27  C   UNL d   1     -52.953  23.189  33.400  0.00  0.00     0.002 A 
ATOM     28  C   UNL d   1     -52.185  23.484  33.391  0.00  0.00     0.019 A 
ENDBRANCH   4  23
TORSDOF 5
ENDMDL
