MODEL 1
REMARK VINA RESULT:      -2.8      0.000      0.000
REMARK  1 active torsions:
REMARK  status: ('A' for Active; 'I' for Inactive)
REMARK    1  A    between atoms: C_7  and  C_3 
ROOT
ATOM      1  C   UNL d   1      33.080  22.781 -18.131  0.00  0.00     0.179 A 
ATOM      2  N   UNL d   1      33.191  22.563 -18.901  0.00  0.00    -0.221 NA
ATOM      3  C   UNL d   1      32.797  23.097 -19.392  0.00  0.00     0.101 A 
ATOM      4  N   UNL d   1      32.617  23.452 -18.133  0.00  0.00    -0.282 N 
ATOM      5  C   UNL d   1      32.450  23.636 -18.915  0.00  0.00     0.101 A 
ATOM      6  S   UNL d   1      33.241  22.607 -17.335  0.00  0.00    -0.048 SA
ATOM      7  C   UNL d   1      32.494  23.687 -17.343  0.00  0.00     0.089 A 
ATOM      8  C   UNL d   1      32.869  23.182 -16.845  0.00  0.00     0.057 A 
ENDROOT
BRANCH   3   9
ATOM      9  C   UNL d   1      32.744  23.114 -20.216  0.00  0.00     0.019 A 
ATOM     10  C   UNL d   1      33.221  23.611 -20.664  0.00  0.00     0.002 A 
ATOM     11  C   UNL d   1      33.169  23.629 -21.491  0.00  0.00     0.011 A 
ATOM     12  C   UNL d   1      32.644  23.155 -21.866  0.00  0.00     0.058 A 
ATOM     13  C   UNL d   1      32.140  22.635 -21.422  0.00  0.00     0.011 A 
ATOM     14 CL   UNL d   1      32.590  23.174 -22.709  0.00  0.00    -0.082 Cl
ATOM     15  C   UNL d   1      32.200  22.624 -20.597  0.00  0.00     0.002 A 
ENDBRANCH   3   9
TORSDOF 1
ENDMDL
MODEL 2
REMARK VINA RESULT:      -2.7      2.209      3.662
REMARK  1 active torsions:
REMARK  status: ('A' for Active; 'I' for Inactive)
REMARK    1  A    between atoms: C_7  and  C_3 
ROOT
ATOM      1  C   UNL d   1      32.521  23.360 -20.905  0.00  0.00     0.179 A 
ATOM      2  N   UNL d   1      32.477  23.626 -20.144  0.00  0.00    -0.221 NA
ATOM      3  C   UNL d   1      32.771  23.044 -19.637  0.00  0.00     0.101 A 
ATOM      4  N   UNL d   1      32.843  22.612 -20.882  0.00  0.00    -0.282 N 
ATOM      5  C   UNL d   1      32.992  22.429 -20.096  0.00  0.00     0.101 A 
ATOM      6  S   UNL d   1      32.376  23.532 -21.704  0.00  0.00    -0.048 SA
ATOM      7  C   UNL d   1      32.895  22.326 -21.664  0.00  0.00     0.089 A 
ATOM      8  C   UNL d   1      32.614  22.876 -22.176  0.00  0.00     0.057 A 
ENDROOT
BRANCH   3   9
ATOM      9  C   UNL d   1      32.843  23.049 -18.814  0.00  0.00     0.019 A 
ATOM     10  C   UNL d   1      32.602  23.696 -18.370  0.00  0.00     0.002 A 
ATOM     11  C   UNL d   1      32.674  23.702 -17.543  0.00  0.00     0.011 A 
ATOM     12  C   UNL d   1      32.984  23.068 -17.167  0.00  0.00     0.058 A 
ATOM     13  C   UNL d   1      33.240  22.389 -17.608  0.00  0.00     0.011 A 
ATOM     14 CL   UNL d   1      33.057  23.075 -16.326  0.00  0.00    -0.082 Cl
ATOM     15  C   UNL d   1      33.164  22.392 -18.431  0.00  0.00     0.002 A 
ENDBRANCH   3   9
TORSDOF 1
ENDMDL
MODEL 3
REMARK VINA RESULT:      -2.6      3.128      4.383
REMARK  1 active torsions:
REMARK  status: ('A' for Active; 'I' for Inactive)
REMARK    1  A    between atoms: C_7  and  C_3 
ROOT
ATOM      1  C   UNL d   1      33.137  19.482 -22.086  0.00  0.00     0.179 A 
ATOM      2  N   UNL d   1      33.073  19.915 -21.407  0.00  0.00    -0.221 NA
ATOM      3  C   UNL d   1      32.975  20.711 -21.602  0.00  0.00     0.101 A 
ATOM      4  N   UNL d   1      33.080  20.003 -22.711  0.00  0.00    -0.282 N 
ATOM      5  C   UNL d   1      32.980  20.755 -22.399  0.00  0.00     0.101 A 
ATOM      6  S   UNL d   1      33.237  18.726 -22.414  0.00  0.00    -0.048 SA
ATOM      7  C   UNL d   1      33.144  19.568 -23.419  0.00  0.00     0.089 A 
ATOM      8  C   UNL d   1      33.241  18.789 -23.254  0.00  0.00     0.057 A 
ENDROOT
BRANCH   3   9
ATOM      9  C   UNL d   1      32.885  21.368 -21.108  0.00  0.00     0.019 A 
ATOM     10  C   UNL d   1      33.238  21.394 -20.367  0.00  0.00     0.002 A 
ATOM     11  C   UNL d   1      33.148  22.053 -19.871  0.00  0.00     0.011 A 
ATOM     12  C   UNL d   1      32.711  22.677 -20.114  0.00  0.00     0.058 A 
ATOM     13  C   UNL d   1      32.338  22.670 -20.877  0.00  0.00     0.011 A 
ATOM     14 CL   UNL d   1      32.620  23.347 -19.609  0.00  0.00    -0.082 Cl
ATOM     15  C   UNL d   1      32.433  22.009 -21.365  0.00  0.00     0.002 A 
ENDBRANCH   3   9
TORSDOF 1
ENDMDL
MODEL 4
REMARK VINA RESULT:      -2.6      2.156      2.820
REMARK  1 active torsions:
REMARK  status: ('A' for Active; 'I' for Inactive)
REMARK    1  A    between atoms: C_7  and  C_3 
ROOT
ATOM      1  C   UNL d   1      32.998  22.512 -20.027  0.00  0.00     0.179 A 
ATOM      2  N   UNL d   1      33.241  21.811 -20.347  0.00  0.00    -0.221 NA
ATOM      3  C   UNL d   1      32.913  21.731 -21.101  0.00  0.00     0.101 A 
ATOM      4  N   UNL d   1      32.518  22.876 -20.576  0.00  0.00    -0.282 N 
ATOM      5  C   UNL d   1      32.473  22.385 -21.232  0.00  0.00     0.101 A 
ATOM      6  S   UNL d   1      33.034  23.019 -19.370  0.00  0.00    -0.048 SA
ATOM      7  C   UNL d   1      32.260  23.602 -20.257  0.00  0.00     0.089 A 
ATOM      8  C   UNL d   1      32.567  23.702 -19.522  0.00  0.00     0.057 A 
ENDROOT
BRANCH   3   9
ATOM      9  C   UNL d   1      32.993  21.117 -21.647  0.00  0.00     0.019 A 
ATOM     10  C   UNL d   1      32.911  20.332 -21.420  0.00  0.00     0.002 A 
ATOM     11  C   UNL d   1      32.992  19.714 -21.969  0.00  0.00     0.011 A 
ATOM     12  C   UNL d   1      33.152  19.881 -22.734  0.00  0.00     0.058 A 
ATOM     13  C   UNL d   1      33.241  20.686 -22.990  0.00  0.00     0.011 A 
ATOM     14 CL   UNL d   1      33.234  19.253 -23.292  0.00  0.00    -0.082 Cl
ATOM     15  C   UNL d   1      33.159  21.295 -22.436  0.00  0.00     0.002 A 
ENDBRANCH   3   9
TORSDOF 1
ENDMDL
MODEL 5
REMARK VINA RESULT:      -2.6      7.453      8.370
REMARK  1 active torsions:
REMARK  status: ('A' for Active; 'I' for Inactive)
REMARK    1  A    between atoms: C_7  and  C_3 
ROOT
ATOM      1  C   UNL d   1      32.134  17.460 -23.938  0.00  0.00     0.179 A 
ATOM      2  N   UNL d   1      31.576  16.984 -23.600  0.00  0.00    -0.221 NA
ATOM      3  C   UNL d   1      30.889  17.006 -24.058  0.00  0.00     0.101 A 
ATOM      4  N   UNL d   1      31.803  17.784 -24.608  0.00  0.00    -0.282 N 
ATOM      5  C   UNL d   1      31.037  17.497 -24.671  0.00  0.00     0.101 A 
ATOM      6  S   UNL d   1      32.908  17.758 -23.887  0.00  0.00    -0.048 SA
ATOM      7  C   UNL d   1      32.371  18.278 -24.967  0.00  0.00     0.089 A 
ATOM      8  C   UNL d   1      33.049  18.272 -24.539  0.00  0.00     0.057 A 
ENDROOT
BRANCH   3   9
ATOM      9  C   UNL d   1      30.168  16.618 -23.946  0.00  0.00     0.019 A 
ATOM     10  C   UNL d   1      29.458  16.971 -24.159  0.00  0.00     0.002 A 
ATOM     11  C   UNL d   1      28.733  16.583 -24.048  0.00  0.00     0.011 A 
ATOM     12  C   UNL d   1      28.721  15.850 -23.728  0.00  0.00     0.058 A 
ATOM     13  C   UNL d   1      29.445  15.467 -23.500  0.00  0.00     0.011 A 
ATOM     14 CL   UNL d   1      27.984  15.454 -23.614  0.00  0.00    -0.082 Cl
ATOM     15  C   UNL d   1      30.162  15.863 -23.615  0.00  0.00     0.002 A 
ENDBRANCH   3   9
TORSDOF 1
ENDMDL
MODEL 6
REMARK VINA RESULT:      -2.6      7.383      8.169
REMARK  1 active torsions:
REMARK  status: ('A' for Active; 'I' for Inactive)
REMARK    1  A    between atoms: C_7  and  C_3 
ROOT
ATOM      1  C   UNL d   1      29.659  16.028 -23.684  0.00  0.00     0.179 A 
ATOM      2  N   UNL d   1      30.441  16.225 -23.733  0.00  0.00    -0.221 NA
ATOM      3  C   UNL d   1      30.510  16.978 -24.065  0.00  0.00     0.101 A 
ATOM      4  N   UNL d   1      29.233  16.654 -23.985  0.00  0.00    -0.282 N 
ATOM      5  C   UNL d   1      29.768  17.232 -24.216  0.00  0.00     0.101 A 
ATOM      6  S   UNL d   1      29.107  15.453 -23.455  0.00  0.00    -0.048 SA
ATOM      7  C   UNL d   1      28.422  16.463 -23.940  0.00  0.00     0.089 A 
ATOM      8  C   UNL d   1      28.330  15.734 -23.619  0.00  0.00     0.057 A 
ENDROOT
BRANCH   3   9
ATOM      9  C   UNL d   1      31.187  17.422 -24.230  0.00  0.00     0.019 A 
ATOM     10  C   UNL d   1      31.259  17.844 -24.931  0.00  0.00     0.002 A 
ATOM     11  C   UNL d   1      31.939  18.290 -25.097  0.00  0.00     0.011 A 
ATOM     12  C   UNL d   1      32.538  18.313 -24.568  0.00  0.00     0.058 A 
ATOM     13  C   UNL d   1      32.483  17.883 -23.837  0.00  0.00     0.011 A 
ATOM     14 CL   UNL d   1      33.230  18.767 -24.737  0.00  0.00    -0.082 Cl
ATOM     15  C   UNL d   1      31.802  17.442 -23.680  0.00  0.00     0.002 A 
ENDBRANCH   3   9
TORSDOF 1
ENDMDL
MODEL 7
REMARK VINA RESULT:      -2.4      3.044      3.812
REMARK  1 active torsions:
REMARK  status: ('A' for Active; 'I' for Inactive)
REMARK    1  A    between atoms: C_7  and  C_3 
ROOT
ATOM      1  C   UNL d   1      32.993  22.248 -21.403  0.00  0.00     0.179 A 
ATOM      2  N   UNL d   1      33.237  21.708 -21.952  0.00  0.00    -0.221 NA
ATOM      3  C   UNL d   1      32.910  20.971 -21.770  0.00  0.00     0.101 A 
ATOM      4  N   UNL d   1      32.514  21.855 -20.873  0.00  0.00    -0.282 N 
ATOM      5  C   UNL d   1      32.471  21.071 -21.110  0.00  0.00     0.101 A 
ATOM      6  S   UNL d   1      33.028  23.038 -21.152  0.00  0.00    -0.048 SA
ATOM      7  C   UNL d   1      32.256  22.403 -20.300  0.00  0.00     0.089 A 
ATOM      8  C   UNL d   1      32.561  23.128 -20.457  0.00  0.00     0.057 A 
ENDROOT
BRANCH   3   9
ATOM      9  C   UNL d   1      32.992  20.247 -22.159  0.00  0.00     0.019 A 
ATOM     10  C   UNL d   1      33.153  19.557 -21.745  0.00  0.00     0.002 A 
ATOM     11  C   UNL d   1      33.235  18.829 -22.135  0.00  0.00     0.011 A 
ATOM     12  C   UNL d   1      33.156  18.794 -22.930  0.00  0.00     0.058 A 
ATOM     13  C   UNL d   1      32.989  19.497 -23.378  0.00  0.00     0.011 A 
ATOM     14 CL   UNL d   1      33.239  18.054 -23.328  0.00  0.00    -0.082 Cl
ATOM     15  C   UNL d   1      32.909  20.217 -22.980  0.00  0.00     0.002 A 
ENDBRANCH   3   9
TORSDOF 1
ENDMDL
MODEL 8
REMARK VINA RESULT:      -2.3      4.435      5.380
REMARK  1 active torsions:
REMARK  status: ('A' for Active; 'I' for Inactive)
REMARK    1  A    between atoms: C_7  and  C_3 
ROOT
ATOM      1  C   UNL d   1      33.017  20.275 -21.691  0.00  0.00     0.179 A 
ATOM      2  N   UNL d   1      32.953  19.496 -21.898  0.00  0.00    -0.221 NA
ATOM      3  C   UNL d   1      33.066  19.423 -22.713  0.00  0.00     0.101 A 
ATOM      4  N   UNL d   1      33.171  20.695 -22.372  0.00  0.00    -0.282 N 
ATOM      5  C   UNL d   1      33.198  20.160 -22.994  0.00  0.00     0.101 A 
ATOM      6  S   UNL d   1      32.993  20.827 -21.072  0.00  0.00    -0.048 SA
ATOM      7  C   UNL d   1      33.240  21.501 -22.172  0.00  0.00     0.089 A 
ATOM      8  C   UNL d   1      33.134  21.597 -21.382  0.00  0.00     0.057 A 
ENDROOT
BRANCH   3   9
ATOM      9  C   UNL d   1      33.054  18.748 -23.189  0.00  0.00     0.019 A 
ATOM     10  C   UNL d   1      33.240  18.009 -22.883  0.00  0.00     0.002 A 
ATOM     11  C   UNL d   1      33.228  17.330 -23.359  0.00  0.00     0.011 A 
ATOM     12  C   UNL d   1      33.033  17.391 -24.132  0.00  0.00     0.058 A 
ATOM     13  C   UNL d   1      32.837  18.146 -24.469  0.00  0.00     0.011 A 
ATOM     14 CL   UNL d   1      33.021  16.700 -24.617  0.00  0.00    -0.082 Cl
ATOM     15  C   UNL d   1      32.851  18.817 -23.986  0.00  0.00     0.002 A 
ENDBRANCH   3   9
TORSDOF 1
ENDMDL
MODEL 9
REMARK VINA RESULT:      -2.0      5.654      6.826
REMARK  1 active torsions:
REMARK  status: ('A' for Active; 'I' for Inactive)
REMARK    1  A    between atoms: C_7  and  C_3 
ROOT
ATOM      1  C   UNL d   1      32.245  16.896 -23.885  0.00  0.00     0.179 A 
ATOM      2  N   UNL d   1      32.119  17.690 -23.807  0.00  0.00    -0.221 NA
ATOM      3  C   UNL d   1      32.737  18.020 -23.369  0.00  0.00     0.101 A 
ATOM      4  N   UNL d   1      32.941  16.722 -23.498  0.00  0.00    -0.282 N 
ATOM      5  C   UNL d   1      33.234  17.422 -23.185  0.00  0.00     0.101 A 
ATOM      6  S   UNL d   1      31.960  16.181 -24.196  0.00  0.00    -0.048 SA
ATOM      7  C   UNL d   1      33.082  15.903 -23.572  0.00  0.00     0.089 A 
ATOM      8  C   UNL d   1      32.493  15.561 -23.995  0.00  0.00     0.057 A 
ENDROOT
BRANCH   3   9
ATOM      9  C   UNL d   1      32.862  18.804 -23.141  0.00  0.00     0.019 A 
ATOM     10  C   UNL d   1      32.963  19.398 -23.699  0.00  0.00     0.002 A 
ATOM     11  C   UNL d   1      33.089  20.186 -23.472  0.00  0.00     0.011 A 
ATOM     12  C   UNL d   1      33.113  20.376 -22.695  0.00  0.00     0.058 A 
ATOM     13  C   UNL d   1      33.010  19.776 -22.102  0.00  0.00     0.011 A 
ATOM     14 CL   UNL d   1      33.240  21.178 -22.463  0.00  0.00    -0.082 Cl
ATOM     15  C   UNL d   1      32.885  18.994 -22.339  0.00  0.00     0.002 A 
ENDBRANCH   3   9
TORSDOF 1
ENDMDL
