MODEL 1
REMARK VINA RESULT:       6.8      0.000      0.000
REMARK  7 active torsions:
REMARK  status: ('A' for Active; 'I' for Inactive)
REMARK    1  A    between atoms: C_7  and  C_1 
REMARK    2  A    between atoms: C_10  and  C_2 
REMARK    3  A    between atoms: S_12  and  C_5 
REMARK    4  A    between atoms: C_11  and  C_6 
REMARK    5  A    between atoms: O_15  and  C_7 
REMARK    6  A    between atoms: C_21  and  S_12 
REMARK    7  A    between atoms: C_22  and  O_15 
ROOT
ATOM      1  C   UNL d   1      30.282  17.239 -23.990  0.00  0.00     0.082 A 
ATOM      2  C   UNL d   1      30.152  16.422 -23.820  0.00  0.00     0.087 A 
ATOM      3  C   UNL d   1      31.676  17.058 -23.884  0.00  0.00     0.092 A 
ATOM      4  N   UNL d   1      30.824  15.926 -23.681  0.00  0.00    -0.238 NA
ATOM      5  C   UNL d   1      31.571  16.257 -23.716  0.00  0.00     0.120 A 
ATOM      6  C   UNL d   1      31.037  17.546 -24.020  0.00  0.00     0.020 A 
ATOM      7  C   UNL d   1      32.456  17.381 -23.916  0.00  0.00     0.103 C 
ATOM      8  N   UNL d   1      33.238  17.708 -23.949  0.00  0.00    -0.191 NA
ENDROOT
BRANCH   6   9
ATOM      9  C   UNL d   1      31.143  18.347 -24.188  0.00  0.00     0.020 A 
ATOM     10  C   UNL d   1      31.454  18.844 -23.609  0.00  0.00     0.099 A 
ATOM     11  N   UNL d   1      31.559  19.645 -23.777  0.00  0.00    -0.242 NA
ATOM     12  C   UNL d   1      31.354  19.948 -24.523  0.00  0.00     0.099 A 
ATOM     13  C   UNL d   1      31.044  19.437 -25.093  0.00  0.00     0.021 A 
ATOM     14  C   UNL d   1      30.938  18.636 -24.925  0.00  0.00     0.003 A 
ENDBRANCH   6   9
BRANCH   5  15
ATOM     15  S   UNL d   1      32.241  15.746 -23.574  0.00  0.00    -0.067 SA
BRANCH  15  16
ATOM     16  C   UNL d   1      32.395  15.454 -22.805  0.00  0.00     0.037 C 
ATOM     17  C   UNL d   1      33.146  15.496 -22.492  0.00  0.00     0.007 C 
ENDBRANCH  15  16
ENDBRANCH   5  15
BRANCH   1  18
ATOM     18  C   UNL d   1      29.610  17.735 -24.130  0.00  0.00     0.302 C 
ATOM     19  O   UNL d   1      29.370  17.844 -24.914  0.00  0.00    -0.259 OA
BRANCH  18  20
ATOM     20  O   UNL d   1      29.230  18.079 -23.513  0.00  0.00    -0.271 OA
BRANCH  20  21
ATOM     21  C   UNL d   1      28.515  18.485 -23.629  0.00  0.00     0.126 C 
ATOM     22  C   UNL d   1      28.026  18.667 -22.990  0.00  0.00     0.029 C 
ENDBRANCH  20  21
ENDBRANCH  18  20
ENDBRANCH   1  18
BRANCH   2  23
ATOM     23  C   UNL d   1      29.396  16.111 -23.789  0.00  0.00     0.018 A 
ATOM     24  C   UNL d   1      29.016  15.896 -24.469  0.00  0.00     0.002 A 
ATOM     25  C   UNL d   1      28.251  15.581 -24.444  0.00  0.00     0.000 A 
ATOM     26  C   UNL d   1      27.869  15.483 -23.719  0.00  0.00     0.000 A 
ATOM     27  C   UNL d   1      28.269  15.708 -23.010  0.00  0.00     0.000 A 
ATOM     28  C   UNL d   1      29.022  16.017 -23.060  0.00  0.00     0.002 A 
ENDBRANCH   2  23
TORSDOF 7
ENDMDL
