MODEL 1
REMARK VINA RESULT:      -7.5      0.000      0.000
REMARK  1 active torsions:
REMARK  status: ('A' for Active; 'I' for Inactive)
REMARK    1  A    between atoms: C_6  and  C_2 
ROOT
ATOM      1  N   UNL d   1     -48.851  13.041  22.487  0.00  0.00    -0.220 NA
ATOM      2  C   UNL d   1     -48.208  13.197  22.959  0.00  0.00     0.182 A 
ATOM      3  O   UNL d   1     -48.208  13.925  23.238  0.00  0.00    -0.288 OA
ATOM      4  C   UNL d   1     -49.276  13.748  22.487  0.00  0.00     0.106 A 
ATOM      5  C   UNL d   1     -48.876  14.298  22.953  0.00  0.00     0.119 A 
ATOM      6  C   UNL d   1     -49.984  13.943  22.108  0.00  0.00     0.021 A 
ATOM      7  C   UNL d   1     -49.184  15.044  23.042  0.00  0.00     0.026 A 
ATOM      8  C   UNL d   1     -49.892  15.272  22.676  0.00  0.00     0.002 A 
ATOM      9  C   UNL d   1     -50.306  14.702  22.193  0.00  0.00     0.002 A 
ENDROOT
BRANCH   2  10
ATOM     10  C   UNL d   1     -47.607  12.666  23.140  0.00  0.00     0.041 A 
ATOM     11  C   UNL d   1     -47.795  11.965  23.515  0.00  0.00     0.005 A 
ATOM     12  C   UNL d   1     -47.177  11.425  23.697  0.00  0.00     0.021 A 
ATOM     13  C   UNL d   1     -46.404  11.595  23.505  0.00  0.00     0.103 A 
ATOM     14  C   UNL d   1     -46.220  12.318  23.120  0.00  0.00     0.021 A 
ATOM     15  N   UNL d   1     -45.838  11.048  23.698  0.00  0.00    -0.148 N 
ATOM     16  C   UNL d   1     -46.834  12.843  22.944  0.00  0.00     0.005 A 
ENDBRANCH   2  10
TORSDOF 1
ENDMDL
MODEL 2
REMARK VINA RESULT:      -7.4      1.041      1.364
REMARK  1 active torsions:
REMARK  status: ('A' for Active; 'I' for Inactive)
REMARK    1  A    between atoms: C_6  and  C_2 
ROOT
ATOM      1  N   UNL d   1     -49.141  14.021  22.380  0.00  0.00    -0.220 NA
ATOM      2  C   UNL d   1     -48.504  14.240  22.836  0.00  0.00     0.182 A 
ATOM      3  O   UNL d   1     -48.678  14.805  23.344  0.00  0.00    -0.288 OA
ATOM      4  C   UNL d   1     -49.754  14.505  22.645  0.00  0.00     0.106 A 
ATOM      5  C   UNL d   1     -49.466  14.993  23.244  0.00  0.00     0.119 A 
ATOM      6  C   UNL d   1     -50.541  14.549  22.399  0.00  0.00     0.021 A 
ATOM      7  C   UNL d   1     -49.965  15.525  23.599  0.00  0.00     0.026 A 
ATOM      8  C   UNL d   1     -50.761  15.594  23.376  0.00  0.00     0.002 A 
ATOM      9  C   UNL d   1     -51.059  15.089  22.756  0.00  0.00     0.002 A 
ENDROOT
BRANCH   2  10
ATOM     10  C   UNL d   1     -47.749  13.919  22.788  0.00  0.00     0.041 A 
ATOM     11  C   UNL d   1     -47.657  13.109  22.836  0.00  0.00     0.005 A 
ATOM     12  C   UNL d   1     -46.883  12.785  22.787  0.00  0.00     0.021 A 
ATOM     13  C   UNL d   1     -46.233  13.269  22.694  0.00  0.00     0.103 A 
ATOM     14  C   UNL d   1     -46.338  14.100  22.645  0.00  0.00     0.021 A 
ATOM     15  N   UNL d   1     -45.505  12.918  22.651  0.00  0.00    -0.148 N 
ATOM     16  C   UNL d   1     -47.103  14.410  22.694  0.00  0.00     0.005 A 
ENDBRANCH   2  10
TORSDOF 1
ENDMDL
MODEL 3
REMARK VINA RESULT:      -7.2      1.112      3.807
REMARK  1 active torsions:
REMARK  status: ('A' for Active; 'I' for Inactive)
REMARK    1  A    between atoms: C_6  and  C_2 
ROOT
ATOM      1  N   UNL d   1     -47.530  14.010  22.565  0.00  0.00    -0.220 NA
ATOM      2  C   UNL d   1     -48.240  13.768  22.877  0.00  0.00     0.182 A 
ATOM      3  O   UNL d   1     -48.188  13.083  23.247  0.00  0.00    -0.288 OA
ATOM      4  C   UNL d   1     -47.004  13.409  22.771  0.00  0.00     0.106 A 
ATOM      5  C   UNL d   1     -47.414  12.832  23.195  0.00  0.00     0.119 A 
ATOM      6  C   UNL d   1     -46.197  13.331  22.614  0.00  0.00     0.021 A 
ATOM      7  C   UNL d   1     -47.016  12.178  23.463  0.00  0.00     0.026 A 
ATOM      8  C   UNL d   1     -46.207  12.069  23.323  0.00  0.00     0.002 A 
ATOM      9  C   UNL d   1     -45.783  12.665  22.884  0.00  0.00     0.002 A 
ENDROOT
BRANCH   2  10
ATOM     10  C   UNL d   1     -48.950  14.178  22.824  0.00  0.00     0.041 A 
ATOM     11  C   UNL d   1     -49.083  14.812  23.321  0.00  0.00     0.005 A 
ATOM     12  C   UNL d   1     -49.810  15.228  23.264  0.00  0.00     0.021 A 
ATOM     13  C   UNL d   1     -50.377  15.004  22.721  0.00  0.00     0.103 A 
ATOM     14  C   UNL d   1     -50.232  14.351  22.214  0.00  0.00     0.021 A 
ATOM     15  N   UNL d   1     -51.064  15.431  22.697  0.00  0.00    -0.148 N 
ATOM     16  C   UNL d   1     -49.513  13.948  22.278  0.00  0.00     0.005 A 
ENDBRANCH   2  10
TORSDOF 1
ENDMDL
MODEL 4
REMARK VINA RESULT:      -7.1      1.607      3.182
REMARK  1 active torsions:
REMARK  status: ('A' for Active; 'I' for Inactive)
REMARK    1  A    between atoms: C_6  and  C_2 
ROOT
ATOM      1  N   UNL d   1     -47.883  13.813  23.036  0.00  0.00    -0.220 NA
ATOM      2  C   UNL d   1     -48.098  13.029  23.003  0.00  0.00     0.182 A 
ATOM      3  O   UNL d   1     -47.509  12.564  22.790  0.00  0.00    -0.288 OA
ATOM      4  C   UNL d   1     -47.087  13.812  22.820  0.00  0.00     0.106 A 
ATOM      5  C   UNL d   1     -46.855  13.035  22.667  0.00  0.00     0.119 A 
ATOM      6  C   UNL d   1     -46.554  14.439  22.747  0.00  0.00     0.021 A 
ATOM      7  C   UNL d   1     -46.090  12.886  22.442  0.00  0.00     0.026 A 
ATOM      8  C   UNL d   1     -45.530  13.492  22.360  0.00  0.00     0.002 A 
ATOM      9  C   UNL d   1     -45.771  14.296  22.518  0.00  0.00     0.002 A 
ENDROOT
BRANCH   2  10
ATOM     10  C   UNL d   1     -48.845  12.731  23.172  0.00  0.00     0.041 A 
ATOM     11  C   UNL d   1     -48.911  11.999  23.528  0.00  0.00     0.005 A 
ATOM     12  C   UNL d   1     -49.677  11.699  23.698  0.00  0.00     0.021 A 
ATOM     13  C   UNL d   1     -50.345  12.129  23.512  0.00  0.00     0.103 A 
ATOM     14  C   UNL d   1     -50.267  12.880  23.146  0.00  0.00     0.021 A 
ATOM     15  N   UNL d   1     -51.064  11.804  23.692  0.00  0.00    -0.148 N 
ATOM     16  C   UNL d   1     -49.510  13.167  22.982  0.00  0.00     0.005 A 
ENDBRANCH   2  10
TORSDOF 1
ENDMDL
MODEL 5
REMARK VINA RESULT:      -5.7      8.524      9.789
REMARK  1 active torsions:
REMARK  status: ('A' for Active; 'I' for Inactive)
REMARK    1  A    between atoms: C_6  and  C_2 
ROOT
ATOM      1  N   UNL d   1     -40.331  14.070  19.071  0.00  0.00    -0.220 NA
ATOM      2  C   UNL d   1     -39.854  14.545  18.615  0.00  0.00     0.182 A 
ATOM      3  O   UNL d   1     -39.782  15.265  18.905  0.00  0.00    -0.288 OA
ATOM      4  C   UNL d   1     -40.566  14.558  19.693  0.00  0.00     0.106 A 
ATOM      5  C   UNL d   1     -40.224  15.302  19.589  0.00  0.00     0.119 A 
ATOM      6  C   UNL d   1     -41.054  14.399  20.339  0.00  0.00     0.021 A 
ATOM      7  C   UNL d   1     -40.371  15.886  20.133  0.00  0.00     0.026 A 
ATOM      8  C   UNL d   1     -40.856  15.759  20.792  0.00  0.00     0.002 A 
ATOM      9  C   UNL d   1     -41.210  14.989  20.899  0.00  0.00     0.002 A 
ENDROOT
BRANCH   2  10
ATOM     10  C   UNL d   1     -39.475  14.318  17.922  0.00  0.00     0.041 A 
ATOM     11  C   UNL d   1     -39.543  14.790  17.258  0.00  0.00     0.005 A 
ATOM     12  C   UNL d   1     -39.154  14.553  16.552  0.00  0.00     0.021 A 
ATOM     13  C   UNL d   1     -38.717  13.866  16.526  0.00  0.00     0.103 A 
ATOM     14  C   UNL d   1     -38.653  13.387  17.212  0.00  0.00     0.021 A 
ATOM     15  N   UNL d   1     -38.358  13.674  15.826  0.00  0.00    -0.148 N 
ATOM     16  C   UNL d   1     -39.039  13.628  17.903  0.00  0.00     0.005 A 
ENDBRANCH   2  10
TORSDOF 1
ENDMDL
MODEL 6
REMARK VINA RESULT:      -5.7      8.882      9.766
REMARK  1 active torsions:
REMARK  status: ('A' for Active; 'I' for Inactive)
REMARK    1  A    between atoms: C_6  and  C_2 
ROOT
ATOM      1  N   UNL d   1     -39.124  14.391  19.455  0.00  0.00    -0.220 NA
ATOM      2  C   UNL d   1     -39.880  14.679  19.376  0.00  0.00     0.182 A 
ATOM      3  O   UNL d   1     -40.267  14.699  20.052  0.00  0.00    -0.288 OA
ATOM      4  C   UNL d   1     -39.056  14.224  20.260  0.00  0.00     0.106 A 
ATOM      5  C   UNL d   1     -39.767  14.415  20.631  0.00  0.00     0.119 A 
ATOM      6  C   UNL d   1     -38.420  13.917  20.688  0.00  0.00     0.021 A 
ATOM      7  C   UNL d   1     -39.842  14.300  21.431  0.00  0.00     0.026 A 
ATOM      8  C   UNL d   1     -39.223  13.995  21.890  0.00  0.00     0.002 A 
ATOM      9  C   UNL d   1     -38.487  13.796  21.505  0.00  0.00     0.002 A 
ENDROOT
BRANCH   2  10
ATOM     10  C   UNL d   1     -40.225  14.929  18.673  0.00  0.00     0.041 A 
ATOM     11  C   UNL d   1     -40.564  15.671  18.637  0.00  0.00     0.005 A 
ATOM     12  C   UNL d   1     -40.915  15.922  17.916  0.00  0.00     0.021 A 
ATOM     13  C   UNL d   1     -40.919  15.435  17.262  0.00  0.00     0.103 A 
ATOM     14  C   UNL d   1     -40.568  14.674  17.308  0.00  0.00     0.021 A 
ATOM     15  N   UNL d   1     -41.268  15.715  16.587  0.00  0.00    -0.148 N 
ATOM     16  C   UNL d   1     -40.224  14.436  18.021  0.00  0.00     0.005 A 
ENDBRANCH   2  10
TORSDOF 1
ENDMDL
MODEL 7
REMARK VINA RESULT:      -5.3      1.055      1.726
REMARK  1 active torsions:
REMARK  status: ('A' for Active; 'I' for Inactive)
REMARK    1  A    between atoms: C_6  and  C_2 
ROOT
ATOM      1  N   UNL d   1     -47.341  13.094  23.583  0.00  0.00    -0.220 NA
ATOM      2  C   UNL d   1     -46.959  12.655  23.015  0.00  0.00     0.182 A 
ATOM      3  O   UNL d   1     -47.219  12.802  22.295  0.00  0.00    -0.288 OA
ATOM      4  C   UNL d   1     -47.883  13.546  23.156  0.00  0.00     0.106 A 
ATOM      5  C   UNL d   1     -47.807  13.365  22.355  0.00  0.00     0.119 A 
ATOM      6  C   UNL d   1     -48.435  14.102  23.418  0.00  0.00     0.021 A 
ATOM      7  C   UNL d   1     -48.284  13.739  21.816  0.00  0.00     0.026 A 
ATOM      8  C   UNL d   1     -48.847  14.302  22.045  0.00  0.00     0.002 A 
ATOM      9  C   UNL d   1     -48.926  14.490  22.875  0.00  0.00     0.002 A 
ENDROOT
BRANCH   2  10
ATOM     10  C   UNL d   1     -46.360  12.110  23.154  0.00  0.00     0.041 A 
ATOM     11  C   UNL d   1     -45.600  12.280  22.907  0.00  0.00     0.005 A 
ATOM     12  C   UNL d   1     -44.991  11.720  23.052  0.00  0.00     0.021 A 
ATOM     13  C   UNL d   1     -45.153  11.017  23.433  0.00  0.00     0.103 A 
ATOM     14  C   UNL d   1     -45.936  10.851  23.684  0.00  0.00     0.021 A 
ATOM     15  N   UNL d   1     -44.538  10.504  23.554  0.00  0.00    -0.148 N 
ATOM     16  C   UNL d   1     -46.529  11.408  23.537  0.00  0.00     0.005 A 
ENDBRANCH   2  10
TORSDOF 1
ENDMDL
MODEL 8
REMARK VINA RESULT:      -5.0      9.194     10.419
REMARK  1 active torsions:
REMARK  status: ('A' for Active; 'I' for Inactive)
REMARK    1  A    between atoms: C_6  and  C_2 
ROOT
ATOM      1  N   UNL d   1     -40.150  14.924  18.241  0.00  0.00    -0.220 NA
ATOM      2  C   UNL d   1     -39.369  14.712  18.160  0.00  0.00     0.182 A 
ATOM      3  O   UNL d   1     -38.965  14.793  18.821  0.00  0.00    -0.288 OA
ATOM      4  C   UNL d   1     -40.214  15.153  19.031  0.00  0.00     0.106 A 
ATOM      5  C   UNL d   1     -39.477  15.072  19.391  0.00  0.00     0.119 A 
ATOM      6  C   UNL d   1     -40.869  15.427  19.454  0.00  0.00     0.021 A 
ATOM      7  C   UNL d   1     -39.394  15.265  20.175  0.00  0.00     0.026 A 
ATOM      8  C   UNL d   1     -40.030  15.542  20.628  0.00  0.00     0.002 A 
ATOM      9  C   UNL d   1     -40.794  15.626  20.255  0.00  0.00     0.002 A 
ENDROOT
BRANCH   2  10
ATOM     10  C   UNL d   1     -39.018  14.439  17.469  0.00  0.00     0.041 A 
ATOM     11  C   UNL d   1     -38.834  13.646  17.401  0.00  0.00     0.005 A 
ATOM     12  C   UNL d   1     -38.474  13.372  16.693  0.00  0.00     0.021 A 
ATOM     13  C   UNL d   1     -38.311  13.887  16.082  0.00  0.00     0.103 A 
ATOM     14  C   UNL d   1     -38.504  14.700  16.160  0.00  0.00     0.021 A 
ATOM     15  N   UNL d   1     -37.964  13.582  15.416  0.00  0.00    -0.148 N 
ATOM     16  C   UNL d   1     -38.857  14.960  16.860  0.00  0.00     0.005 A 
ENDBRANCH   2  10
TORSDOF 1
ENDMDL
