MODEL 1
REMARK VINA RESULT:     -10.4      0.000      0.000
REMARK  5 active torsions:
REMARK  status: ('A' for Active; 'I' for Inactive)
REMARK       I    between atoms: N_2  and  C_1 
REMARK    1  A    between atoms: C_3  and  C_1 
REMARK    2  A    between atoms: C_5  and  N_2 
REMARK    3  A    between atoms: C_6  and  C_3 
REMARK    4  A    between atoms: C_7  and  C_3 
REMARK    5  A    between atoms: C_9  and  C_5 
ROOT
ATOM      1  C   UNL d   1      53.036  32.419  53.318  0.00  0.00     0.058 C 
ENDROOT
BRANCH   1   2
ATOM      2  C   UNL d   1      52.955  31.520  52.829  0.00  0.00     0.275 C 
ATOM      3  N   UNL d   1      52.902  30.756  52.737  0.00  0.00    -0.231 NA
ATOM      4  O   UNL d   1      52.955  31.997  52.206  0.00  0.00    -0.266 OA
BRANCH   3   5
ATOM      5  C   UNL d   1      52.902  30.266  53.372  0.00  0.00     0.146 C 
ATOM      6  C   UNL d   1      52.124  30.348  53.439  0.00  0.00     0.033 C 
ATOM      7  C   UNL d   1      53.691  30.192  53.292  0.00  0.00     0.033 C 
BRANCH   5   8
ATOM      8  C   UNL d   1      52.917  29.775  54.005  0.00  0.00     0.229 C 
ATOM      9  O   UNL d   1      52.899  28.983  53.881  0.00  0.00    -0.286 OA
ENDBRANCH   5   8
ENDBRANCH   3   5
ENDBRANCH   1   2
BRANCH   1  10
ATOM     10  C   UNL d   1      52.453  32.973  53.219  0.00  0.00     0.005 A 
ATOM     11  C   UNL d   1      51.801  32.977  53.703  0.00  0.00     0.000 A 
ATOM     12  C   UNL d   1      51.211  33.545  53.597  0.00  0.00     0.000 A 
ATOM     13  C   UNL d   1      51.279  34.111  53.000  0.00  0.00     0.000 A 
ATOM     14  C   UNL d   1      51.949  34.104  52.507  0.00  0.00     0.000 A 
ATOM     15  C   UNL d   1      52.536  33.540  52.612  0.00  0.00     0.000 A 
ENDBRANCH   1  10
BRANCH   1  16
ATOM     16  C   UNL d   1      53.603  32.713  53.819  0.00  0.00     0.005 A 
ATOM     17  C   UNL d   1      53.468  32.748  54.634  0.00  0.00     0.000 A 
ATOM     18  C   UNL d   1      54.050  33.050  55.150  0.00  0.00     0.000 A 
ATOM     19  C   UNL d   1      54.775  33.320  54.843  0.00  0.00     0.000 A 
ATOM     20  C   UNL d   1      54.910  33.285  54.016  0.00  0.00     0.000 A 
ATOM     21  C   UNL d   1      54.322  32.981  53.515  0.00  0.00     0.000 A 
ENDBRANCH   1  16
TORSDOF 5
ENDMDL
MODEL 2
REMARK VINA RESULT:      -9.9      0.689      2.283
REMARK  5 active torsions:
REMARK  status: ('A' for Active; 'I' for Inactive)
REMARK       I    between atoms: N_2  and  C_1 
REMARK    1  A    between atoms: C_3  and  C_1 
REMARK    2  A    between atoms: C_5  and  N_2 
REMARK    3  A    between atoms: C_6  and  C_3 
REMARK    4  A    between atoms: C_7  and  C_3 
REMARK    5  A    between atoms: C_9  and  C_5 
ROOT
ATOM      1  C   UNL d   1      53.577  32.607  53.628  0.00  0.00     0.058 C 
ENDROOT
BRANCH   1   2
ATOM      2  C   UNL d   1      53.839  31.694  53.236  0.00  0.00     0.275 C 
ATOM      3  N   UNL d   1      53.788  30.941  53.076  0.00  0.00    -0.231 NA
ATOM      4  O   UNL d   1      54.444  32.117  52.973  0.00  0.00    -0.266 OA
BRANCH   3   5
ATOM      5  C   UNL d   1      53.170  30.507  53.344  0.00  0.00     0.146 C 
ATOM      6  C   UNL d   1      53.562  30.350  54.006  0.00  0.00     0.033 C 
ATOM      7  C   UNL d   1      52.782  30.674  52.669  0.00  0.00     0.033 C 
BRANCH   5   8
ATOM      8  C   UNL d   1      52.544  30.076  53.599  0.00  0.00     0.229 C 
ATOM      9  O   UNL d   1      52.579  29.276  53.549  0.00  0.00    -0.286 OA
ENDBRANCH   5   8
ENDBRANCH   3   5
ENDBRANCH   1   2
BRANCH   1  10
ATOM     10  C   UNL d   1      54.015  32.912  54.238  0.00  0.00     0.005 A 
ATOM     11  C   UNL d   1      53.786  32.801  55.008  0.00  0.00     0.000 A 
ATOM     12  C   UNL d   1      54.237  33.115  55.624  0.00  0.00     0.000 A 
ATOM     13  C   UNL d   1      54.923  33.543  55.461  0.00  0.00     0.000 A 
ATOM     14  C   UNL d   1      55.156  33.656  54.671  0.00  0.00     0.000 A 
ATOM     15  C   UNL d   1      54.707  33.343  54.058  0.00  0.00     0.000 A 
ENDBRANCH   1  10
BRANCH   1  16
ATOM     16  C   UNL d   1      52.980  33.124  53.443  0.00  0.00     0.005 A 
ATOM     17  C   UNL d   1      52.282  33.139  53.886  0.00  0.00     0.000 A 
ATOM     18  C   UNL d   1      51.668  33.671  53.696  0.00  0.00     0.000 A 
ATOM     19  C   UNL d   1      51.757  34.192  53.053  0.00  0.00     0.000 A 
ATOM     20  C   UNL d   1      52.465  34.176  52.604  0.00  0.00     0.000 A 
ATOM     21  C   UNL d   1      53.067  33.641  52.805  0.00  0.00     0.000 A 
ENDBRANCH   1  16
TORSDOF 5
ENDMDL
MODEL 3
REMARK VINA RESULT:      -9.7      1.086      2.868
REMARK  5 active torsions:
REMARK  status: ('A' for Active; 'I' for Inactive)
REMARK       I    between atoms: N_2  and  C_1 
REMARK    1  A    between atoms: C_3  and  C_1 
REMARK    2  A    between atoms: C_5  and  N_2 
REMARK    3  A    between atoms: C_6  and  C_3 
REMARK    4  A    between atoms: C_7  and  C_3 
REMARK    5  A    between atoms: C_9  and  C_5 
ROOT
ATOM      1  C   UNL d   1      53.302  32.212  53.481  0.00  0.00     0.058 C 
ENDROOT
BRANCH   1   2
ATOM      2  C   UNL d   1      52.619  32.566  52.800  0.00  0.00     0.275 C 
ATOM      3  N   UNL d   1      52.005  32.948  52.533  0.00  0.00    -0.231 NA
ATOM      4  O   UNL d   1      53.077  32.157  52.311  0.00  0.00    -0.266 OA
BRANCH   3   5
ATOM      5  C   UNL d   1      51.536  33.367  53.031  0.00  0.00     0.146 C 
ATOM      6  C   UNL d   1      51.130  32.717  53.201  0.00  0.00     0.033 C 
ATOM      7  C   UNL d   1      51.956  34.019  52.848  0.00  0.00     0.033 C 
BRANCH   5   8
ATOM      8  C   UNL d   1      51.075  33.798  53.524  0.00  0.00     0.229 C 
ATOM      9  O   UNL d   1      50.456  34.207  53.218  0.00  0.00    -0.286 OA
ENDBRANCH   5   8
ENDBRANCH   3   5
ENDBRANCH   1   2
BRANCH   1  10
ATOM     10  C   UNL d   1      53.343  31.414  53.616  0.00  0.00     0.005 A 
ATOM     11  C   UNL d   1      53.005  31.089  54.278  0.00  0.00     0.000 A 
ATOM     12  C   UNL d   1      53.052  30.275  54.410  0.00  0.00     0.000 A 
ATOM     13  C   UNL d   1      53.441  29.788  53.870  0.00  0.00     0.000 A 
ATOM     14  C   UNL d   1      53.787  30.124  53.192  0.00  0.00     0.000 A 
ATOM     15  C   UNL d   1      53.741  30.933  53.061  0.00  0.00     0.000 A 
ENDBRANCH   1  10
BRANCH   1  16
ATOM     16  C   UNL d   1      53.848  32.591  53.946  0.00  0.00     0.005 A 
ATOM     17  C   UNL d   1      53.707  32.708  54.753  0.00  0.00     0.000 A 
ATOM     18  C   UNL d   1      54.267  33.097  55.231  0.00  0.00     0.000 A 
ATOM     19  C   UNL d   1      54.978  33.372  54.896  0.00  0.00     0.000 A 
ATOM     20  C   UNL d   1      55.120  33.253  54.078  0.00  0.00     0.000 A 
ATOM     21  C   UNL d   1      54.553  32.864  53.614  0.00  0.00     0.000 A 
ENDBRANCH   1  16
TORSDOF 5
ENDMDL
MODEL 4
REMARK VINA RESULT:      -9.3      1.254      3.085
REMARK  5 active torsions:
REMARK  status: ('A' for Active; 'I' for Inactive)
REMARK       I    between atoms: N_2  and  C_1 
REMARK    1  A    between atoms: C_3  and  C_1 
REMARK    2  A    between atoms: C_5  and  N_2 
REMARK    3  A    between atoms: C_6  and  C_3 
REMARK    4  A    between atoms: C_7  and  C_3 
REMARK    5  A    between atoms: C_9  and  C_5 
ROOT
ATOM      1  C   UNL d   1      53.377  32.345  53.511  0.00  0.00     0.058 C 
ENDROOT
BRANCH   1   2
ATOM      2  C   UNL d   1      52.823  32.941  52.884  0.00  0.00     0.275 C 
ATOM      3  N   UNL d   1      52.223  33.356  52.635  0.00  0.00    -0.231 NA
ATOM      4  O   UNL d   1      53.471  32.873  52.447  0.00  0.00    -0.266 OA
BRANCH   3   5
ATOM      5  C   UNL d   1      51.561  33.426  53.080  0.00  0.00     0.146 C 
ATOM      6  C   UNL d   1      51.303  32.735  52.813  0.00  0.00     0.033 C 
ATOM      7  C   UNL d   1      51.834  34.127  53.343  0.00  0.00     0.033 C 
BRANCH   5   8
ATOM      8  C   UNL d   1      50.904  33.511  53.531  0.00  0.00     0.229 C 
ATOM      9  O   UNL d   1      50.287  33.933  53.240  0.00  0.00    -0.286 OA
ENDBRANCH   5   8
ENDBRANCH   3   5
ENDBRANCH   1   2
BRANCH   1  10
ATOM     10  C   UNL d   1      53.905  32.692  54.018  0.00  0.00     0.005 A 
ATOM     11  C   UNL d   1      53.723  32.787  54.804  0.00  0.00     0.000 A 
ATOM     12  C   UNL d   1      54.266  33.142  55.315  0.00  0.00     0.000 A 
ATOM     13  C   UNL d   1      54.995  33.403  55.032  0.00  0.00     0.000 A 
ATOM     14  C   UNL d   1      55.179  33.305  54.226  0.00  0.00     0.000 A 
ATOM     15  C   UNL d   1      54.640  32.952  53.718  0.00  0.00     0.000 A 
ENDBRANCH   1  10
BRANCH   1  16
ATOM     16  C   UNL d   1      53.399  31.540  53.613  0.00  0.00     0.005 A 
ATOM     17  C   UNL d   1      53.084  31.192  54.294  0.00  0.00     0.000 A 
ATOM     18  C   UNL d   1      53.106  30.365  54.399  0.00  0.00     0.000 A 
ATOM     19  C   UNL d   1      53.448  29.883  53.814  0.00  0.00     0.000 A 
ATOM     20  C   UNL d   1      53.768  30.236  53.124  0.00  0.00     0.000 A 
ATOM     21  C   UNL d   1      53.738  31.061  53.033  0.00  0.00     0.000 A 
ENDBRANCH   1  16
TORSDOF 5
ENDMDL
MODEL 5
REMARK VINA RESULT:      -8.0      1.405      3.277
REMARK  5 active torsions:
REMARK  status: ('A' for Active; 'I' for Inactive)
REMARK       I    between atoms: N_2  and  C_1 
REMARK    1  A    between atoms: C_3  and  C_1 
REMARK    2  A    between atoms: C_5  and  N_2 
REMARK    3  A    between atoms: C_6  and  C_3 
REMARK    4  A    between atoms: C_7  and  C_3 
REMARK    5  A    between atoms: C_9  and  C_5 
ROOT
ATOM      1  C   UNL d   1      53.207  32.515  53.374  0.00  0.00     0.058 C 
ENDROOT
BRANCH   1   2
ATOM      2  C   UNL d   1      54.147  32.820  53.651  0.00  0.00     0.275 C 
ATOM      3  N   UNL d   1      54.699  33.134  54.089  0.00  0.00    -0.231 NA
ATOM      4  O   UNL d   1      54.322  32.509  52.953  0.00  0.00    -0.266 OA
BRANCH   3   5
ATOM      5  C   UNL d   1      54.523  33.453  54.803  0.00  0.00     0.146 C 
ATOM      6  C   UNL d   1      54.563  32.743  55.134  0.00  0.00     0.033 C 
ATOM      7  C   UNL d   1      54.485  34.168  54.454  0.00  0.00     0.033 C 
BRANCH   5   8
ATOM      8  C   UNL d   1      54.346  33.786  55.510  0.00  0.00     0.229 C 
ATOM      9  O   UNL d   1      54.907  34.218  55.886  0.00  0.00    -0.286 OA
ENDBRANCH   5   8
ENDBRANCH   3   5
ENDBRANCH   1   2
BRANCH   1  10
ATOM     10  C   UNL d   1      53.055  31.721  53.308  0.00  0.00     0.005 A 
ATOM     11  C   UNL d   1      52.808  31.294  53.952  0.00  0.00     0.000 A 
ATOM     12  C   UNL d   1      52.655  30.485  53.878  0.00  0.00     0.000 A 
ATOM     13  C   UNL d   1      52.752  30.108  53.152  0.00  0.00     0.000 A 
ATOM     14  C   UNL d   1      53.005  30.549  52.493  0.00  0.00     0.000 A 
ATOM     15  C   UNL d   1      53.157  31.352  52.567  0.00  0.00     0.000 A 
ENDBRANCH   1  10
BRANCH   1  16
ATOM     16  C   UNL d   1      52.534  32.931  53.193  0.00  0.00     0.005 A 
ATOM     17  C   UNL d   1      51.894  32.946  53.716  0.00  0.00     0.000 A 
ATOM     18  C   UNL d   1      51.203  33.374  53.531  0.00  0.00     0.000 A 
ATOM     19  C   UNL d   1      51.154  33.792  52.813  0.00  0.00     0.000 A 
ATOM     20  C   UNL d   1      51.804  33.776  52.283  0.00  0.00     0.000 A 
ATOM     21  C   UNL d   1      52.486  33.345  52.481  0.00  0.00     0.000 A 
ENDBRANCH   1  16
TORSDOF 5
ENDMDL
