MODEL 1
REMARK VINA RESULT:      -2.4      0.000      0.000
REMARK  6 active torsions:
REMARK  status: ('A' for Active; 'I' for Inactive)
REMARK       I    between atoms: N_6  and  C_1 
REMARK       I    between atoms: N_9  and  C_1 
REMARK    1  A    between atoms: N_2  and  C_3 
REMARK    2  A    between atoms: C_3  and  C_5 
REMARK    3  A    between atoms: C_7  and  C_3 
REMARK    4  A    between atoms: C_16  and  N_4 
REMARK    5  A    between atoms: C_5  and  N_6 
REMARK    6  A    between atoms: C_19  and  N_9 
ROOT
ATOM      1  C   UNL d   1     -47.499  12.941  22.923  0.00  0.00     0.088 C 
ENDROOT
BRANCH   1   2
ATOM      2  N   UNL d   1     -46.719  12.932  22.644  0.00  0.00    -0.300 N 
ATOM      3  C   UNL d   1     -46.564  13.098  21.853  0.00  0.00     0.100 A 
ATOM      4  C   UNL d   1     -45.792  13.089  21.576  0.00  0.00     0.100 A 
ATOM      5  N   UNL d   1     -45.159  12.914  22.084  0.00  0.00    -0.301 N 
ATOM      6  C   UNL d   1     -45.329  12.745  22.894  0.00  0.00     0.100 A 
ATOM      7  C   UNL d   1     -46.102  12.758  23.155  0.00  0.00     0.100 A 
BRANCH   5   8
ATOM      8  C   UNL d   1     -44.389  12.901  21.824  0.00  0.00     0.064 A 
ATOM      9  C   UNL d   1     -44.042  13.562  21.481  0.00  0.00     0.018 A 
ATOM     10  C   UNL d   1     -43.258  13.539  21.220  0.00  0.00     0.002 A 
ATOM     11  C   UNL d   1     -42.817  12.842  21.305  0.00  0.00     0.000 A 
ATOM     12  C   UNL d   1     -43.165  12.172  21.651  0.00  0.00     0.002 A 
ATOM     13  C   UNL d   1     -43.948  12.204  21.908  0.00  0.00     0.018 A 
ENDBRANCH   5   8
ENDBRANCH   1   2
BRANCH   1  14
ATOM     14  C   UNL d   1     -47.862  13.654  23.116  0.00  0.00     0.103 C 
ATOM     15  C   UNL d   1     -47.542  14.130  23.698  0.00  0.00     0.022 C 
BRANCH  14  16
ATOM     16  N   UNL d   1     -48.545  13.878  22.719  0.00  0.00    -0.190 NA
ATOM     17  C   UNL d   1     -48.693  14.680  22.575  0.00  0.00     0.369 C 
ATOM     18  N   UNL d   1     -49.376  14.905  22.179  0.00  0.00    -0.191 NA
ATOM     19  O   UNL d   1     -48.154  15.244  22.833  0.00  0.00    -0.242 OA
BRANCH  18  20
ATOM     20  C   UNL d   1     -49.918  14.338  21.920  0.00  0.00     0.086 A 
ATOM     21  C   UNL d   1     -50.525  14.090  22.433  0.00  0.00     0.019 A 
ATOM     22  C   UNL d   1     -51.064  13.527  22.179  0.00  0.00     0.002 A 
ATOM     23  C   UNL d   1     -51.006  13.207  21.421  0.00  0.00     0.000 A 
ATOM     24  C   UNL d   1     -50.402  13.457  20.917  0.00  0.00     0.002 A 
ATOM     25  C   UNL d   1     -49.854  14.025  21.167  0.00  0.00     0.019 A 
ENDBRANCH  18  20
ENDBRANCH  14  16
ENDBRANCH   1  14
BRANCH   1  26
ATOM     26  C   UNL d   1     -47.909  12.233  23.007  0.00  0.00     0.047 A 
ATOM     27  S   UNL d   1     -48.260  11.946  23.698  0.00  0.00    -0.085 SA
ATOM     28  C   UNL d   1     -48.608  11.221  23.528  0.00  0.00     0.035 A 
ATOM     29  C   UNL d   1     -48.476  11.052  22.729  0.00  0.00     0.007 A 
ATOM     30  C   UNL d   1     -48.044  11.678  22.410  0.00  0.00     0.009 A 
ENDBRANCH   1  26
TORSDOF 6
ENDMDL
MODEL 2
REMARK VINA RESULT:      -2.2      1.184      1.835
REMARK  6 active torsions:
REMARK  status: ('A' for Active; 'I' for Inactive)
REMARK       I    between atoms: N_6  and  C_1 
REMARK       I    between atoms: N_9  and  C_1 
REMARK    1  A    between atoms: N_2  and  C_3 
REMARK    2  A    between atoms: C_3  and  C_5 
REMARK    3  A    between atoms: C_7  and  C_3 
REMARK    4  A    between atoms: C_16  and  N_4 
REMARK    5  A    between atoms: C_5  and  N_6 
REMARK    6  A    between atoms: C_19  and  N_9 
ROOT
ATOM      1  C   UNL d   1     -48.542  12.574  22.071  0.00  0.00     0.088 C 
ENDROOT
BRANCH   1   2
ATOM      2  N   UNL d   1     -47.729  12.726  22.038  0.00  0.00    -0.300 N 
ATOM      3  C   UNL d   1     -47.339  13.019  22.701  0.00  0.00     0.100 A 
ATOM      4  C   UNL d   1     -46.533  13.170  22.669  0.00  0.00     0.100 A 
ATOM      5  N   UNL d   1     -46.101  13.030  21.975  0.00  0.00    -0.301 N 
ATOM      6  C   UNL d   1     -46.510  12.728  21.300  0.00  0.00     0.100 A 
ATOM      7  C   UNL d   1     -47.313  12.584  21.347  0.00  0.00     0.100 A 
BRANCH   5   8
ATOM      8  C   UNL d   1     -45.302  13.174  21.928  0.00  0.00     0.064 A 
ATOM      9  C   UNL d   1     -45.007  13.940  21.900  0.00  0.00     0.018 A 
ATOM     10  C   UNL d   1     -44.192  14.076  21.853  0.00  0.00     0.002 A 
ATOM     11  C   UNL d   1     -43.669  13.433  21.832  0.00  0.00     0.000 A 
ATOM     12  C   UNL d   1     -43.965  12.658  21.860  0.00  0.00     0.002 A 
ATOM     13  C   UNL d   1     -44.778  12.531  21.908  0.00  0.00     0.018 A 
ENDBRANCH   5   8
ENDBRANCH   1   2
BRANCH   1  14
ATOM     14  C   UNL d   1     -49.060  12.971  21.570  0.00  0.00     0.103 C 
ATOM     15  C   UNL d   1     -49.230  12.662  20.833  0.00  0.00     0.022 C 
BRANCH  14  16
ATOM     16  N   UNL d   1     -49.399  13.677  21.817  0.00  0.00    -0.190 NA
ATOM     17  C   UNL d   1     -50.014  14.015  21.376  0.00  0.00     0.369 C 
ATOM     18  N   UNL d   1     -50.353  14.720  21.624  0.00  0.00    -0.191 NA
ATOM     19  O   UNL d   1     -50.277  13.640  20.695  0.00  0.00    -0.242 OA
BRANCH  18  20
ATOM     20  C   UNL d   1     -50.088  15.097  22.309  0.00  0.00     0.086 A 
ATOM     21  C   UNL d   1     -50.528  15.024  23.011  0.00  0.00     0.019 A 
ATOM     22  C   UNL d   1     -50.267  15.397  23.693  0.00  0.00     0.002 A 
ATOM     23  C   UNL d   1     -49.572  15.841  23.684  0.00  0.00     0.000 A 
ATOM     24  C   UNL d   1     -49.139  15.910  22.985  0.00  0.00     0.002 A 
ATOM     25  C   UNL d   1     -49.398  15.536  22.293  0.00  0.00     0.019 A 
ENDBRANCH  18  20
ENDBRANCH  14  16
ENDBRANCH   1  14
BRANCH   1  26
ATOM     26  C   UNL d   1     -48.832  12.023  22.609  0.00  0.00     0.047 A 
ATOM     27  S   UNL d   1     -49.172  12.184  23.345  0.00  0.00    -0.085 SA
ATOM     28  C   UNL d   1     -49.381  11.470  23.694  0.00  0.00     0.035 A 
ATOM     29  C   UNL d   1     -49.173  10.859  23.176  0.00  0.00     0.007 A 
ATOM     30  C   UNL d   1     -48.834  11.203  22.508  0.00  0.00     0.009 A 
ENDBRANCH   1  26
TORSDOF 6
ENDMDL
MODEL 3
REMARK VINA RESULT:      -1.5      4.888      8.472
REMARK  6 active torsions:
REMARK  status: ('A' for Active; 'I' for Inactive)
REMARK       I    between atoms: N_6  and  C_1 
REMARK       I    between atoms: N_9  and  C_1 
REMARK    1  A    between atoms: N_2  and  C_3 
REMARK    2  A    between atoms: C_3  and  C_5 
REMARK    3  A    between atoms: C_7  and  C_3 
REMARK    4  A    between atoms: C_16  and  N_4 
REMARK    5  A    between atoms: C_5  and  N_6 
REMARK    6  A    between atoms: C_19  and  N_9 
ROOT
ATOM      1  C   UNL d   1     -40.274  14.594  20.006  0.00  0.00     0.088 C 
ENDROOT
BRANCH   1   2
ATOM      2  N   UNL d   1     -40.926  14.226  20.359  0.00  0.00    -0.300 N 
ATOM      3  C   UNL d   1     -40.999  13.406  20.330  0.00  0.00     0.100 A 
ATOM      4  C   UNL d   1     -41.645  13.041  20.679  0.00  0.00     0.100 A 
ATOM      5  N   UNL d   1     -42.230  13.486  21.065  0.00  0.00    -0.301 N 
ATOM      6  C   UNL d   1     -42.145  14.326  21.089  0.00  0.00     0.100 A 
ATOM      7  C   UNL d   1     -41.497  14.676  20.736  0.00  0.00     0.100 A 
BRANCH   5   8
ATOM      8  C   UNL d   1     -42.875  13.138  21.416  0.00  0.00     0.064 A 
ATOM      9  C   UNL d   1     -42.809  12.430  21.826  0.00  0.00     0.018 A 
ATOM     10  C   UNL d   1     -43.471  12.083  22.180  0.00  0.00     0.002 A 
ATOM     11  C   UNL d   1     -44.211  12.455  22.120  0.00  0.00     0.000 A 
ATOM     12  C   UNL d   1     -44.280  13.170  21.705  0.00  0.00     0.002 A 
ATOM     13  C   UNL d   1     -43.615  13.509  21.355  0.00  0.00     0.018 A 
ENDBRANCH   5   8
ENDBRANCH   1   2
BRANCH   1  14
ATOM     14  C   UNL d   1     -39.811  15.121  20.436  0.00  0.00     0.103 C 
ATOM     15  C   UNL d   1     -39.854  15.922  20.281  0.00  0.00     0.022 C 
BRANCH  14  16
ATOM     16  N   UNL d   1     -39.309  14.833  21.019  0.00  0.00    -0.190 NA
ATOM     17  C   UNL d   1     -38.607  15.237  21.195  0.00  0.00     0.369 C 
ATOM     18  N   UNL d   1     -38.105  14.949  21.777  0.00  0.00    -0.191 NA
ATOM     19  O   UNL d   1     -38.421  15.922  20.783  0.00  0.00    -0.242 OA
BRANCH  18  20
ATOM     20  C   UNL d   1     -38.294  14.260  22.191  0.00  0.00     0.086 A 
ATOM     21  C   UNL d   1     -38.769  14.310  22.872  0.00  0.00     0.019 A 
ATOM     22  C   UNL d   1     -38.958  13.627  23.285  0.00  0.00     0.002 A 
ATOM     23  C   UNL d   1     -38.679  12.895  23.027  0.00  0.00     0.000 A 
ATOM     24  C   UNL d   1     -38.208  12.851  22.351  0.00  0.00     0.002 A 
ATOM     25  C   UNL d   1     -38.014  13.537  21.930  0.00  0.00     0.019 A 
ENDBRANCH  18  20
ENDBRANCH  14  16
ENDBRANCH   1  14
BRANCH   1  26
ATOM     26  C   UNL d   1     -40.091  14.432  19.221  0.00  0.00     0.047 A 
ATOM     27  S   UNL d   1     -40.279  14.896  18.564  0.00  0.00    -0.085 SA
ATOM     28  C   UNL d   1     -39.989  14.523  17.892  0.00  0.00     0.035 A 
ATOM     29  C   UNL d   1     -39.617  13.821  18.126  0.00  0.00     0.007 A 
ATOM     30  C   UNL d   1     -39.682  13.768  18.946  0.00  0.00     0.009 A 
ENDBRANCH   1  26
TORSDOF 6
ENDMDL
MODEL 4
REMARK VINA RESULT:      -1.1      6.048      8.458
REMARK  6 active torsions:
REMARK  status: ('A' for Active; 'I' for Inactive)
REMARK       I    between atoms: N_6  and  C_1 
REMARK       I    between atoms: N_9  and  C_1 
REMARK    1  A    between atoms: N_2  and  C_3 
REMARK    2  A    between atoms: C_3  and  C_5 
REMARK    3  A    between atoms: C_7  and  C_3 
REMARK    4  A    between atoms: C_16  and  N_4 
REMARK    5  A    between atoms: C_5  and  N_6 
REMARK    6  A    between atoms: C_19  and  N_9 
ROOT
ATOM      1  C   UNL d   1     -39.213  14.446  20.364  0.00  0.00     0.088 C 
ENDROOT
BRANCH   1   2
ATOM      2  N   UNL d   1     -39.017  14.315  19.570  0.00  0.00    -0.300 N 
ATOM      3  C   UNL d   1     -38.594  14.885  19.153  0.00  0.00     0.100 A 
ATOM      4  C   UNL d   1     -38.400  14.757  18.367  0.00  0.00     0.100 A 
ATOM      5  N   UNL d   1     -38.624  14.056  17.981  0.00  0.00    -0.301 N 
ATOM      6  C   UNL d   1     -39.057  13.478  18.418  0.00  0.00     0.100 A 
ATOM      7  C   UNL d   1     -39.244  13.620  19.201  0.00  0.00     0.100 A 
BRANCH   5   8
ATOM      8  C   UNL d   1     -38.438  13.915  17.202  0.00  0.00     0.064 A 
ATOM      9  C   UNL d   1     -38.131  13.192  16.960  0.00  0.00     0.018 A 
ATOM     10  C   UNL d   1     -37.946  13.058  16.166  0.00  0.00     0.002 A 
ATOM     11  C   UNL d   1     -38.070  13.658  15.607  0.00  0.00     0.000 A 
ATOM     12  C   UNL d   1     -38.380  14.389  15.850  0.00  0.00     0.002 A 
ATOM     13  C   UNL d   1     -38.563  14.515  16.644  0.00  0.00     0.018 A 
ENDBRANCH   5   8
ENDBRANCH   1   2
BRANCH   1  14
ATOM     14  C   UNL d   1     -39.829  14.954  20.561  0.00  0.00     0.103 C 
ATOM     15  C   UNL d   1     -39.695  15.759  20.605  0.00  0.00     0.022 C 
BRANCH  14  16
ATOM     16  N   UNL d   1     -40.575  14.645  20.712  0.00  0.00    -0.190 NA
ATOM     17  C   UNL d   1     -41.242  15.132  20.655  0.00  0.00     0.369 C 
ATOM     18  N   UNL d   1     -41.988  14.824  20.806  0.00  0.00    -0.191 NA
ATOM     19  O   UNL d   1     -41.150  15.921  20.448  0.00  0.00    -0.242 OA
BRANCH  18  20
ATOM     20  C   UNL d   1     -42.079  14.030  21.015  0.00  0.00     0.086 A 
ATOM     21  C   UNL d   1     -41.919  13.792  21.796  0.00  0.00     0.019 A 
ATOM     22  C   UNL d   1     -42.009  13.005  22.006  0.00  0.00     0.002 A 
ATOM     23  C   UNL d   1     -42.256  12.451  21.447  0.00  0.00     0.000 A 
ATOM     24  C   UNL d   1     -42.414  12.692  20.673  0.00  0.00     0.002 A 
ATOM     25  C   UNL d   1     -42.325  13.486  20.455  0.00  0.00     0.019 A 
ENDBRANCH  18  20
ENDBRANCH  14  16
ENDBRANCH   1  14
BRANCH   1  26
ATOM     26  C   UNL d   1     -38.789  14.064  20.956  0.00  0.00     0.047 A 
ATOM     27  S   UNL d   1     -38.404  14.420  21.595  0.00  0.00    -0.085 SA
ATOM     28  C   UNL d   1     -38.052  13.830  22.045  0.00  0.00     0.035 A 
ATOM     29  C   UNL d   1     -38.215  13.101  21.689  0.00  0.00     0.007 A 
ATOM     30  C   UNL d   1     -38.670  13.248  21.017  0.00  0.00     0.009 A 
ENDBRANCH   1  26
TORSDOF 6
ENDMDL
MODEL 5
REMARK VINA RESULT:      -0.8      8.291      9.952
REMARK  6 active torsions:
REMARK  status: ('A' for Active; 'I' for Inactive)
REMARK       I    between atoms: N_6  and  C_1 
REMARK       I    between atoms: N_9  and  C_1 
REMARK    1  A    between atoms: N_2  and  C_3 
REMARK    2  A    between atoms: C_3  and  C_5 
REMARK    3  A    between atoms: C_7  and  C_3 
REMARK    4  A    between atoms: C_16  and  N_4 
REMARK    5  A    between atoms: C_5  and  N_6 
REMARK    6  A    between atoms: C_19  and  N_9 
ROOT
ATOM      1  C   UNL d   1     -39.609  15.325  17.858  0.00  0.00     0.088 C 
ENDROOT
BRANCH   1   2
ATOM      2  N   UNL d   1     -39.538  15.318  18.683  0.00  0.00    -0.300 N 
ATOM      3  C   UNL d   1     -39.945  14.754  19.125  0.00  0.00     0.100 A 
ATOM      4  C   UNL d   1     -39.876  14.746  19.942  0.00  0.00     0.100 A 
ATOM      5  N   UNL d   1     -39.398  15.300  20.335  0.00  0.00    -0.301 N 
ATOM      6  C   UNL d   1     -38.984  15.874  19.872  0.00  0.00     0.100 A 
ATOM      7  C   UNL d   1     -39.064  15.870  19.059  0.00  0.00     0.100 A 
BRANCH   5   8
ATOM      8  C   UNL d   1     -39.319  15.304  21.144  0.00  0.00     0.064 A 
ATOM      9  C   UNL d   1     -38.939  15.920  21.533  0.00  0.00     0.018 A 
ATOM     10  C   UNL d   1     -38.864  15.915  22.357  0.00  0.00     0.002 A 
ATOM     11  C   UNL d   1     -39.175  15.283  22.794  0.00  0.00     0.000 A 
ATOM     12  C   UNL d   1     -39.559  14.660  22.403  0.00  0.00     0.002 A 
ATOM     13  C   UNL d   1     -39.630  14.672  21.581  0.00  0.00     0.018 A 
ENDBRANCH   5   8
ENDBRANCH   1   2
BRANCH   1  14
ATOM     14  C   UNL d   1     -38.944  15.230  17.383  0.00  0.00     0.103 C 
ATOM     15  C   UNL d   1     -38.586  15.884  17.049  0.00  0.00     0.022 C 
BRANCH  14  16
ATOM     16  N   UNL d   1     -38.647  14.477  17.251  0.00  0.00    -0.190 NA
ATOM     17  C   UNL d   1     -38.238  14.312  16.550  0.00  0.00     0.369 C 
ATOM     18  N   UNL d   1     -37.941  13.558  16.417  0.00  0.00    -0.191 NA
ATOM     19  O   UNL d   1     -38.133  14.907  15.993  0.00  0.00    -0.242 OA
BRANCH  18  20
ATOM     20  C   UNL d   1     -38.047  12.961  16.977  0.00  0.00     0.086 A 
ATOM     21  C   UNL d   1     -38.254  12.196  16.724  0.00  0.00     0.019 A 
ATOM     22  C   UNL d   1     -38.359  11.601  17.278  0.00  0.00     0.002 A 
ATOM     23  C   UNL d   1     -38.261  11.758  18.081  0.00  0.00     0.000 A 
ATOM     24  C   UNL d   1     -38.056  12.519  18.327  0.00  0.00     0.002 A 
ATOM     25  C   UNL d   1     -37.948  13.124  17.773  0.00  0.00     0.019 A 
ENDBRANCH  18  20
ENDBRANCH  14  16
ENDBRANCH   1  14
BRANCH   1  26
ATOM     26  C   UNL d   1     -40.349  15.429  17.515  0.00  0.00     0.047 A 
ATOM     27  S   UNL d   1     -41.068  15.133  17.794  0.00  0.00    -0.085 SA
ATOM     28  C   UNL d   1     -41.663  15.370  17.279  0.00  0.00     0.035 A 
ATOM     29  C   UNL d   1     -41.317  15.816  16.674  0.00  0.00     0.007 A 
ATOM     30  C   UNL d   1     -40.507  15.851  16.821  0.00  0.00     0.009 A 
ENDBRANCH   1  26
TORSDOF 6
ENDMDL
MODEL 6
REMARK VINA RESULT:      -0.6      6.624      9.001
REMARK  6 active torsions:
REMARK  status: ('A' for Active; 'I' for Inactive)
REMARK       I    between atoms: N_6  and  C_1 
REMARK       I    between atoms: N_9  and  C_1 
REMARK    1  A    between atoms: N_2  and  C_3 
REMARK    2  A    between atoms: C_3  and  C_5 
REMARK    3  A    between atoms: C_7  and  C_3 
REMARK    4  A    between atoms: C_16  and  N_4 
REMARK    5  A    between atoms: C_5  and  N_6 
REMARK    6  A    between atoms: C_19  and  N_9 
ROOT
ATOM      1  C   UNL d   1     -40.125  14.608  20.378  0.00  0.00     0.088 C 
ENDROOT
BRANCH   1   2
ATOM      2  N   UNL d   1     -39.814  14.415  19.635  0.00  0.00    -0.300 N 
ATOM      3  C   UNL d   1     -39.929  14.923  18.997  0.00  0.00     0.100 A 
ATOM      4  C   UNL d   1     -39.621  14.733  18.262  0.00  0.00     0.100 A 
ATOM      5  N   UNL d   1     -39.192  14.032  18.147  0.00  0.00    -0.301 N 
ATOM      6  C   UNL d   1     -39.079  13.517  18.807  0.00  0.00     0.100 A 
ATOM      7  C   UNL d   1     -39.391  13.720  19.535  0.00  0.00     0.100 A 
BRANCH   5   8
ATOM      8  C   UNL d   1     -38.881  13.830  17.424  0.00  0.00     0.064 A 
ATOM      9  C   UNL d   1     -38.959  14.324  16.772  0.00  0.00     0.018 A 
ATOM     10  C   UNL d   1     -38.639  14.109  16.040  0.00  0.00     0.002 A 
ATOM     11  C   UNL d   1     -38.235  13.389  15.963  0.00  0.00     0.000 A 
ATOM     12  C   UNL d   1     -38.155  12.889  16.620  0.00  0.00     0.002 A 
ATOM     13  C   UNL d   1     -38.477  13.110  17.347  0.00  0.00     0.018 A 
ENDBRANCH   5   8
ENDBRANCH   1   2
BRANCH   1  14
ATOM     14  C   UNL d   1     -39.713  15.110  20.883  0.00  0.00     0.103 C 
ATOM     15  C   UNL d   1     -39.790  15.919  20.804  0.00  0.00     0.022 C 
BRANCH  14  16
ATOM     16  N   UNL d   1     -39.227  14.790  21.463  0.00  0.00    -0.190 NA
ATOM     17  C   UNL d   1     -38.548  15.199  21.703  0.00  0.00     0.369 C 
ATOM     18  N   UNL d   1     -38.063  14.879  22.283  0.00  0.00    -0.191 NA
ATOM     19  O   UNL d   1     -38.368  15.922  21.358  0.00  0.00    -0.242 OA
BRANCH  18  20
ATOM     20  C   UNL d   1     -38.245  14.152  22.629  0.00  0.00     0.086 A 
ATOM     21  C   UNL d   1     -38.740  14.131  23.297  0.00  0.00     0.019 A 
ATOM     22  C   UNL d   1     -38.923  13.410  23.643  0.00  0.00     0.002 A 
ATOM     23  C   UNL d   1     -38.618  12.710  23.331  0.00  0.00     0.000 A 
ATOM     24  C   UNL d   1     -38.128  12.737  22.668  0.00  0.00     0.002 A 
ATOM     25  C   UNL d   1     -37.939  13.461  22.314  0.00  0.00     0.019 A 
ENDBRANCH  18  20
ENDBRANCH  14  16
ENDBRANCH   1  14
BRANCH   1  26
ATOM     26  C   UNL d   1     -40.849  14.294  20.609  0.00  0.00     0.047 A 
ATOM     27  S   UNL d   1     -41.505  14.716  20.880  0.00  0.00    -0.085 SA
ATOM     28  C   UNL d   1     -42.105  14.180  21.048  0.00  0.00     0.035 A 
ATOM     29  C   UNL d   1     -41.825  13.419  20.883  0.00  0.00     0.007 A 
ATOM     30  C   UNL d   1     -41.050  13.492  20.612  0.00  0.00     0.009 A 
ENDBRANCH   1  26
TORSDOF 6
ENDMDL
MODEL 7
REMARK VINA RESULT:      -0.3      4.985      8.648
REMARK  6 active torsions:
REMARK  status: ('A' for Active; 'I' for Inactive)
REMARK       I    between atoms: N_6  and  C_1 
REMARK       I    between atoms: N_9  and  C_1 
REMARK    1  A    between atoms: N_2  and  C_3 
REMARK    2  A    between atoms: C_3  and  C_5 
REMARK    3  A    between atoms: C_7  and  C_3 
REMARK    4  A    between atoms: C_16  and  N_4 
REMARK    5  A    between atoms: C_5  and  N_6 
REMARK    6  A    between atoms: C_19  and  N_9 
ROOT
ATOM      1  C   UNL d   1     -40.718  14.944  19.533  0.00  0.00     0.088 C 
ENDROOT
BRANCH   1   2
ATOM      2  N   UNL d   1     -41.255  14.481  19.961  0.00  0.00    -0.300 N 
ATOM      3  C   UNL d   1     -41.574  14.767  20.664  0.00  0.00     0.100 A 
ATOM      4  C   UNL d   1     -42.106  14.309  21.088  0.00  0.00     0.100 A 
ATOM      5  N   UNL d   1     -42.331  13.557  20.819  0.00  0.00    -0.301 N 
ATOM      6  C   UNL d   1     -41.998  13.273  20.096  0.00  0.00     0.100 A 
ATOM      7  C   UNL d   1     -41.469  13.740  19.685  0.00  0.00     0.100 A 
BRANCH   5   8
ATOM      8  C   UNL d   1     -42.857  13.092  21.228  0.00  0.00     0.064 A 
ATOM      9  C   UNL d   1     -43.640  13.021  20.990  0.00  0.00     0.018 A 
ATOM     10  C   UNL d   1     -44.168  12.546  21.413  0.00  0.00     0.002 A 
ATOM     11  C   UNL d   1     -43.904  12.135  22.084  0.00  0.00     0.000 A 
ATOM     12  C   UNL d   1     -43.113  12.204  22.326  0.00  0.00     0.002 A 
ATOM     13  C   UNL d   1     -42.593  12.681  21.898  0.00  0.00     0.018 A 
ENDBRANCH   5   8
ENDBRANCH   1   2
BRANCH   1  14
ATOM     14  C   UNL d   1     -39.992  15.150  19.863  0.00  0.00     0.103 C 
ATOM     15  C   UNL d   1     -39.938  15.800  20.355  0.00  0.00     0.022 C 
BRANCH  14  16
ATOM     16  N   UNL d   1     -39.329  14.697  19.693  0.00  0.00    -0.190 NA
ATOM     17  C   UNL d   1     -38.605  14.873  20.055  0.00  0.00     0.369 C 
ATOM     18  N   UNL d   1     -37.942  14.421  19.885  0.00  0.00    -0.191 NA
ATOM     19  O   UNL d   1     -38.559  15.501  20.582  0.00  0.00    -0.242 OA
BRANCH  18  20
ATOM     20  C   UNL d   1     -37.989  13.789  19.355  0.00  0.00     0.086 A 
ATOM     21  C   UNL d   1     -37.941  13.938  18.538  0.00  0.00     0.019 A 
ATOM     22  C   UNL d   1     -37.988  13.313  18.009  0.00  0.00     0.002 A 
ATOM     23  C   UNL d   1     -38.082  12.541  18.285  0.00  0.00     0.000 A 
ATOM     24  C   UNL d   1     -38.129  12.399  19.097  0.00  0.00     0.002 A 
ATOM     25  C   UNL d   1     -38.082  13.026  19.636  0.00  0.00     0.019 A 
ENDBRANCH  18  20
ENDBRANCH  14  16
ENDBRANCH   1  14
BRANCH   1  26
ATOM     26  C   UNL d   1     -40.913  15.198  18.776  0.00  0.00     0.047 A 
ATOM     27  S   UNL d   1     -41.317  15.891  18.577  0.00  0.00    -0.085 SA
ATOM     28  C   UNL d   1     -41.390  15.921  17.759  0.00  0.00     0.035 A 
ATOM     29  C   UNL d   1     -41.030  15.246  17.443  0.00  0.00     0.007 A 
ATOM     30  C   UNL d   1     -40.737  14.802  18.072  0.00  0.00     0.009 A 
ENDBRANCH   1  26
TORSDOF 6
ENDMDL
