MODEL 1
REMARK VINA RESULT:      27.5      0.000      0.000
REMARK  3 active torsions:
REMARK  status: ('A' for Active; 'I' for Inactive)
REMARK    1  A    between atoms: C_4  and  S_1 
REMARK    2  A    between atoms: N_6  and  S_1 
REMARK    3  A    between atoms: C_2  and  C_8 
ROOT
ATOM      1  C   UNL d   1      45.762 -14.310  43.873  0.00  0.00     0.104 A 
ATOM      2  C   UNL d   1      45.733 -15.081  43.582  0.00  0.00     0.015 A 
ATOM      3  C   UNL d   1      46.134 -15.685  43.984  0.00  0.00     0.025 A 
ATOM      4  C   UNL d   1      46.187 -14.138  44.558  0.00  0.00     0.012 A 
ATOM      5  C   UNL d   1      46.560 -15.517  44.670  0.00  0.00     0.002 A 
ATOM      6  C   UNL d   1      46.584 -14.741  44.954  0.00  0.00     0.001 A 
ATOM      7  C   UNL d   1      46.214 -13.367  44.846  0.00  0.00     0.001 C 
ENDROOT
BRANCH   3   8
ATOM      8  C   UNL d   1      46.108 -16.460  43.696  0.00  0.00     0.111 A 
ATOM      9  N   UNL d   1      46.062 -16.673  42.901  0.00  0.00    -0.239 NA
ATOM     10  C   UNL d   1      46.048 -17.501  42.861  0.00  0.00     0.088 A 
ATOM     11  C   UNL d   1      46.006 -18.025  42.231  0.00  0.00     0.020 A 
ATOM     12  C   UNL d   1      46.086 -17.789  43.635  0.00  0.00     0.049 A 
ATOM     13  C   UNL d   1      46.002 -18.831  42.365  0.00  0.00     0.002 A 
ATOM     14  C   UNL d   1      46.040 -19.125  43.141  0.00  0.00     0.001 A 
ATOM     15  C   UNL d   1      46.082 -18.600  43.777  0.00  0.00     0.008 A 
ATOM     16  S   UNL d   1      46.123 -17.137  44.152  0.00  0.00    -0.066 SA
ENDBRANCH   3   8
BRANCH   1  17
ATOM     17  S   UNL d   1      45.363 -13.699  43.476  0.00  0.00     0.271 S 
ATOM     18  O   UNL d   1      46.007 -13.623  42.956  0.00  0.00    -0.200 OA
ATOM     19  O   UNL d   1      44.627 -13.786  44.072  0.00  0.00    -0.200 OA
BRANCH  17  20
ATOM     20  N   UNL d   1      44.931 -13.101  43.117  0.00  0.00    -0.229 N 
ATOM     21  C   UNL d   1      45.205 -12.596  42.522  0.00  0.00     0.092 A 
ATOM     22  C   UNL d   1      44.595 -12.080  42.320  0.00  0.00     0.021 A 
ATOM     23  C   UNL d   1      43.935 -12.264  42.792  0.00  0.00     0.021 A 
ATOM     24  C   UNL d   1      44.147 -12.892  43.281  0.00  0.00     0.092 A 
ENDBRANCH  17  20
ENDBRANCH   1  17
TORSDOF 3
ENDMDL
