MODEL 1
REMARK VINA RESULT:      -0.4      0.000      0.000
REMARK  5 active torsions:
REMARK  status: ('A' for Active; 'I' for Inactive)
REMARK    1  A    between atoms: C_3  and  C_1 
REMARK    2  A    between atoms: N_4  and  C_3 
REMARK    3  A    between atoms: C_6  and  C_3 
REMARK    4  A    between atoms: C_21  and  N_9 
REMARK    5  A    between atoms: C_25  and  C_21 
ROOT
ATOM      1  C   UNL d   1      59.094  -0.515  29.652  0.00  0.00     0.073 C 
ENDROOT
BRANCH   1   2
ATOM      2  C   UNL d   1      58.430  -0.221  30.063  0.00  0.00     0.057 A 
ATOM      3  C   UNL d   1      58.234  -0.485  30.820  0.00  0.00     0.214 A 
ATOM      4  C   UNL d   1      57.581  -0.191  31.217  0.00  0.00     0.120 A 
ATOM      5  O   UNL d   1      58.703  -1.052  31.180  0.00  0.00    -0.285 OA
ATOM      6  N   UNL d   1      57.397  -0.456  31.956  0.00  0.00    -0.241 NA
ATOM      7  C   UNL d   1      57.108   0.381  30.854  0.00  0.00     0.021 A 
ATOM      8  C   UNL d   1      56.742  -0.162  32.355  0.00  0.00     0.099 A 
ATOM      9  C   UNL d   1      56.270   0.410  31.992  0.00  0.00     0.021 A 
ATOM     10  C   UNL d   1      56.457   0.682  31.234  0.00  0.00     0.003 A 
ATOM     11  C   UNL d   1      57.294   0.653  30.098  0.00  0.00     0.002 A 
ATOM     12  C   UNL d   1      57.958   0.351  29.700  0.00  0.00     0.005 A 
ENDBRANCH   1   2
BRANCH   1  13
ATOM     13  N   UNL d   1      59.070  -1.278  29.355  0.00  0.00    -0.301 N 
ATOM     14  C   UNL d   1      59.597  -1.853  29.636  0.00  0.00     0.100 A 
ATOM     15  C   UNL d   1      59.584  -2.619  29.349  0.00  0.00     0.100 A 
ATOM     16  N   UNL d   1      59.020  -2.822  28.755  0.00  0.00    -0.297 N 
ATOM     17  C   UNL d   1      58.494  -2.265  28.469  0.00  0.00     0.100 A 
ATOM     18  C   UNL d   1      58.520  -1.482  28.773  0.00  0.00     0.100 A 
BRANCH  16  19
ATOM     19  C   UNL d   1      58.995  -3.588  28.457  0.00  0.00     0.126 C 
BRANCH  19  20
ATOM     20  C   UNL d   1      58.851  -4.218  28.947  0.00  0.00     0.253 C 
ATOM     21  O   UNL d   1      58.340  -4.825  28.715  0.00  0.00    -0.281 OA
ENDBRANCH  19  20
ENDBRANCH  16  19
ENDBRANCH   1  13
BRANCH   1  22
ATOM     22  C   UNL d   1      59.753  -0.045  29.551  0.00  0.00     0.046 A 
ATOM     23  S   UNL d   1      59.957   0.245  28.812  0.00  0.00    -0.085 SA
ATOM     24  C   UNL d   1      60.623   0.682  28.898  0.00  0.00     0.035 A 
ATOM     25  C   UNL d   1      60.849   0.675  29.687  0.00  0.00     0.007 A 
ATOM     26  C   UNL d   1      60.311   0.225  30.100  0.00  0.00     0.009 A 
ENDBRANCH   1  22
TORSDOF 5
ENDMDL
