MODEL 1
REMARK VINA RESULT:      28.5      0.000      0.000
REMARK  4 active torsions:
REMARK  status: ('A' for Active; 'I' for Inactive)
REMARK    1  A    between atoms: N_3  and  C_1 
REMARK    2  A    between atoms: C_4  and  C_2 
REMARK       I    between atoms: C_6  and  N_3 
REMARK    3  A    between atoms: C_11  and  C_6 
REMARK    4  A    between atoms: C_13  and  C_11 
ROOT
ATOM      1  N   UNL d   1     -57.339 -98.757 -45.286  0.00  0.00    -0.201 NA
ATOM      2  C   UNL d   1     -56.526 -98.845 -45.260  0.00  0.00     0.280 C 
ATOM      3  O   UNL d   1     -56.090 -98.826 -45.968  0.00  0.00    -0.265 OA
ENDROOT
BRANCH   2   4
ATOM      4  C   UNL d   1     -56.132 -98.953 -44.551  0.00  0.00     0.062 C 
BRANCH   4   5
ATOM      5  C   UNL d   1     -55.777 -99.673 -44.371  0.00  0.00     0.005 A 
ATOM      6  C   UNL d   1     -56.048-100.371 -44.727  0.00  0.00     0.003 A 
ATOM      7  C   UNL d   1     -55.687-101.091 -44.543  0.00  0.00     0.030 A 
ATOM      8  C   UNL d   1     -55.061-101.120 -44.008  0.00  0.00     0.140 A 
ATOM      9  C   UNL d   1     -54.796-100.430 -43.659  0.00  0.00     0.030 A 
ATOM     10  F   UNL d   1     -54.713-101.840 -43.834  0.00  0.00    -0.204 F 
ATOM     11  C   UNL d   1     -55.145 -99.703 -43.832  0.00  0.00     0.003 A 
ENDBRANCH   4   5
ENDBRANCH   2   4
BRANCH   1  12
ATOM     12  C   UNL d   1     -57.768 -98.777 -44.582  0.00  0.00     0.119 A 
ATOM     13  C   UNL d   1     -58.585 -98.812 -44.525  0.00  0.00     0.084 A 
ATOM     14  C   UNL d   1     -58.782 -98.822 -43.723  0.00  0.00     0.014 A 
ATOM     15  C   UNL d   1     -58.075 -98.794 -43.285  0.00  0.00     0.037 A 
ATOM     16  S   UNL d   1     -57.457 -98.766 -43.827  0.00  0.00    -0.067 SA
BRANCH  13  17
ATOM     17  C   UNL d   1     -59.123 -98.832 -45.151  0.00  0.00     0.299 C 
ATOM     18  O   UNL d   1     -58.858 -98.905 -45.925  0.00  0.00    -0.264 OA
ATOM     19  N   UNL d   1     -59.935 -98.780 -44.993  0.00  0.00    -0.102 N 
ENDBRANCH  13  17
ENDBRANCH   1  12
TORSDOF 4
ENDMDL
