MODEL 1
REMARK VINA RESULT:      17.4      0.000      0.000
REMARK  3 active torsions:
REMARK  status: ('A' for Active; 'I' for Inactive)
REMARK    1  A    between atoms: C_6  and  C_1 
REMARK    2  A    between atoms: C_7  and  C_5 
REMARK    3  A    between atoms: O_15  and  C_12 
ROOT
ATOM      1  C   UNL d   1     -52.984  23.865  33.834  0.00  0.00     0.169 A 
ATOM      2  C   UNL d   1     -52.987  24.605  34.018  0.00  0.00     0.048 A 
ATOM      3  N   UNL d   1     -51.761  23.983  33.375  0.00  0.00    -0.148 NA
ATOM      4  N   UNL d   1     -52.373  23.560  33.514  0.00  0.00    -0.142 NA
ATOM      5  C   UNL d   1     -51.764  24.723  33.559  0.00  0.00     0.105 A 
ENDROOT
BRANCH   5   6
ATOM      6  C   UNL d   1     -51.225  25.337  33.496  0.00  0.00     0.020 A 
ATOM      7  C   UNL d   1     -51.484  26.122  33.540  0.00  0.00     0.004 A 
ATOM      8  C   UNL d   1     -50.942  26.742  33.476  0.00  0.00     0.024 A 
ATOM      9  C   UNL d   1     -50.138  26.579  33.369  0.00  0.00     0.094 A 
ATOM     10  C   UNL d   1     -49.878  25.794  33.325  0.00  0.00     0.024 A 
ATOM     11  C   UNL d   1     -50.425  25.175  33.389  0.00  0.00     0.004 A 
BRANCH   9  12
ATOM     12  O   UNL d   1     -49.599  27.194  33.306  0.00  0.00    -0.328 OA
ATOM     13  C   UNL d   1     -49.849  27.973  33.390  0.00  0.00     0.181 C 
ENDBRANCH   9  12
ENDBRANCH   5   6
BRANCH   1  14
ATOM     14  C   UNL d   1     -53.598  23.441  33.974  0.00  0.00     0.231 C 
ATOM     15  O   UNL d   1     -53.760  23.239  34.690  0.00  0.00    -0.643 OA
ATOM     16  O   UNL d   1     -54.047  23.220  33.410  0.00  0.00    -0.643 OA
ENDBRANCH   1  14
TORSDOF 3
ENDMDL
