MODEL 1
REMARK VINA RESULT:      -3.6      0.000      0.000
REMARK  2 active torsions:
REMARK  status: ('A' for Active; 'I' for Inactive)
REMARK    1  A    between atoms: C_7  and  C_1 
REMARK    2  A    between atoms: C_11  and  C_7 
ROOT
ATOM      1  C   UNL d   1      31.190  16.889 -24.182  0.00  0.00     0.116 A 
ATOM      2  N   UNL d   1      31.931  18.098 -24.121  0.00  0.00    -0.152 NA
ATOM      3  N   UNL d   1      32.254  17.005 -23.231  0.00  0.00    -0.152 NA
ATOM      4  C   UNL d   1      31.338  17.636 -24.439  0.00  0.00     0.288 A 
ATOM      5  C   UNL d   1      31.649  16.570 -23.575  0.00  0.00     0.288 A 
ATOM      6  C   UNL d   1      32.403  17.770 -23.497  0.00  0.00     0.374 A 
ATOM      7  O   UNL d   1      31.512  15.794 -23.291  0.00  0.00    -0.265 OA
ATOM      8  O   UNL d   1      30.866  17.951 -25.056  0.00  0.00    -0.265 OA
ATOM      9  O   UNL d   1      33.022  18.195 -23.135  0.00  0.00    -0.242 OA
ENDROOT
BRANCH   1  10
ATOM     10  C   UNL d   1      30.575  16.432 -24.524  0.00  0.00     0.010 C 
BRANCH  10  11
ATOM     11  C   UNL d   1      29.822  16.472 -24.188  0.00  0.00     0.000 A 
ATOM     12  C   UNL d   1      29.597  15.917 -23.630  0.00  0.00     0.002 A 
ATOM     13  C   UNL d   1      28.853  15.956 -23.298  0.00  0.00     0.030 A 
ATOM     14  C   UNL d   1      28.327  16.557 -23.525  0.00  0.00     0.140 A 
ATOM     15  C   UNL d   1      28.553  17.111 -24.082  0.00  0.00     0.030 A 
ATOM     16  F   UNL d   1      27.553  16.618 -23.196  0.00  0.00    -0.204 F 
ATOM     17  C   UNL d   1      29.296  17.072 -24.414  0.00  0.00     0.002 A 
ENDBRANCH  10  11
ENDBRANCH   1  10
TORSDOF 2
ENDMDL
MODEL 2
REMARK VINA RESULT:      -3.4      2.108      3.225
REMARK  2 active torsions:
REMARK  status: ('A' for Active; 'I' for Inactive)
REMARK    1  A    between atoms: C_7  and  C_1 
REMARK    2  A    between atoms: C_11  and  C_7 
ROOT
ATOM      1  C   UNL d   1      30.057  16.568 -24.242  0.00  0.00     0.116 A 
ATOM      2  N   UNL d   1      28.761  17.145 -24.227  0.00  0.00    -0.152 NA
ATOM      3  N   UNL d   1      29.068  16.032 -23.357  0.00  0.00    -0.152 NA
ATOM      4  C   UNL d   1      29.526  17.108 -24.508  0.00  0.00     0.288 A 
ATOM      5  C   UNL d   1      29.829  16.025 -23.663  0.00  0.00     0.288 A 
ATOM      6  C   UNL d   1      28.526  16.588 -23.633  0.00  0.00     0.374 A 
ATOM      7  O   UNL d   1      30.366  15.453 -23.370  0.00  0.00    -0.265 OA
ATOM      8  O   UNL d   1      29.769  17.655 -25.097  0.00  0.00    -0.265 OA
ATOM      9  O   UNL d   1      27.758  16.578 -23.309  0.00  0.00    -0.242 OA
ENDROOT
BRANCH   1  10
ATOM     10  C   UNL d   1      30.840  16.549 -24.546  0.00  0.00     0.010 C 
BRANCH  10  11
ATOM     11  C   UNL d   1      31.422  16.986 -24.159  0.00  0.00     0.000 A 
ATOM     12  C   UNL d   1      31.896  16.625 -23.598  0.00  0.00     0.002 A 
ATOM     13  C   UNL d   1      32.472  17.057 -23.215  0.00  0.00     0.030 A 
ATOM     14  C   UNL d   1      32.577  17.860 -23.395  0.00  0.00     0.140 A 
ATOM     15  C   UNL d   1      32.104  18.222 -23.956  0.00  0.00     0.030 A 
ATOM     16  F   UNL d   1      33.165  18.329 -23.013  0.00  0.00    -0.204 F 
ATOM     17  C   UNL d   1      31.528  17.790 -24.338  0.00  0.00     0.002 A 
ENDBRANCH  10  11
ENDBRANCH   1  10
TORSDOF 2
ENDMDL
MODEL 3
REMARK VINA RESULT:      -2.9      2.012      3.599
REMARK  2 active torsions:
REMARK  status: ('A' for Active; 'I' for Inactive)
REMARK    1  A    between atoms: C_7  and  C_1 
REMARK    2  A    between atoms: C_11  and  C_7 
ROOT
ATOM      1  C   UNL d   1      31.530  16.914 -24.150  0.00  0.00     0.116 A 
ATOM      2  N   UNL d   1      30.650  16.000 -23.515  0.00  0.00    -0.152 NA
ATOM      3  N   UNL d   1      30.134  16.965 -24.460  0.00  0.00    -0.152 NA
ATOM      4  C   UNL d   1      31.396  16.307 -23.642  0.00  0.00     0.288 A 
ATOM      5  C   UNL d   1      30.897  17.247 -24.562  0.00  0.00     0.288 A 
ATOM      6  C   UNL d   1      29.999  16.341 -23.938  0.00  0.00     0.374 A 
ATOM      7  O   UNL d   1      31.014  17.882 -25.097  0.00  0.00    -0.265 OA
ATOM      8  O   UNL d   1      32.046  15.976 -23.229  0.00  0.00    -0.265 OA
ATOM      9  O   UNL d   1      29.216  16.070 -23.849  0.00  0.00    -0.242 OA
ENDROOT
BRANCH   1  10
ATOM     10  C   UNL d   1      32.306  17.214 -24.266  0.00  0.00     0.010 C 
BRANCH  10  11
ATOM     11  C   UNL d   1      32.540  17.877 -23.833  0.00  0.00     0.000 A 
ATOM     12  C   UNL d   1      32.713  17.801 -23.037  0.00  0.00     0.002 A 
ATOM     13  C   UNL d   1      32.944  18.456 -22.610  0.00  0.00     0.030 A 
ATOM     14  C   UNL d   1      33.004  19.196 -22.981  0.00  0.00     0.140 A 
ATOM     15  C   UNL d   1      32.830  19.271 -23.777  0.00  0.00     0.030 A 
ATOM     16  F   UNL d   1      33.241  19.887 -22.561  0.00  0.00    -0.204 F 
ATOM     17  C   UNL d   1      32.599  18.616 -24.205  0.00  0.00     0.002 A 
ENDBRANCH  10  11
ENDBRANCH   1  10
TORSDOF 2
ENDMDL
MODEL 4
REMARK VINA RESULT:      -1.5      2.552      3.570
REMARK  2 active torsions:
REMARK  status: ('A' for Active; 'I' for Inactive)
REMARK    1  A    between atoms: C_7  and  C_1 
REMARK    2  A    between atoms: C_11  and  C_7 
ROOT
ATOM      1  C   UNL d   1      33.235  19.789 -23.714  0.00  0.00     0.116 A 
ATOM      2  N   UNL d   1      33.224  21.209 -23.718  0.00  0.00    -0.152 NA
ATOM      3  N   UNL d   1      33.228  20.488 -22.464  0.00  0.00    -0.152 NA
ATOM      4  C   UNL d   1      33.230  20.491 -24.106  0.00  0.00     0.288 A 
ATOM      5  C   UNL d   1      33.234  19.786 -22.888  0.00  0.00     0.288 A 
ATOM      6  C   UNL d   1      33.224  21.206 -22.870  0.00  0.00     0.374 A 
ATOM      7  O   UNL d   1      33.239  19.067 -22.458  0.00  0.00    -0.265 OA
ATOM      8  O   UNL d   1      33.231  20.483 -24.945  0.00  0.00    -0.265 OA
ATOM      9  O   UNL d   1      33.218  21.908 -22.421  0.00  0.00    -0.242 OA
ENDROOT
BRANCH   1  10
ATOM     10  C   UNL d   1      33.241  19.063 -24.134  0.00  0.00     0.010 C 
BRANCH  10  11
ATOM     11  C   UNL d   1      32.522  18.682 -24.271  0.00  0.00     0.000 A 
ATOM     12  C   UNL d   1      32.065  18.898 -24.914  0.00  0.00     0.002 A 
ATOM     13  C   UNL d   1      31.354  18.522 -25.050  0.00  0.00     0.030 A 
ATOM     14  C   UNL d   1      31.096  17.923 -24.537  0.00  0.00     0.140 A 
ATOM     15  C   UNL d   1      31.553  17.707 -23.894  0.00  0.00     0.030 A 
ATOM     16  F   UNL d   1      30.365  17.519 -24.656  0.00  0.00    -0.204 F 
ATOM     17  C   UNL d   1      32.264  18.083 -23.758  0.00  0.00     0.002 A 
ENDBRANCH  10  11
ENDBRANCH   1  10
TORSDOF 2
ENDMDL
