MODEL 1
REMARK VINA RESULT:      -3.0      0.000      0.000
REMARK  2 active torsions:
REMARK  status: ('A' for Active; 'I' for Inactive)
REMARK    1  A    between atoms: C_9  and  N_1 
REMARK    2  A    between atoms: C_2  and  C_10 
ROOT
ATOM      1  C   UNL d   1      32.657  21.727 -21.166  0.00  0.00     0.070 A 
ATOM      2  C   UNL d   1      32.834  20.350 -22.092  0.00  0.00     0.024 A 
ATOM      3  C   UNL d   1      33.151  21.732 -21.819  0.00  0.00     0.018 A 
ATOM      4  C   UNL d   1      32.242  21.055 -20.953  0.00  0.00     0.018 A 
ATOM      5  C   UNL d   1      33.241  21.033 -22.289  0.00  0.00     0.004 A 
ATOM      6  C   UNL d   1      32.332  20.359 -21.421  0.00  0.00     0.004 A 
ENDROOT
BRANCH   2   7
ATOM      7  C   UNL d   1      32.907  19.780 -22.475  0.00  0.00     0.111 A 
ATOM      8  N   UNL d   1      32.855  19.769 -23.387  0.00  0.00    -0.239 NA
ATOM      9  C   UNL d   1      32.981  18.948 -23.589  0.00  0.00     0.088 A 
ATOM     10  C   UNL d   1      32.992  18.639 -24.298  0.00  0.00     0.020 A 
ATOM     11  C   UNL d   1      33.096  18.502 -22.904  0.00  0.00     0.049 A 
ATOM     12  C   UNL d   1      33.129  17.798 -24.362  0.00  0.00     0.002 A 
ATOM     13  C   UNL d   1      33.241  17.365 -23.695  0.00  0.00     0.001 A 
ATOM     14  C   UNL d   1      33.229  17.695 -22.946  0.00  0.00     0.008 A 
ATOM     15  S   UNL d   1      33.039  19.089 -22.202  0.00  0.00    -0.066 SA
ENDBRANCH   2   7
BRANCH   1  16
ATOM     16  N   UNL d   1      32.568  22.416 -20.703  0.00  0.00    -0.242 N 
ATOM     17  C   UNL d   1      32.174  23.074 -21.002  0.00  0.00     0.267 A 
ATOM     18  C   UNL d   1      32.182  23.653 -20.414  0.00  0.00     0.066 A 
ATOM     19  O   UNL d   1      31.808  23.177 -21.777  0.00  0.00    -0.267 OA
ATOM     20  C   UNL d   1      32.592  23.333 -19.747  0.00  0.00     0.066 A 
ATOM     21  C   UNL d   1      32.826  22.554 -19.949  0.00  0.00     0.267 A 
ATOM     22  O   UNL d   1      33.241  22.042 -19.458  0.00  0.00    -0.267 OA
ENDBRANCH   1  16
TORSDOF 2
ENDMDL
MODEL 2
REMARK VINA RESULT:      -2.5      2.497      5.253
REMARK  2 active torsions:
REMARK  status: ('A' for Active; 'I' for Inactive)
REMARK    1  A    between atoms: C_9  and  N_1 
REMARK    2  A    between atoms: C_2  and  C_10 
ROOT
ATOM      1  C   UNL d   1      32.439  17.519 -23.601  0.00  0.00     0.070 A 
ATOM      2  C   UNL d   1      32.703  18.992 -22.862  0.00  0.00     0.024 A 
ATOM      3  C   UNL d   1      32.864  17.557 -22.902  0.00  0.00     0.018 A 
ATOM      4  C   UNL d   1      32.137  18.193 -23.951  0.00  0.00     0.018 A 
ATOM      5  C   UNL d   1      32.998  18.306 -22.527  0.00  0.00     0.004 A 
ATOM      6  C   UNL d   1      32.271  18.938 -23.578  0.00  0.00     0.004 A 
ENDROOT
BRANCH   2   7
ATOM      7  C   UNL d   1      32.812  19.601 -22.557  0.00  0.00     0.111 A 
ATOM      8  N   UNL d   1      32.892  19.712 -21.654  0.00  0.00    -0.239 NA
ATOM      9  C   UNL d   1      33.019  20.552 -21.560  0.00  0.00     0.088 A 
ATOM     10  C   UNL d   1      33.121  20.937 -20.898  0.00  0.00     0.020 A 
ATOM     11  C   UNL d   1      33.021  20.922 -22.298  0.00  0.00     0.049 A 
ATOM     12  C   UNL d   1      33.240  21.782 -20.944  0.00  0.00     0.002 A 
ATOM     13  C   UNL d   1      33.241  22.141 -21.662  0.00  0.00     0.001 A 
ATOM     14  C   UNL d   1      33.132  21.730 -22.362  0.00  0.00     0.008 A 
ATOM     15  S   UNL d   1      32.882  20.260 -22.918  0.00  0.00    -0.066 SA
ENDBRANCH   2   7
BRANCH   1  16
ATOM     16  N   UNL d   1      32.307  16.782 -23.971  0.00  0.00    -0.242 N 
ATOM     17  C   UNL d   1      31.753  16.254 -23.666  0.00  0.00     0.267 A 
ATOM     18  C   UNL d   1      31.757  15.588 -24.153  0.00  0.00     0.066 A 
ATOM     19  O   UNL d   1      31.247  16.344 -22.973  0.00  0.00    -0.267 OA
ATOM     20  C   UNL d   1      32.327  15.720 -24.763  0.00  0.00     0.066 A 
ATOM     21  C   UNL d   1      32.661  16.477 -24.630  0.00  0.00     0.267 A 
ATOM     22  O   UNL d   1      33.241  16.827 -25.096  0.00  0.00    -0.267 OA
ENDBRANCH   1  16
TORSDOF 2
ENDMDL
MODEL 3
REMARK VINA RESULT:      -2.5      0.548      1.288
REMARK  2 active torsions:
REMARK  status: ('A' for Active; 'I' for Inactive)
REMARK    1  A    between atoms: C_9  and  N_1 
REMARK    2  A    between atoms: C_2  and  C_10 
ROOT
ATOM      1  C   UNL d   1      32.770  21.554 -21.419  0.00  0.00     0.070 A 
ATOM      2  C   UNL d   1      32.867  20.171 -22.348  0.00  0.00     0.024 A 
ATOM      3  C   UNL d   1      33.152  21.573 -22.143  0.00  0.00     0.018 A 
ATOM      4  C   UNL d   1      32.431  20.867 -21.136  0.00  0.00     0.018 A 
ATOM      5  C   UNL d   1      33.201  20.870 -22.615  0.00  0.00     0.004 A 
ATOM      6  C   UNL d   1      32.480  20.167 -21.606  0.00  0.00     0.004 A 
ENDROOT
BRANCH   2   7
ATOM      7  C   UNL d   1      32.908  19.599 -22.732  0.00  0.00     0.111 A 
ATOM      8  N   UNL d   1      32.867  18.752 -22.392  0.00  0.00    -0.239 NA
ATOM      9  C   UNL d   1      32.942  18.251 -23.081  0.00  0.00     0.088 A 
ATOM     10  C   UNL d   1      32.941  17.478 -23.096  0.00  0.00     0.020 A 
ATOM     11  C   UNL d   1      33.018  18.713 -23.760  0.00  0.00     0.049 A 
ATOM     12  C   UNL d   1      33.023  17.097 -23.856  0.00  0.00     0.002 A 
ATOM     13  C   UNL d   1      33.098  17.546 -24.517  0.00  0.00     0.001 A 
ATOM     14  C   UNL d   1      33.099  18.366 -24.497  0.00  0.00     0.008 A 
ATOM     15  S   UNL d   1      32.991  19.587 -23.482  0.00  0.00    -0.066 SA
ENDBRANCH   2   7
BRANCH   1  16
ATOM     16  N   UNL d   1      32.721  22.246 -20.954  0.00  0.00    -0.242 N 
ATOM     17  C   UNL d   1      32.942  22.234 -20.161  0.00  0.00     0.267 A 
ATOM     18  C   UNL d   1      32.829  22.996 -19.864  0.00  0.00     0.066 A 
ATOM     19  O   UNL d   1      33.241  21.572 -19.694  0.00  0.00    -0.267 OA
ATOM     20  C   UNL d   1      32.533  23.474 -20.494  0.00  0.00     0.066 A 
ATOM     21  C   UNL d   1      32.472  22.984 -21.171  0.00  0.00     0.267 A 
ATOM     22  O   UNL d   1      32.206  23.227 -21.910  0.00  0.00    -0.267 OA
ENDBRANCH   1  16
TORSDOF 2
ENDMDL
MODEL 4
REMARK VINA RESULT:      -1.6      1.747      4.858
REMARK  2 active torsions:
REMARK  status: ('A' for Active; 'I' for Inactive)
REMARK    1  A    between atoms: C_9  and  N_1 
REMARK    2  A    between atoms: C_2  and  C_10 
ROOT
ATOM      1  C   UNL d   1      33.059  19.534 -22.939  0.00  0.00     0.070 A 
ATOM      2  C   UNL d   1      33.049  20.838 -21.898  0.00  0.00     0.024 A 
ATOM      3  C   UNL d   1      32.885  19.424 -22.147  0.00  0.00     0.018 A 
ATOM      4  C   UNL d   1      33.230  20.275 -23.237  0.00  0.00     0.018 A 
ATOM      5  C   UNL d   1      32.880  20.087 -21.617  0.00  0.00     0.004 A 
ATOM      6  C   UNL d   1      33.225  20.935 -22.711  0.00  0.00     0.004 A 
ENDROOT
BRANCH   2   7
ATOM      7  C   UNL d   1      33.044  21.377 -21.467  0.00  0.00     0.111 A 
ATOM      8  N   UNL d   1      33.186  21.312 -20.567  0.00  0.00    -0.239 NA
ATOM      9  C   UNL d   1      33.125  22.118 -20.291  0.00  0.00     0.088 A 
ATOM     10  C   UNL d   1      33.201  22.369 -19.563  0.00  0.00     0.020 A 
ATOM     11  C   UNL d   1      32.967  22.623 -20.924  0.00  0.00     0.049 A 
ATOM     12  C   UNL d   1      33.116  23.207 -19.421  0.00  0.00     0.002 A 
ATOM     13  C   UNL d   1      32.963  23.698 -20.038  0.00  0.00     0.001 A 
ATOM     14  C   UNL d   1      32.883  23.429 -20.808  0.00  0.00     0.008 A 
ATOM     15  S   UNL d   1      32.924  22.093 -21.671  0.00  0.00    -0.066 SA
ENDBRANCH   2   7
BRANCH   1  16
ATOM     16  N   UNL d   1      33.065  18.882 -23.460  0.00  0.00    -0.242 N 
ATOM     17  C   UNL d   1      33.149  18.115 -23.171  0.00  0.00     0.267 A 
ATOM     18  C   UNL d   1      33.132  17.605 -23.820  0.00  0.00     0.066 A 
ATOM     19  O   UNL d   1      33.241  17.854 -22.354  0.00  0.00    -0.267 OA
ATOM     20  C   UNL d   1      33.035  18.078 -24.514  0.00  0.00     0.066 A 
ATOM     21  C   UNL d   1      32.995  18.878 -24.266  0.00  0.00     0.267 A 
ATOM     22  O   UNL d   1      32.901  19.524 -24.765  0.00  0.00    -0.267 OA
ENDBRANCH   1  16
TORSDOF 2
ENDMDL
