MODEL 1
REMARK VINA RESULT:      -5.9      0.000      0.000
REMARK  4 active torsions:
REMARK  status: ('A' for Active; 'I' for Inactive)
REMARK    1  A    between atoms: N_7  and  S_1 
REMARK    2  A    between atoms: C_11  and  S_1 
REMARK    3  A    between atoms: C_14  and  N_7 
REMARK    4  A    between atoms: C_13  and  C_14 
ROOT
ATOM      1  N   UNL d   1      55.733  -0.625  33.091  0.00  0.00    -0.304 N 
ATOM      2  C   UNL d   1      55.499   0.130  33.344  0.00  0.00     0.064 A 
ATOM      3  C   UNL d   1      56.249  -0.529  32.450  0.00  0.00     0.064 A 
ATOM      4  C   UNL d   1      56.332   0.280  32.310  0.00  0.00     0.018 A 
ATOM      5  C   UNL d   1      55.871   0.681  32.860  0.00  0.00     0.019 A 
ATOM      6  C   UNL d   1      56.649  -1.076  31.981  0.00  0.00     0.018 A 
ATOM      7  C   UNL d   1      56.821   0.545  31.695  0.00  0.00     0.003 A 
ATOM      8  C   UNL d   1      57.221  -0.002  31.227  0.00  0.00     0.020 A 
ATOM      9  C   UNL d   1      57.135  -0.814  31.371  0.00  0.00     0.003 A 
ATOM     10  C   UNL d   1      55.496  -1.338  33.415  0.00  0.00     0.099 C 
ATOM     11  C   UNL d   1      54.985   0.287  33.970  0.00  0.00     0.019 C 
ENDROOT
BRANCH   8  12
ATOM     12  C   UNL d   1      57.708   0.268  30.614  0.00  0.00     0.112 C 
BRANCH  12  13
ATOM     13  N   UNL d   1      57.992  -0.270  30.049  0.00  0.00    -0.157 NA
BRANCH  13  14
ATOM     14  S   UNL d   1      58.492  -0.011  29.447  0.00  0.00     0.285 S 
ATOM     15  O   UNL d   1      58.856   0.420  28.846  0.00  0.00    -0.198 OA
ATOM     16  O   UNL d   1      57.926   0.591  29.529  0.00  0.00    -0.198 OA
BRANCH  14  17
ATOM     17  C   UNL d   1      59.132  -0.475  29.211  0.00  0.00     0.105 A 
ATOM     18  C   UNL d   1      58.999  -1.129  28.741  0.00  0.00     0.013 A 
ATOM     19  C   UNL d   1      59.639  -1.596  28.502  0.00  0.00     0.001 A 
ATOM     20  C   UNL d   1      60.408  -1.396  28.741  0.00  0.00     0.000 A 
ATOM     21  C   UNL d   1      60.529  -0.734  29.215  0.00  0.00     0.001 A 
ATOM     22  C   UNL d   1      59.894  -0.273  29.451  0.00  0.00     0.013 A 
ENDBRANCH  14  17
ENDBRANCH  13  14
ENDBRANCH  12  13
ENDBRANCH   8  12
TORSDOF 4
ENDMDL
MODEL 2
REMARK VINA RESULT:      -4.9      0.962      1.317
REMARK  4 active torsions:
REMARK  status: ('A' for Active; 'I' for Inactive)
REMARK    1  A    between atoms: N_7  and  S_1 
REMARK    2  A    between atoms: C_11  and  S_1 
REMARK    3  A    between atoms: C_14  and  N_7 
REMARK    4  A    between atoms: C_13  and  C_14 
ROOT
ATOM      1  N   UNL d   1      56.702   0.206  33.213  0.00  0.00    -0.304 N 
ATOM      2  C   UNL d   1      56.098  -0.361  33.173  0.00  0.00     0.064 A 
ATOM      3  C   UNL d   1      57.099   0.205  32.486  0.00  0.00     0.064 A 
ATOM      4  C   UNL d   1      56.741  -0.359  32.002  0.00  0.00     0.018 A 
ATOM      5  C   UNL d   1      56.127  -0.705  32.426  0.00  0.00     0.019 A 
ATOM      6  C   UNL d   1      57.738   0.646  32.209  0.00  0.00     0.018 A 
ATOM      7  C   UNL d   1      57.025  -0.484  31.233  0.00  0.00     0.003 A 
ATOM      8  C   UNL d   1      57.663  -0.043  30.957  0.00  0.00     0.020 A 
ATOM      9  C   UNL d   1      58.020   0.523  31.446  0.00  0.00     0.003 A 
ATOM     10  C   UNL d   1      56.876   0.682  33.855  0.00  0.00     0.099 C 
ATOM     11  C   UNL d   1      55.568  -0.540  33.780  0.00  0.00     0.019 C 
ENDROOT
BRANCH   8  12
ATOM     12  C   UNL d   1      57.942  -0.172  30.188  0.00  0.00     0.112 C 
BRANCH  12  13
ATOM     13  N   UNL d   1      58.479  -0.788  30.044  0.00  0.00    -0.157 NA
BRANCH  13  14
ATOM     14  S   UNL d   1      58.707  -0.965  29.273  0.00  0.00     0.285 S 
ATOM     15  O   UNL d   1      58.813  -0.967  28.455  0.00  0.00    -0.198 OA
ATOM     16  O   UNL d   1      58.225  -0.293  29.204  0.00  0.00    -0.198 OA
BRANCH  14  17
ATOM     17  C   UNL d   1      59.199  -1.611  29.123  0.00  0.00     0.105 A 
ATOM     18  C   UNL d   1      58.869  -2.355  29.047  0.00  0.00     0.013 A 
ATOM     19  C   UNL d   1      59.360  -3.004  28.897  0.00  0.00     0.001 A 
ATOM     20  C   UNL d   1      60.179  -2.895  28.826  0.00  0.00     0.000 A 
ATOM     21  C   UNL d   1      60.499  -2.140  28.905  0.00  0.00     0.001 A 
ATOM     22  C   UNL d   1      60.012  -1.498  29.053  0.00  0.00     0.013 A 
ENDBRANCH  14  17
ENDBRANCH  13  14
ENDBRANCH  12  13
ENDBRANCH   8  12
TORSDOF 4
ENDMDL
MODEL 3
REMARK VINA RESULT:      -3.7      9.326     10.242
REMARK  4 active torsions:
REMARK  status: ('A' for Active; 'I' for Inactive)
REMARK    1  A    between atoms: N_7  and  S_1 
REMARK    2  A    between atoms: C_11  and  S_1 
REMARK    3  A    between atoms: C_14  and  N_7 
REMARK    4  A    between atoms: C_13  and  C_14 
ROOT
ATOM      1  N   UNL d   1      57.758  -9.739  30.433  0.00  0.00    -0.304 N 
ATOM      2  C   UNL d   1      58.380  -9.724  29.884  0.00  0.00     0.064 A 
ATOM      3  C   UNL d   1      58.090  -9.760  31.192  0.00  0.00     0.064 A 
ATOM      4  C   UNL d   1      58.911  -9.759  31.110  0.00  0.00     0.018 A 
ATOM      5  C   UNL d   1      59.086  -9.737  30.307  0.00  0.00     0.019 A 
ATOM      6  C   UNL d   1      57.747  -9.781  31.940  0.00  0.00     0.018 A 
ATOM      7  C   UNL d   1      59.394  -9.778  31.784  0.00  0.00     0.003 A 
ATOM      8  C   UNL d   1      59.051  -9.799  32.531  0.00  0.00     0.020 A 
ATOM      9  C   UNL d   1      58.225  -9.800  32.610  0.00  0.00     0.003 A 
ATOM     10  C   UNL d   1      56.959  -9.733  30.258  0.00  0.00     0.099 C 
ATOM     11  C   UNL d   1      58.293  -9.701  29.064  0.00  0.00     0.019 C 
ENDROOT
BRANCH   8  12
ATOM     12  C   UNL d   1      59.537  -9.818  33.201  0.00  0.00     0.112 C 
BRANCH  12  13
ATOM     13  N   UNL d   1      59.619  -9.137  33.668  0.00  0.00    -0.157 NA
BRANCH  13  14
ATOM     14  S   UNL d   1      60.061  -9.163  34.363  0.00  0.00     0.285 S 
ATOM     15  O   UNL d   1      60.617  -9.340  34.946  0.00  0.00    -0.198 OA
ATOM     16  O   UNL d   1      60.420  -9.717  33.860  0.00  0.00    -0.198 OA
BRANCH  14  17
ATOM     17  C   UNL d   1      59.863  -8.677  35.000  0.00  0.00     0.105 A 
ATOM     18  C   UNL d   1      60.221  -7.947  35.073  0.00  0.00     0.013 A 
ATOM     19  C   UNL d   1      60.024  -7.459  35.712  0.00  0.00     0.001 A 
ATOM     20  C   UNL d   1      59.466  -7.714  36.269  0.00  0.00     0.000 A 
ATOM     21  C   UNL d   1      59.111  -8.453  36.184  0.00  0.00     0.001 A 
ATOM     22  C   UNL d   1      59.307  -8.935  35.552  0.00  0.00     0.013 A 
ENDBRANCH  14  17
ENDBRANCH  13  14
ENDBRANCH  12  13
ENDBRANCH   8  12
TORSDOF 4
ENDMDL
