MODEL 1
REMARK VINA RESULT:       0.4      0.000      0.000
REMARK  5 active torsions:
REMARK  status: ('A' for Active; 'I' for Inactive)
REMARK    1  A    between atoms: O_4  and  C_1 
REMARK    2  A    between atoms: C_9  and  C_2 
REMARK    3  A    between atoms: C_5  and  O_4 
REMARK    4  A    between atoms: C_13  and  C_5 
REMARK    5  A    between atoms: N_10  and  C_9 
ROOT
ATOM      1  C   UNL d   1      32.016  17.710 -23.988  0.00  0.00     0.122 A 
ATOM      2  C   UNL d   1      31.484  17.624 -24.605  0.00  0.00     0.043 A 
ATOM      3  C   UNL d   1      32.365  17.051 -23.649  0.00  0.00     0.105 A 
ATOM      4  C   UNL d   1      32.179  16.297 -23.930  0.00  0.00     0.030 A 
ATOM      5  C   UNL d   1      31.647  16.211 -24.547  0.00  0.00     0.059 A 
ATOM      6  C   UNL d   1      31.299  16.870 -24.886  0.00  0.00     0.015 A 
ATOM      7  N   UNL d   1      32.892  17.140 -23.037  0.00  0.00    -0.242 NA
ATOM      8 CL   UNL d   1      31.480  15.453 -24.809  0.00  0.00    -0.082 Cl
ATOM      9  C   UNL d   1      32.523  15.641 -23.596  0.00  0.00     0.004 A 
ATOM     10  C   UNL d   1      33.241  16.481 -22.698  0.00  0.00     0.099 A 
ATOM     11  C   UNL d   1      33.055  15.727 -22.980  0.00  0.00     0.021 A 
ENDROOT
BRANCH   1  12
ATOM     12  O   UNL d   1      32.190  18.384 -23.727  0.00  0.00    -0.271 OA
BRANCH  12  13
ATOM     13  C   UNL d   1      32.739  19.139 -23.934  0.00  0.00     0.300 C 
ATOM     14  O   UNL d   1      33.151  19.117 -24.842  0.00  0.00    -0.259 OA
BRANCH  13  15
ATOM     15  C   UNL d   1      32.852  19.750 -23.390  0.00  0.00     0.064 A 
ATOM     16  C   UNL d   1      33.105  20.491 -23.656  0.00  0.00     0.005 A 
ATOM     17  C   UNL d   1      33.218  21.103 -23.109  0.00  0.00     0.000 A 
ATOM     18  C   UNL d   1      33.077  20.978 -22.297  0.00  0.00     0.000 A 
ATOM     19  C   UNL d   1      32.824  20.233 -22.044  0.00  0.00     0.000 A 
ATOM     20  C   UNL d   1      32.712  19.620 -22.592  0.00  0.00     0.005 A 
ENDBRANCH  13  15
ENDBRANCH  12  13
ENDBRANCH   1  12
BRANCH   2  21
ATOM     21  C   UNL d   1      31.009  18.215 -25.095  0.00  0.00     0.082 C 
BRANCH  21  22
ATOM     22  N   UNL d   1      30.206  18.267 -25.009  0.00  0.00    -0.299 N 
ATOM     23  C   UNL d   1      29.855  18.977 -24.835  0.00  0.00     0.107 A 
ATOM     24  C   UNL d   1      29.036  19.034 -24.746  0.00  0.00     0.142 A 
ATOM     25  O   UNL d   1      28.576  18.363 -24.836  0.00  0.00    -0.300 OA
ATOM     26  C   UNL d   1      28.932  17.643 -25.013  0.00  0.00     0.142 A 
ATOM     27  C   UNL d   1      29.741  17.601 -25.097  0.00  0.00     0.107 A 
ENDBRANCH  21  22
ENDBRANCH   2  21
TORSDOF 5
ENDMDL
