MODEL 1
REMARK VINA RESULT:      -1.3      0.000      0.000
REMARK  5 active torsions:
REMARK  status: ('A' for Active; 'I' for Inactive)
REMARK    1  A    between atoms: C_11  and  C_1 
REMARK    2  A    between atoms: C_14  and  N_4 
REMARK    3  A    between atoms: C_5  and  S_12 
REMARK    4  A    between atoms: C_16  and  C_11 
REMARK    5  A    between atoms: S_12  and  C_16 
ROOT
ATOM      1  C   UNL d   1     -41.464-122.573 -50.891  0.00  0.00     0.057 A 
ATOM      2  C   UNL d   1     -41.855-123.075 -50.353  0.00  0.00     0.067 A 
ATOM      3  N   UNL d   1     -41.808-122.736 -49.613  0.00  0.00    -0.306 N 
ATOM      4  C   UNL d   1     -41.387-122.017 -49.672  0.00  0.00     0.064 A 
ATOM      5  C   UNL d   1     -41.180-121.929 -50.474  0.00  0.00     0.022 A 
ATOM      6  C   UNL d   1     -42.239-123.817 -50.540  0.00  0.00     0.019 C 
ATOM      7  C   UNL d   1     -41.210-121.490 -49.052  0.00  0.00     0.019 C 
ENDROOT
BRANCH   1   8
ATOM      8  C   UNL d   1     -41.429-122.786 -51.683  0.00  0.00     0.204 C 
ATOM      9  O   UNL d   1     -41.159-123.532 -51.877  0.00  0.00    -0.286 OA
BRANCH   8  10
ATOM     10  C   UNL d   1     -41.664-122.256 -52.275  0.00  0.00     0.080 C 
BRANCH  10  11
ATOM     11  S   UNL d   1     -41.349-122.307 -53.029  0.00  0.00    -0.044 SA
BRANCH  11  12
ATOM     12  C   UNL d   1     -41.707-121.913 -53.663  0.00  0.00     0.201 A 
ATOM     13  N   UNL d   1     -41.966-122.226 -54.371  0.00  0.00    -0.268 N 
ATOM     14  C   UNL d   1     -42.286-121.609 -54.829  0.00  0.00     0.171 A 
ATOM     15  C   UNL d   1     -41.957-123.009 -54.679  0.00  0.00     0.084 A 
ATOM     16  C   UNL d   1     -42.596-121.772 -55.588  0.00  0.00     0.039 A 
ATOM     17  N   UNL d   1     -42.217-120.925 -54.390  0.00  0.00    -0.128 NA
ATOM     18  C   UNL d   1     -42.588-122.539 -55.890  0.00  0.00     0.005 A 
ATOM     19  C   UNL d   1     -42.270-123.144 -55.433  0.00  0.00     0.019 A 
ATOM     20  N   UNL d   1     -41.868-121.110 -53.689  0.00  0.00    -0.121 NA
ENDBRANCH  11  12
ENDBRANCH  10  11
ENDBRANCH   8  10
ENDBRANCH   1   8
BRANCH   3  21
ATOM     21  C   UNL d   1     -42.095-122.985 -48.870  0.00  0.00     0.064 A 
ATOM     22  C   UNL d   1     -41.613-122.933 -48.202  0.00  0.00     0.018 A 
ATOM     23  C   UNL d   1     -41.896-123.178 -47.470  0.00  0.00     0.002 A 
ATOM     24  C   UNL d   1     -42.653-123.473 -47.402  0.00  0.00     0.000 A 
ATOM     25  C   UNL d   1     -43.142-123.528 -48.074  0.00  0.00     0.002 A 
ATOM     26  C   UNL d   1     -42.854-123.282 -48.799  0.00  0.00     0.018 A 
ENDBRANCH   3  21
TORSDOF 5
ENDMDL
