MODEL 1
REMARK VINA RESULT:      38.4      0.000      0.000
REMARK  4 active torsions:
REMARK  status: ('A' for Active; 'I' for Inactive)
REMARK    1  A    between atoms: N_4  and  S_1 
REMARK    2  A    between atoms: C_6  and  S_1 
REMARK    3  A    between atoms: N_3  and  C_2 
REMARK    4  A    between atoms: C_7  and  N_4 
ROOT
ATOM      1  S   UNL d   1      59.327  49.660  50.965  0.00  0.00     0.285 S 
ATOM      2  O   UNL d   1      59.384  49.708  50.118  0.00  0.00    -0.198 OA
ATOM      3  O   UNL d   1      59.311  49.614  51.800  0.00  0.00    -0.198 OA
ENDROOT
BRANCH   1   4
ATOM      4  N   UNL d   1      60.177  49.690  51.011  0.00  0.00    -0.158 NA
BRANCH   4   5
ATOM      5  C   UNL d   1      60.638  49.043  50.741  0.00  0.00     0.094 A 
ATOM      6  C   UNL d   1      60.999  49.101  49.990  0.00  0.00     0.023 A 
ATOM      7  C   UNL d   1      61.461  48.452  49.720  0.00  0.00     0.044 A 
ATOM      8  C   UNL d   1      61.535  47.785  50.217  0.00  0.00     0.196 A 
ATOM      9  C   UNL d   1      61.179  47.738  50.950  0.00  0.00     0.044 A 
ATOM     10  O   UNL d   1      62.000  47.133  49.945  0.00  0.00    -0.287 OA
ATOM     11  C   UNL d   1      60.716  48.387  51.220  0.00  0.00     0.023 A 
ENDBRANCH   4   5
ENDBRANCH   1   4
BRANCH   1  12
ATOM     12  C   UNL d   1      58.499  49.630  50.926  0.00  0.00     0.107 A 
ATOM     13  C   UNL d   1      58.142  49.519  50.191  0.00  0.00     0.037 A 
ATOM     14  C   UNL d   1      57.319  49.489  50.155  0.00  0.00     0.138 A 
ATOM     15  C   UNL d   1      56.870  49.567  50.828  0.00  0.00     0.080 A 
ATOM     16  C   UNL d   1      57.226  49.678  51.564  0.00  0.00     0.014 A 
ATOM     17 CL   UNL d   1      56.037  49.537  50.786  0.00  0.00    -0.081 Cl
ATOM     18  C   UNL d   1      58.049  49.708  51.599  0.00  0.00     0.014 A 
BRANCH  14  19
ATOM     19  N   UNL d   1      56.953  49.377  49.414  0.00  0.00    -0.113 N 
ATOM     20  O   UNL d   1      57.322  48.929  48.830  0.00  0.00    -0.532 OA
ATOM     21  O   UNL d   1      56.229  49.708  49.259  0.00  0.00    -0.532 OA
ENDBRANCH  14  19
ENDBRANCH   1  12
TORSDOF 4
ENDMDL
