MODEL 1
REMARK VINA RESULT:       0.5      0.000      0.000
REMARK  6 active torsions:
REMARK  status: ('A' for Active; 'I' for Inactive)
REMARK    1  A    between atoms: N_13  and  C_2 
REMARK    2  A    between atoms: C_22  and  C_5 
REMARK    3  A    between atoms: C_23  and  C_6 
REMARK    4  A    between atoms: C_7  and  S_17 
REMARK       I    between atoms: C_16  and  N_13 
REMARK    5  A    between atoms: C_25  and  C_16 
REMARK    6  A    between atoms: S_17  and  C_25 
ROOT
ATOM      1  C   UNL d   1      57.213   0.670  33.247  0.00  0.00     0.092 A 
ATOM      2  C   UNL d   1      55.955   0.664  33.916  0.00  0.00     0.057 A 
ATOM      3  C   UNL d   1      56.774   0.666  33.947  0.00  0.00     0.016 A 
ATOM      4  C   UNL d   1      56.826   0.672  32.523  0.00  0.00     0.120 A 
ATOM      5  N   UNL d   1      56.002   0.670  32.488  0.00  0.00    -0.239 NA
ATOM      6  C   UNL d   1      55.564   0.666  33.188  0.00  0.00     0.081 A 
ATOM      7  C   UNL d   1      55.525   0.660  34.617  0.00  0.00     0.193 A 
ATOM      8  C   UNL d   1      58.037   0.672  33.282  0.00  0.00     0.103 C 
ATOM      9  N   UNL d   1      58.861   0.674  33.305  0.00  0.00    -0.191 NA
ATOM     10  C   UNL d   1      54.302   0.659  33.857  0.00  0.00     0.042 A 
ATOM     11  C   UNL d   1      54.688   0.658  34.593  0.00  0.00     0.019 A 
ATOM     12  C   UNL d   1      54.741   0.663  33.152  0.00  0.00    -0.003 A 
ATOM     13  O   UNL d   1      55.911   0.658  35.349  0.00  0.00    -0.287 OA
ATOM     14  C   UNL d   1      53.727   0.660  33.267  0.00  0.00     0.009 C 
ATOM     15  C   UNL d   1      53.867   0.655  34.566  0.00  0.00     0.009 C 
ENDROOT
BRANCH   4  16
ATOM     16  S   UNL d   1      57.264   0.676  31.823  0.00  0.00    -0.062 SA
BRANCH  16  17
ATOM     17  C   UNL d   1      57.044   0.188  31.191  0.00  0.00     0.100 C 
BRANCH  17  18
ATOM     18  C   UNL d   1      57.625  -0.137  30.704  0.00  0.00     0.302 C 
ATOM     19  N   UNL d   1      57.479  -0.827  30.288  0.00  0.00    -0.018 NA
ATOM     20  O   UNL d   1      58.356   0.231  30.635  0.00  0.00    -0.264 OA
BRANCH  19  21
ATOM     21  C   UNL d   1      58.070  -1.156  29.794  0.00  0.00     0.760 A 
ATOM     22  N   UNL d   1      58.630  -1.717  30.016  0.00  0.00    -0.051 NA
ATOM     23  C   UNL d   1      59.093  -1.879  29.361  0.00  0.00     0.147 A 
ATOM     24  S   UNL d   1      58.821  -1.422  28.741  0.00  0.00     0.052 SA
ATOM     25  N   UNL d   1      58.187  -0.975  29.010  0.00  0.00    -0.019 NA
BRANCH  23  26
ATOM     26  C   UNL d   1      59.729  -2.402  29.297  0.00  0.00     0.026 A 
ATOM     27  C   UNL d   1      59.594  -3.190  29.099  0.00  0.00     0.002 A 
ATOM     28  C   UNL d   1      60.233  -3.714  29.035  0.00  0.00     0.000 A 
ATOM     29  C   UNL d   1      60.999  -3.455  29.166  0.00  0.00     0.000 A 
ATOM     30  C   UNL d   1      61.133  -2.667  29.363  0.00  0.00     0.000 A 
ATOM     31  C   UNL d   1      60.495  -2.135  29.429  0.00  0.00     0.002 A 
ENDBRANCH  23  26
ENDBRANCH  19  21
ENDBRANCH  17  18
ENDBRANCH  16  17
ENDBRANCH   4  16
BRANCH   3  32
ATOM     32  C   UNL d   1      57.162   0.664  34.670  0.00  0.00     0.001 A 
ATOM     33  C   UNL d   1      56.723   0.647  35.371  0.00  0.00     0.000 A 
ATOM     34  C   UNL d   1      57.111   0.646  36.094  0.00  0.00     0.000 A 
ATOM     35  C   UNL d   1      57.934   0.660  36.130  0.00  0.00     0.000 A 
ATOM     36  C   UNL d   1      58.372   0.677  35.430  0.00  0.00     0.000 A 
ATOM     37  C   UNL d   1      57.986   0.679  34.698  0.00  0.00     0.000 A 
ENDBRANCH   3  32
TORSDOF 6
ENDMDL
