MODEL 1
REMARK VINA RESULT:      -6.1      0.000      0.000
REMARK  6 active torsions:
REMARK  status: ('A' for Active; 'I' for Inactive)
REMARK    1  A    between atoms: N_2  and  S_1 
REMARK    2  A    between atoms: C_8  and  S_1 
REMARK    3  A    between atoms: C_4  and  C_3 
REMARK    4  A    between atoms: O_18  and  C_5 
REMARK    5  A    between atoms: O_20  and  C_12 
REMARK    6  A    between atoms: O_21  and  C_13 
ROOT
ATOM      1  N   UNL d   1      53.067  33.939  54.021  0.00  0.00    -0.127 NA
ATOM      2  C   UNL d   1      53.485  33.334  54.388  0.00  0.00     0.086 A 
ATOM      3  S   UNL d   1      53.835  33.461  55.119  0.00  0.00    -0.073 SA
ATOM      4  C   UNL d   1      53.346  34.807  55.114  0.00  0.00     0.074 A 
ATOM      5  C   UNL d   1      53.764  34.201  55.481  0.00  0.00     0.050 A 
ENDROOT
BRANCH   2   6
ATOM      6  C   UNL d   1      53.554  32.595  54.025  0.00  0.00     0.042 A 
ATOM      7  C   UNL d   1      54.244  32.409  53.619  0.00  0.00     0.098 A 
ATOM      8  C   UNL d   1      54.307  31.673  53.260  0.00  0.00     0.050 A 
ATOM      9  C   UNL d   1      53.699  31.130  53.302  0.00  0.00     0.118 A 
ATOM     10  C   UNL d   1      53.008  31.321  53.711  0.00  0.00     0.117 A 
ATOM     11  C   UNL d   1      52.933  32.057  54.075  0.00  0.00     0.030 A 
BRANCH   7  12
ATOM     12  O   UNL d   1      54.863  32.949  53.571  0.00  0.00    -0.328 OA
ATOM     13  C   UNL d   1      55.495  32.803  53.063  0.00  0.00     0.181 C 
ENDBRANCH   7  12
BRANCH   9  14
ATOM     14  O   UNL d   1      53.767  30.399  52.943  0.00  0.00    -0.326 OA
ATOM     15  C   UNL d   1      54.299  29.841  53.231  0.00  0.00     0.181 C 
ENDBRANCH   9  14
BRANCH  10  16
ATOM     16  O   UNL d   1      52.391  30.780  53.757  0.00  0.00    -0.326 OA
ATOM     17  C   UNL d   1      51.663  30.950  53.415  0.00  0.00     0.181 C 
ENDBRANCH  10  16
ENDBRANCH   2   6
BRANCH   1  18
ATOM     18  S   UNL d   1      52.663  34.730  53.804  0.00  0.00     0.255 S 
ATOM     19  O   UNL d   1      52.432  35.603  53.747  0.00  0.00    -0.205 OA
ATOM     20  O   UNL d   1      53.231  35.170  54.358  0.00  0.00    -0.205 OA
BRANCH  18  21
ATOM     21  C   UNL d   1      52.004  34.566  53.215  0.00  0.00     0.099 A 
ATOM     22  C   UNL d   1      51.153  34.460  53.498  0.00  0.00     0.015 A 
ATOM     23  C   UNL d   1      50.496  34.296  52.919  0.00  0.00     0.030 A 
ATOM     24  C   UNL d   1      50.680  34.236  52.041  0.00  0.00     0.140 A 
ATOM     25  C   UNL d   1      51.530  34.340  51.746  0.00  0.00     0.030 A 
ATOM     26  F   UNL d   1      50.019  34.070  51.439  0.00  0.00    -0.204 F 
ATOM     27  C   UNL d   1      52.199  34.507  52.334  0.00  0.00     0.015 A 
ENDBRANCH  18  21
ENDBRANCH   1  18
TORSDOF 6
ENDMDL
MODEL 2
REMARK VINA RESULT:      -5.1      1.695      3.594
REMARK  6 active torsions:
REMARK  status: ('A' for Active; 'I' for Inactive)
REMARK    1  A    between atoms: N_2  and  S_1 
REMARK    2  A    between atoms: C_8  and  S_1 
REMARK    3  A    between atoms: C_4  and  C_3 
REMARK    4  A    between atoms: O_18  and  C_5 
REMARK    5  A    between atoms: O_20  and  C_12 
REMARK    6  A    between atoms: O_21  and  C_13 
ROOT
ATOM      1  N   UNL d   1      53.474  32.981  53.897  0.00  0.00    -0.127 NA
ATOM      2  C   UNL d   1      52.989  33.616  54.091  0.00  0.00     0.086 A 
ATOM      3  S   UNL d   1      53.183  34.103  54.722  0.00  0.00    -0.073 SA
ATOM      4  C   UNL d   1      54.353  33.314  54.965  0.00  0.00     0.074 A 
ATOM      5  C   UNL d   1      53.868  33.949  55.159  0.00  0.00     0.050 A 
ENDROOT
BRANCH   2   6
ATOM      6  C   UNL d   1      52.305  33.768  53.653  0.00  0.00     0.042 A 
ATOM      7  C   UNL d   1      52.316  34.359  53.081  0.00  0.00     0.098 A 
ATOM      8  C   UNL d   1      51.632  34.505  52.649  0.00  0.00     0.050 A 
ATOM      9  C   UNL d   1      50.952  34.075  52.779  0.00  0.00     0.118 A 
ATOM     10  C   UNL d   1      50.946  33.483  53.354  0.00  0.00     0.117 A 
ATOM     11  C   UNL d   1      51.625  33.326  53.794  0.00  0.00     0.030 A 
BRANCH   7  12
ATOM     12  O   UNL d   1      52.997  34.798  52.942  0.00  0.00    -0.328 OA
ATOM     13  C   UNL d   1      53.080  35.213  52.235  0.00  0.00     0.181 C 
ENDBRANCH   7  12
BRANCH   9  14
ATOM     14  O   UNL d   1      50.275  34.225  52.346  0.00  0.00    -0.326 OA
ATOM     15  C   UNL d   1      49.845  34.916  52.470  0.00  0.00     0.181 C 
ENDBRANCH   9  14
BRANCH  10  16
ATOM     16  O   UNL d   1      50.263  33.045  53.491  0.00  0.00    -0.326 OA
ATOM     17  C   UNL d   1      50.260  32.232  53.369  0.00  0.00     0.181 C 
ENDBRANCH  10  16
ENDBRANCH   2   6
BRANCH   1  18
ATOM     18  S   UNL d   1      54.137  32.353  53.862  0.00  0.00     0.255 S 
ATOM     19  O   UNL d   1      54.935  31.926  53.880  0.00  0.00    -0.205 OA
ATOM     20  O   UNL d   1      54.750  32.992  54.055  0.00  0.00    -0.205 OA
BRANCH  18  21
ATOM     21  C   UNL d   1      53.769  31.555  53.670  0.00  0.00     0.099 A 
ATOM     22  C   UNL d   1      53.539  30.986  54.331  0.00  0.00     0.015 A 
ATOM     23  C   UNL d   1      53.173  30.194  54.146  0.00  0.00     0.030 A 
ATOM     24  C   UNL d   1      53.032  29.958  53.291  0.00  0.00     0.140 A 
ATOM     25  C   UNL d   1      53.259  30.521  52.619  0.00  0.00     0.030 A 
ATOM     26  F   UNL d   1      52.660  29.153  53.088  0.00  0.00    -0.204 F 
ATOM     27  C   UNL d   1      53.631  31.326  52.806  0.00  0.00     0.015 A 
ENDBRANCH  18  21
ENDBRANCH   1  18
TORSDOF 6
ENDMDL
MODEL 3
REMARK VINA RESULT:      -5.0      1.434      2.939
REMARK  6 active torsions:
REMARK  status: ('A' for Active; 'I' for Inactive)
REMARK    1  A    between atoms: N_2  and  S_1 
REMARK    2  A    between atoms: C_8  and  S_1 
REMARK    3  A    between atoms: C_4  and  C_3 
REMARK    4  A    between atoms: O_18  and  C_5 
REMARK    5  A    between atoms: O_20  and  C_12 
REMARK    6  A    between atoms: O_21  and  C_13 
ROOT
ATOM      1  N   UNL d   1      52.924  32.203  53.322  0.00  0.00    -0.127 NA
ATOM      2  C   UNL d   1      53.553  32.052  53.829  0.00  0.00     0.086 A 
ATOM      3  S   UNL d   1      53.778  31.279  53.986  0.00  0.00    -0.073 SA
ATOM      4  C   UNL d   1      52.737  30.807  53.123  0.00  0.00     0.074 A 
ATOM      5  C   UNL d   1      53.366  30.655  53.630  0.00  0.00     0.050 A 
ENDROOT
BRANCH   2   6
ATOM      6  C   UNL d   1      53.962  32.676  54.184  0.00  0.00     0.042 A 
ATOM      7  C   UNL d   1      54.700  32.891  53.892  0.00  0.00     0.098 A 
ATOM      8  C   UNL d   1      55.102  33.513  54.249  0.00  0.00     0.050 A 
ATOM      9  C   UNL d   1      54.780  33.913  54.883  0.00  0.00     0.118 A 
ATOM     10  C   UNL d   1      54.039  33.694  55.172  0.00  0.00     0.117 A 
ATOM     11  C   UNL d   1      53.626  33.072  54.823  0.00  0.00     0.030 A 
BRANCH   7  12
ATOM     12  O   UNL d   1      55.033  32.494  53.254  0.00  0.00    -0.328 OA
ATOM     13  C   UNL d   1      55.688  32.812  52.869  0.00  0.00     0.181 C 
ENDBRANCH   7  12
BRANCH   9  14
ATOM     14  O   UNL d   1      55.185  34.531  55.234  0.00  0.00    -0.326 OA
ATOM     15  C   UNL d   1      55.939  34.413  55.543  0.00  0.00     0.181 C 
ENDBRANCH   9  14
BRANCH  10  16
ATOM     16  O   UNL d   1      53.708  34.093  55.811  0.00  0.00    -0.326 OA
ATOM     17  C   UNL d   1      53.172  34.703  55.685  0.00  0.00     0.181 C 
ENDBRANCH  10  16
ENDBRANCH   2   6
BRANCH   1  18
ATOM     18  S   UNL d   1      52.218  32.139  52.745  0.00  0.00     0.255 S 
ATOM     19  O   UNL d   1      51.623  31.857  52.123  0.00  0.00    -0.205 OA
ATOM     20  O   UNL d   1      52.509  31.321  52.483  0.00  0.00    -0.205 OA
BRANCH  18  21
ATOM     21  C   UNL d   1      51.723  32.887  52.810  0.00  0.00     0.099 A 
ATOM     22  C   UNL d   1      51.934  33.619  52.325  0.00  0.00     0.015 A 
ATOM     23  C   UNL d   1      51.447  34.363  52.386  0.00  0.00     0.030 A 
ATOM     24  C   UNL d   1      50.737  34.387  52.936  0.00  0.00     0.140 A 
ATOM     25  C   UNL d   1      50.517  33.659  53.426  0.00  0.00     0.030 A 
ATOM     26  F   UNL d   1      50.232  35.140  53.007  0.00  0.00    -0.204 F 
ATOM     27  C   UNL d   1      51.011  32.902  53.366  0.00  0.00     0.015 A 
ENDBRANCH  18  21
ENDBRANCH   1  18
TORSDOF 6
ENDMDL
MODEL 4
REMARK VINA RESULT:      -4.2      1.840      3.791
REMARK  6 active torsions:
REMARK  status: ('A' for Active; 'I' for Inactive)
REMARK    1  A    between atoms: N_2  and  S_1 
REMARK    2  A    between atoms: C_8  and  S_1 
REMARK    3  A    between atoms: C_4  and  C_3 
REMARK    4  A    between atoms: O_18  and  C_5 
REMARK    5  A    between atoms: O_20  and  C_12 
REMARK    6  A    between atoms: O_21  and  C_13 
ROOT
ATOM      1  N   UNL d   1      52.510  32.692  53.364  0.00  0.00    -0.127 NA
ATOM      2  C   UNL d   1      52.872  33.430  53.369  0.00  0.00     0.086 A 
ATOM      3  S   UNL d   1      52.561  34.043  52.921  0.00  0.00    -0.073 SA
ATOM      4  C   UNL d   1      51.519  33.174  52.463  0.00  0.00     0.074 A 
ATOM      5  C   UNL d   1      51.882  33.912  52.468  0.00  0.00     0.050 A 
ENDROOT
BRANCH   2   6
ATOM      6  C   UNL d   1      53.550  33.559  53.822  0.00  0.00     0.042 A 
ATOM      7  C   UNL d   1      53.492  33.990  54.520  0.00  0.00     0.098 A 
ATOM      8  C   UNL d   1      54.171  34.115  54.967  0.00  0.00     0.050 A 
ATOM      9  C   UNL d   1      54.893  33.819  54.728  0.00  0.00     0.118 A 
ATOM     10  C   UNL d   1      54.946  33.387  54.027  0.00  0.00     0.117 A 
ATOM     11  C   UNL d   1      54.273  33.254  53.569  0.00  0.00     0.030 A 
BRANCH   7  12
ATOM     12  O   UNL d   1      52.770  34.292  54.769  0.00  0.00    -0.328 OA
ATOM     13  C   UNL d   1      52.750  34.909  55.315  0.00  0.00     0.181 C 
ENDBRANCH   7  12
BRANCH   9  14
ATOM     14  O   UNL d   1      55.564  33.946  55.176  0.00  0.00    -0.326 OA
ATOM     15  C   UNL d   1      55.510  34.031  55.993  0.00  0.00     0.181 C 
ENDBRANCH   9  14
BRANCH  10  16
ATOM     16  O   UNL d   1      55.670  33.085  53.779  0.00  0.00    -0.326 OA
ATOM     17  C   UNL d   1      55.834  33.006  52.978  0.00  0.00     0.181 C 
ENDBRANCH  10  16
ENDBRANCH   2   6
BRANCH   1  18
ATOM     18  S   UNL d   1      51.960  31.977  53.213  0.00  0.00     0.255 S 
ATOM     19  O   UNL d   1      51.254  31.449  53.010  0.00  0.00    -0.205 OA
ATOM     20  O   UNL d   1      51.287  32.544  52.994  0.00  0.00    -0.205 OA
BRANCH  18  21
ATOM     21  C   UNL d   1      52.420  31.221  53.371  0.00  0.00     0.099 A 
ATOM     22  C   UNL d   1      52.476  30.885  54.207  0.00  0.00     0.015 A 
ATOM     23  C   UNL d   1      52.931  30.136  54.369  0.00  0.00     0.030 A 
ATOM     24  C   UNL d   1      53.340  29.708  53.693  0.00  0.00     0.140 A 
ATOM     25  C   UNL d   1      53.291  30.035  52.851  0.00  0.00     0.030 A 
ATOM     26  F   UNL d   1      53.807  28.942  53.845  0.00  0.00    -0.204 F 
ATOM     27  C   UNL d   1      52.829  30.797  52.685  0.00  0.00     0.015 A 
ENDBRANCH  18  21
ENDBRANCH   1  18
TORSDOF 6
ENDMDL
MODEL 5
REMARK VINA RESULT:      -4.1      1.994      4.308
REMARK  6 active torsions:
REMARK  status: ('A' for Active; 'I' for Inactive)
REMARK    1  A    between atoms: N_2  and  S_1 
REMARK    2  A    between atoms: C_8  and  S_1 
REMARK    3  A    between atoms: C_4  and  C_3 
REMARK    4  A    between atoms: O_18  and  C_5 
REMARK    5  A    between atoms: O_20  and  C_12 
REMARK    6  A    between atoms: O_21  and  C_13 
ROOT
ATOM      1  N   UNL d   1      53.058  32.048  53.675  0.00  0.00    -0.127 NA
ATOM      2  C   UNL d   1      52.539  32.144  53.045  0.00  0.00     0.086 A 
ATOM      3  S   UNL d   1      52.489  31.569  52.463  0.00  0.00    -0.073 SA
ATOM      4  C   UNL d   1      53.482  30.797  53.146  0.00  0.00     0.074 A 
ATOM      5  C   UNL d   1      52.963  30.893  52.516  0.00  0.00     0.050 A 
ENDROOT
BRANCH   2   6
ATOM      6  C   UNL d   1      52.067  32.820  52.993  0.00  0.00     0.042 A 
ATOM      7  C   UNL d   1      51.272  32.772  53.198  0.00  0.00     0.098 A 
ATOM      8  C   UNL d   1      50.807  33.447  53.145  0.00  0.00     0.050 A 
ATOM      9  C   UNL d   1      51.122  34.157  52.894  0.00  0.00     0.118 A 
ATOM     10  C   UNL d   1      51.920  34.200  52.689  0.00  0.00     0.117 A 
ATOM     11  C   UNL d   1      52.398  33.530  52.738  0.00  0.00     0.030 A 
BRANCH   7  12
ATOM     12  O   UNL d   1      50.945  32.062  53.452  0.00  0.00    -0.328 OA
ATOM     13  C   UNL d   1      50.128  31.993  53.535  0.00  0.00     0.181 C 
ENDBRANCH   7  12
BRANCH   9  14
ATOM     14  O   UNL d   1      50.655  34.826  52.842  0.00  0.00    -0.326 OA
ATOM     15  C   UNL d   1      49.842  34.759  52.730  0.00  0.00     0.181 C 
ENDBRANCH   9  14
BRANCH  10  16
ATOM     16  O   UNL d   1      52.246  34.912  52.435  0.00  0.00    -0.326 OA
ATOM     17  C   UNL d   1      52.856  35.263  52.859  0.00  0.00     0.181 C 
ENDBRANCH  10  16
ENDBRANCH   2   6
BRANCH   1  18
ATOM     18  S   UNL d   1      53.685  31.742  54.266  0.00  0.00     0.255 S 
ATOM     19  O   UNL d   1      54.197  31.221  54.802  0.00  0.00    -0.205 OA
ATOM     20  O   UNL d   1      53.369  30.898  54.161  0.00  0.00    -0.205 OA
BRANCH  18  21
ATOM     21  C   UNL d   1      54.178  32.437  54.551  0.00  0.00     0.099 A 
ATOM     22  C   UNL d   1      54.866  32.745  54.055  0.00  0.00     0.015 A 
ATOM     23  C   UNL d   1      55.358  33.434  54.332  0.00  0.00     0.030 A 
ATOM     24  C   UNL d   1      55.167  33.830  55.116  0.00  0.00     0.140 A 
ATOM     25  C   UNL d   1      54.479  33.531  55.622  0.00  0.00     0.030 A 
ATOM     26  F   UNL d   1      55.661  34.535  55.411  0.00  0.00    -0.204 F 
ATOM     27  C   UNL d   1      53.979  32.830  55.341  0.00  0.00     0.015 A 
ENDBRANCH  18  21
ENDBRANCH   1  18
TORSDOF 6
ENDMDL
MODEL 6
REMARK VINA RESULT:      -3.4      1.833      3.251
REMARK  6 active torsions:
REMARK  status: ('A' for Active; 'I' for Inactive)
REMARK    1  A    between atoms: N_2  and  S_1 
REMARK    2  A    between atoms: C_8  and  S_1 
REMARK    3  A    between atoms: C_4  and  C_3 
REMARK    4  A    between atoms: O_18  and  C_5 
REMARK    5  A    between atoms: O_20  and  C_12 
REMARK    6  A    between atoms: O_21  and  C_13 
ROOT
ATOM      1  N   UNL d   1      52.733  33.866  53.547  0.00  0.00    -0.127 NA
ATOM      2  C   UNL d   1      52.429  33.403  52.940  0.00  0.00     0.086 A 
ATOM      3  S   UNL d   1      52.143  33.758  52.257  0.00  0.00    -0.073 SA
ATOM      4  C   UNL d   1      52.468  35.044  52.795  0.00  0.00     0.074 A 
ATOM      5  C   UNL d   1      52.164  34.582  52.187  0.00  0.00     0.050 A 
ENDROOT
BRANCH   2   6
ATOM      6  C   UNL d   1      52.409  32.581  53.012  0.00  0.00     0.042 A 
ATOM      7  C   UNL d   1      51.709  32.213  53.238  0.00  0.00     0.098 A 
ATOM      8  C   UNL d   1      51.696  31.394  53.308  0.00  0.00     0.050 A 
ATOM      9  C   UNL d   1      52.362  30.948  53.157  0.00  0.00     0.118 A 
ATOM     10  C   UNL d   1      53.062  31.322  52.930  0.00  0.00     0.117 A 
ATOM     11  C   UNL d   1      53.088  32.142  52.856  0.00  0.00     0.030 A 
BRANCH   7  12
ATOM     12  O   UNL d   1      51.032  32.654  53.392  0.00  0.00    -0.328 OA
ATOM     13  C   UNL d   1      50.295  32.285  53.397  0.00  0.00     0.181 C 
ENDBRANCH   7  12
BRANCH   9  14
ATOM     14  O   UNL d   1      52.343  30.134  53.228  0.00  0.00    -0.326 OA
ATOM     15  C   UNL d   1      51.733  29.766  53.641  0.00  0.00     0.181 C 
ENDBRANCH   9  14
BRANCH  10  16
ATOM     16  O   UNL d   1      53.738  30.878  52.776  0.00  0.00    -0.326 OA
ATOM     17  C   UNL d   1      54.403  30.958  53.252  0.00  0.00     0.181 C 
ENDBRANCH  10  16
ENDBRANCH   2   6
BRANCH   1  18
ATOM     18  S   UNL d   1      53.016  34.555  54.078  0.00  0.00     0.255 S 
ATOM     19  O   UNL d   1      53.111  35.354  54.492  0.00  0.00    -0.205 OA
ATOM     20  O   UNL d   1      52.365  35.085  53.735  0.00  0.00    -0.205 OA
BRANCH  18  21
ATOM     21  C   UNL d   1      53.716  34.272  54.567  0.00  0.00     0.099 A 
ATOM     22  C   UNL d   1      54.559  34.374  54.260  0.00  0.00     0.015 A 
ATOM     23  C   UNL d   1      55.257  34.096  54.740  0.00  0.00     0.030 A 
ATOM     24  C   UNL d   1      55.122  33.709  55.540  0.00  0.00     0.140 A 
ATOM     25  C   UNL d   1      54.281  33.602  55.857  0.00  0.00     0.030 A 
ATOM     26  F   UNL d   1      55.824  33.421  56.040  0.00  0.00    -0.204 F 
ATOM     27  C   UNL d   1      53.571  33.884  55.370  0.00  0.00     0.015 A 
ENDBRANCH  18  21
ENDBRANCH   1  18
TORSDOF 6
ENDMDL
