MODEL 1
REMARK VINA RESULT:      -4.4      0.000      0.000
REMARK  4 active torsions:
REMARK  status: ('A' for Active; 'I' for Inactive)
REMARK    1  A    between atoms: C_2  and  N_1 
REMARK       I    between atoms: C_3  and  N_1 
REMARK    2  A    between atoms: N_5  and  C_2 
REMARK    3  A    between atoms: C_4  and  C_3 
REMARK    4  A    between atoms: C_7  and  N_5 
ROOT
ATOM      1  C   UNL d   1      58.185  -0.113  30.098  0.00  0.00     0.224 C 
ATOM      2  S   UNL d   1      58.408   0.682  30.111  0.00  0.00    -0.037 SA
ENDROOT
BRANCH   1   3
ATOM      3  N   UNL d   1      57.817  -0.451  30.755  0.00  0.00    -0.177 NA
ATOM      4  C   UNL d   1      57.161  -0.088  31.099  0.00  0.00     0.304 C 
ATOM      5  O   UNL d   1      56.873   0.617  30.780  0.00  0.00    -0.263 OA
BRANCH   4   6
ATOM      6  C   UNL d   1      56.792  -0.426  31.756  0.00  0.00     0.158 A 
ATOM      7  O   UNL d   1      56.601  -1.230  31.838  0.00  0.00    -0.300 OA
ATOM      8  C   UNL d   1      56.241  -1.316  32.582  0.00  0.00     0.123 A 
ATOM      9  C   UNL d   1      56.214  -0.576  32.946  0.00  0.00     0.029 A 
ATOM     10  C   UNL d   1      56.555  -0.027  32.434  0.00  0.00     0.032 A 
ENDBRANCH   4   6
ENDBRANCH   1   3
BRANCH   1  11
ATOM     11  N   UNL d   1      58.334  -0.569  29.420  0.00  0.00    -0.215 NA
BRANCH  11  12
ATOM     12  C   UNL d   1      59.095  -0.844  29.259  0.00  0.00     0.112 A 
ATOM     13  C   UNL d   1      59.202  -1.558  28.840  0.00  0.00     0.156 A 
ATOM     14  N   UNL d   1      59.963  -1.833  28.680  0.00  0.00    -0.231 NA
ATOM     15 CL   UNL d   1      58.537  -1.990  28.585  0.00  0.00    -0.060 Cl
ATOM     16  C   UNL d   1      60.618  -1.401  28.934  0.00  0.00     0.100 A 
ATOM     17  C   UNL d   1      60.512  -0.694  29.349  0.00  0.00     0.022 A 
ATOM     18  C   UNL d   1      59.750  -0.412  29.514  0.00  0.00     0.023 A 
ENDBRANCH  11  12
ENDBRANCH   1  11
TORSDOF 4
ENDMDL
MODEL 2
REMARK VINA RESULT:      -4.2      1.763      3.964
REMARK  4 active torsions:
REMARK  status: ('A' for Active; 'I' for Inactive)
REMARK    1  A    between atoms: C_2  and  N_1 
REMARK       I    between atoms: C_3  and  N_1 
REMARK    2  A    between atoms: N_5  and  C_2 
REMARK    3  A    between atoms: C_4  and  C_3 
REMARK    4  A    between atoms: C_7  and  N_5 
ROOT
ATOM      1  C   UNL d   1      57.765  -0.123  30.589  0.00  0.00     0.224 C 
ATOM      2  S   UNL d   1      57.847   0.667  30.361  0.00  0.00    -0.037 SA
ENDROOT
BRANCH   1   3
ATOM      3  N   UNL d   1      58.322  -0.683  30.354  0.00  0.00    -0.177 NA
ATOM      4  C   UNL d   1      58.485  -0.798  29.552  0.00  0.00     0.304 C 
ATOM      5  O   UNL d   1      58.086  -0.347  28.987  0.00  0.00    -0.263 OA
BRANCH   4   6
ATOM      6  C   UNL d   1      59.043  -1.358  29.316  0.00  0.00     0.158 A 
ATOM      7  O   UNL d   1      59.852  -1.211  29.202  0.00  0.00    -0.300 OA
ATOM      8  C   UNL d   1      60.196  -1.931  28.967  0.00  0.00     0.123 A 
ATOM      9  C   UNL d   1      59.605  -2.505  28.938  0.00  0.00     0.029 A 
ATOM     10  C   UNL d   1      58.892  -2.150  29.154  0.00  0.00     0.032 A 
ENDBRANCH   4   6
ENDBRANCH   1   3
BRANCH   1  11
ATOM     11  N   UNL d   1      57.117  -0.347  31.058  0.00  0.00    -0.215 NA
BRANCH  11  12
ATOM     12  C   UNL d   1      57.088  -0.143  31.857  0.00  0.00     0.112 A 
ATOM     13  C   UNL d   1      56.597  -0.571  32.380  0.00  0.00     0.156 A 
ATOM     14  N   UNL d   1      56.569  -0.367  33.179  0.00  0.00    -0.231 NA
ATOM     15 CL   UNL d   1      56.137  -1.202  32.092  0.00  0.00    -0.060 Cl
ATOM     16  C   UNL d   1      57.026   0.259  33.461  0.00  0.00     0.100 A 
ATOM     17  C   UNL d   1      57.513   0.682  32.943  0.00  0.00     0.022 A 
ATOM     18  C   UNL d   1      57.546   0.483  32.139  0.00  0.00     0.023 A 
ENDBRANCH  11  12
ENDBRANCH   1  11
TORSDOF 4
ENDMDL
MODEL 3
REMARK VINA RESULT:      -3.8      2.528      4.860
REMARK  4 active torsions:
REMARK  status: ('A' for Active; 'I' for Inactive)
REMARK    1  A    between atoms: C_2  and  N_1 
REMARK       I    between atoms: C_3  and  N_1 
REMARK    2  A    between atoms: N_5  and  C_2 
REMARK    3  A    between atoms: C_4  and  C_3 
REMARK    4  A    between atoms: C_7  and  N_5 
ROOT
ATOM      1  C   UNL d   1      56.696  -0.482  32.318  0.00  0.00     0.224 C 
ATOM      2  S   UNL d   1      56.259  -1.163  32.152  0.00  0.00    -0.037 SA
ENDROOT
BRANCH   1   3
ATOM      3  N   UNL d   1      57.045  -0.056  31.705  0.00  0.00    -0.177 NA
ATOM      4  C   UNL d   1      57.416  -0.449  31.081  0.00  0.00     0.304 C 
ATOM      5  O   UNL d   1      57.433  -1.275  31.074  0.00  0.00    -0.263 OA
BRANCH   4   6
ATOM      6  C   UNL d   1      57.766  -0.023  30.467  0.00  0.00     0.158 A 
ATOM      7  O   UNL d   1      57.363   0.306  29.820  0.00  0.00    -0.300 OA
ATOM      8  C   UNL d   1      57.934   0.682  29.347  0.00  0.00     0.123 A 
ATOM      9  C   UNL d   1      58.672   0.583  29.701  0.00  0.00     0.029 A 
ATOM     10  C   UNL d   1      58.567   0.147  30.394  0.00  0.00     0.032 A 
ENDBRANCH   4   6
ENDBRANCH   1   3
BRANCH   1  11
ATOM     11  N   UNL d   1      56.779  -0.230  33.105  0.00  0.00    -0.215 NA
BRANCH  11  12
ATOM     12  C   UNL d   1      56.120   0.008  33.540  0.00  0.00     0.112 A 
ATOM     13  C   UNL d   1      56.219   0.443  34.246  0.00  0.00     0.156 A 
ATOM     14  N   UNL d   1      55.560   0.682  34.680  0.00  0.00    -0.231 NA
ATOM     15 CL   UNL d   1      56.986   0.634  34.508  0.00  0.00    -0.060 Cl
ATOM     16  C   UNL d   1      54.802   0.490  34.417  0.00  0.00     0.100 A 
ATOM     17  C   UNL d   1      54.704   0.060  33.718  0.00  0.00     0.022 A 
ATOM     18  C   UNL d   1      55.362  -0.183  33.276  0.00  0.00     0.023 A 
ENDBRANCH  11  12
ENDBRANCH   1  11
TORSDOF 4
ENDMDL
MODEL 4
REMARK VINA RESULT:      -3.4      1.464      1.688
REMARK  4 active torsions:
REMARK  status: ('A' for Active; 'I' for Inactive)
REMARK    1  A    between atoms: C_2  and  N_1 
REMARK       I    between atoms: C_3  and  N_1 
REMARK    2  A    between atoms: N_5  and  C_2 
REMARK    3  A    between atoms: C_4  and  C_3 
REMARK    4  A    between atoms: C_7  and  N_5 
ROOT
ATOM      1  C   UNL d   1      57.616  -0.310  30.719  0.00  0.00     0.224 C 
ATOM      2  S   UNL d   1      57.898  -1.087  30.702  0.00  0.00    -0.037 SA
ENDROOT
BRANCH   1   3
ATOM      3  N   UNL d   1      57.192  -0.038  31.372  0.00  0.00    -0.177 NA
ATOM      4  C   UNL d   1      56.701  -0.550  31.794  0.00  0.00     0.304 C 
ATOM      5  O   UNL d   1      56.636  -1.338  31.557  0.00  0.00    -0.263 OA
BRANCH   4   6
ATOM      6  C   UNL d   1      56.276  -0.278  32.448  0.00  0.00     0.158 A 
ATOM      7  O   UNL d   1      56.243   0.512  32.703  0.00  0.00    -0.300 OA
ATOM      8  C   UNL d   1      55.755   0.526  33.375  0.00  0.00     0.123 A 
ATOM      9  C   UNL d   1      55.496  -0.243  33.526  0.00  0.00     0.029 A 
ATOM     10  C   UNL d   1      55.819  -0.739  32.952  0.00  0.00     0.032 A 
ENDBRANCH   4   6
ENDBRANCH   1   3
BRANCH   1  11
ATOM     11  N   UNL d   1      57.763   0.192  30.074  0.00  0.00    -0.215 NA
BRANCH  11  12
ATOM     12  C   UNL d   1      58.536   0.355  29.839  0.00  0.00     0.112 A 
ATOM     13  C   UNL d   1      58.714   0.460  29.030  0.00  0.00     0.156 A 
ATOM     14  N   UNL d   1      59.487   0.623  28.794  0.00  0.00    -0.231 NA
ATOM     15 CL   UNL d   1      58.107   0.400  28.463  0.00  0.00    -0.060 Cl
ATOM     16  C   UNL d   1      60.085   0.682  29.359  0.00  0.00     0.100 A 
ATOM     17  C   UNL d   1      59.910   0.578  30.161  0.00  0.00     0.022 A 
ATOM     18  C   UNL d   1      59.134   0.414  30.404  0.00  0.00     0.023 A 
ENDBRANCH  11  12
ENDBRANCH   1  11
TORSDOF 4
ENDMDL
