MODEL 1
REMARK VINA RESULT:      -9.5      0.000      0.000
REMARK  7 active torsions:
REMARK  status: ('A' for Active; 'I' for Inactive)
REMARK    1  A    between atoms: C_11  and  C_3 
REMARK    2  A    between atoms: C_10  and  C_4 
REMARK    3  A    between atoms: O_16  and  C_10 
REMARK    4  A    between atoms: N_15  and  C_11 
REMARK    5  A    between atoms: C_21  and  N_15 
REMARK    6  A    between atoms: C_23  and  O_16 
REMARK    7  A    between atoms: C_18  and  C_21 
ROOT
ATOM      1  C   UNL d   1      53.425  32.693  53.795  0.00  0.00     0.035 A 
ATOM      2  C   UNL d   1      53.729  31.993  54.106  0.00  0.00     0.100 A 
ATOM      3  C   UNL d   1      52.864  32.675  53.190  0.00  0.00     0.060 A 
ATOM      4  C   UNL d   1      53.783  33.324  54.198  0.00  0.00     0.088 A 
ATOM      5  O   UNL d   1      54.266  32.191  54.690  0.00  0.00    -0.307 OA
ATOM      6  C   UNL d   1      54.284  32.985  54.731  0.00  0.00     0.105 A 
ATOM      7  C   UNL d   1      52.603  31.955  52.888  0.00  0.00     0.197 A 
ATOM      8  C   UNL d   1      53.465  31.279  53.802  0.00  0.00     0.026 A 
ATOM      9  C   UNL d   1      52.905  31.260  53.196  0.00  0.00     0.041 A 
ATOM     10  O   UNL d   1      52.046  31.937  52.287  0.00  0.00    -0.286 OA
ATOM     11  C   UNL d   1      54.770  33.426  55.266  0.00  0.00     0.027 C 
ATOM     12  C   UNL d   1      53.770  30.574  54.112  0.00  0.00     0.002 A 
ATOM     13  C   UNL d   1      52.643  30.536  52.895  0.00  0.00     0.003 A 
ATOM     14  C   UNL d   1      52.945  29.841  53.203  0.00  0.00     0.000 A 
ATOM     15  C   UNL d   1      53.505  29.860  53.808  0.00  0.00     0.000 A 
ENDROOT
BRANCH   3  16
ATOM     16  C   UNL d   1      52.544  33.392  52.862  0.00  0.00     0.102 C 
BRANCH  16  17
ATOM     17  N   UNL d   1      51.745  33.441  52.624  0.00  0.00    -0.241 NA
BRANCH  17  18
ATOM     18  C   UNL d   1      51.496  34.078  52.180  0.00  0.00     0.118 C 
BRANCH  18  19
ATOM     19  C   UNL d   1      50.685  34.291  52.182  0.00  0.00     0.101 A 
ATOM     20  N   UNL d   1      50.325  34.563  52.868  0.00  0.00    -0.242 NA
ATOM     21  C   UNL d   1      49.528  34.773  52.870  0.00  0.00     0.099 A 
ATOM     22  C   UNL d   1      49.081  34.714  52.187  0.00  0.00     0.021 A 
ATOM     23  C   UNL d   1      49.436  34.443  51.497  0.00  0.00     0.003 A 
ATOM     24  C   UNL d   1      50.234  34.233  51.495  0.00  0.00     0.021 A 
ENDBRANCH  18  19
ENDBRANCH  17  18
ENDBRANCH  16  17
ENDBRANCH   3  16
BRANCH   4  25
ATOM     25  C   UNL d   1      53.668  34.163  54.095  0.00  0.00     0.302 C 
ATOM     26  O   UNL d   1      54.016  34.538  53.450  0.00  0.00    -0.259 OA
BRANCH  25  27
ATOM     27  O   UNL d   1      53.229  34.572  54.619  0.00  0.00    -0.271 OA
BRANCH  27  28
ATOM     28  C   UNL d   1      53.276  35.393  54.661  0.00  0.00     0.126 C 
ATOM     29  C   UNL d   1      52.731  35.824  55.119  0.00  0.00     0.029 C 
ENDBRANCH  27  28
ENDBRANCH  25  27
ENDBRANCH   4  25
TORSDOF 7
ENDMDL
MODEL 2
REMARK VINA RESULT:      -8.1      1.099      3.893
REMARK  7 active torsions:
REMARK  status: ('A' for Active; 'I' for Inactive)
REMARK    1  A    between atoms: C_11  and  C_3 
REMARK    2  A    between atoms: C_10  and  C_4 
REMARK    3  A    between atoms: O_16  and  C_10 
REMARK    4  A    between atoms: N_15  and  C_11 
REMARK    5  A    between atoms: C_21  and  N_15 
REMARK    6  A    between atoms: C_23  and  O_16 
REMARK    7  A    between atoms: C_18  and  C_21 
ROOT
ATOM      1  C   UNL d   1      52.423  34.095  53.492  0.00  0.00     0.035 A 
ATOM      2  C   UNL d   1      51.822  34.658  53.460  0.00  0.00     0.100 A 
ATOM      3  C   UNL d   1      52.323  33.354  53.145  0.00  0.00     0.060 A 
ATOM      4  C   UNL d   1      53.058  34.430  53.908  0.00  0.00     0.088 A 
ATOM      5  O   UNL d   1      52.084  35.328  53.849  0.00  0.00    -0.307 OA
ATOM      6  C   UNL d   1      52.820  35.174  54.108  0.00  0.00     0.105 A 
ATOM      7  C   UNL d   1      51.620  33.167  52.760  0.00  0.00     0.197 A 
ATOM      8  C   UNL d   1      51.123  34.467  53.075  0.00  0.00     0.026 A 
ATOM      9  C   UNL d   1      51.023  33.725  52.727  0.00  0.00     0.041 A 
ATOM     10  O   UNL d   1      51.521  32.430  52.415  0.00  0.00    -0.286 OA
ATOM     11  C   UNL d   1      53.299  35.721  54.542  0.00  0.00     0.027 C 
ATOM     12  C   UNL d   1      50.517  35.031  53.041  0.00  0.00     0.002 A 
ATOM     13  C   UNL d   1      50.316  33.540  52.341  0.00  0.00     0.003 A 
ATOM     14  C   UNL d   1      49.719  34.098  52.308  0.00  0.00     0.000 A 
ATOM     15  C   UNL d   1      49.819  34.840  52.656  0.00  0.00     0.000 A 
ENDROOT
BRANCH   3  16
ATOM     16  C   UNL d   1      52.938  32.765  53.173  0.00  0.00     0.102 C 
BRANCH  16  17
ATOM     17  N   UNL d   1      52.758  31.951  53.207  0.00  0.00    -0.241 NA
BRANCH  17  18
ATOM     18  C   UNL d   1      53.352  31.403  53.096  0.00  0.00     0.118 C 
BRANCH  18  19
ATOM     19  C   UNL d   1      53.277  30.639  53.434  0.00  0.00     0.101 A 
ATOM     20  N   UNL d   1      53.491  30.504  54.214  0.00  0.00    -0.242 NA
ATOM     21  C   UNL d   1      53.417  29.753  54.547  0.00  0.00     0.099 A 
ATOM     22  C   UNL d   1      53.130  29.129  54.104  0.00  0.00     0.021 A 
ATOM     23  C   UNL d   1      52.914  29.258  53.321  0.00  0.00     0.003 A 
ATOM     24  C   UNL d   1      52.987  30.010  52.988  0.00  0.00     0.021 A 
ENDBRANCH  18  19
ENDBRANCH  17  18
ENDBRANCH  16  17
ENDBRANCH   3  16
BRANCH   4  25
ATOM     25  C   UNL d   1      53.816  34.088  54.100  0.00  0.00     0.302 C 
ATOM     26  O   UNL d   1      54.387  34.025  53.509  0.00  0.00    -0.259 OA
BRANCH  25  27
ATOM     27  O   UNL d   1      53.964  33.836  54.841  0.00  0.00    -0.271 OA
BRANCH  27  28
ATOM     28  C   UNL d   1      54.736  33.729  55.106  0.00  0.00     0.126 C 
ATOM     29  C   UNL d   1      54.883  33.396  55.854  0.00  0.00     0.029 C 
ENDBRANCH  27  28
ENDBRANCH  25  27
ENDBRANCH   4  25
TORSDOF 7
ENDMDL
MODEL 3
REMARK VINA RESULT:      -6.6      0.870      2.972
REMARK  7 active torsions:
REMARK  status: ('A' for Active; 'I' for Inactive)
REMARK    1  A    between atoms: C_11  and  C_3 
REMARK    2  A    between atoms: C_10  and  C_4 
REMARK    3  A    between atoms: O_16  and  C_10 
REMARK    4  A    between atoms: N_15  and  C_11 
REMARK    5  A    between atoms: C_21  and  N_15 
REMARK    6  A    between atoms: C_23  and  O_16 
REMARK    7  A    between atoms: C_18  and  C_21 
ROOT
ATOM      1  C   UNL d   1      53.414  32.442  53.778  0.00  0.00     0.035 A 
ATOM      2  C   UNL d   1      54.172  32.555  54.081  0.00  0.00     0.100 A 
ATOM      3  C   UNL d   1      52.836  33.024  53.866  0.00  0.00     0.060 A 
ATOM      4  C   UNL d   1      53.396  31.695  53.418  0.00  0.00     0.088 A 
ATOM      5  O   UNL d   1      54.613  31.888  53.908  0.00  0.00    -0.307 OA
ATOM      6  C   UNL d   1      54.136  31.389  53.514  0.00  0.00     0.105 A 
ATOM      7  C   UNL d   1      53.010  33.726  54.257  0.00  0.00     0.197 A 
ATOM      8  C   UNL d   1      54.341  33.258  54.469  0.00  0.00     0.026 A 
ATOM      9  C   UNL d   1      53.763  33.840  54.557  0.00  0.00     0.041 A 
ATOM     10  O   UNL d   1      52.436  34.305  54.344  0.00  0.00    -0.286 OA
ATOM     11  C   UNL d   1      54.371  30.627  53.229  0.00  0.00     0.027 C 
ATOM     12  C   UNL d   1      55.102  33.374  54.774  0.00  0.00     0.002 A 
ATOM     13  C   UNL d   1      53.940  34.545  54.950  0.00  0.00     0.003 A 
ATOM     14  C   UNL d   1      54.693  34.659  55.250  0.00  0.00     0.000 A 
ATOM     15  C   UNL d   1      55.271  34.076  55.163  0.00  0.00     0.000 A 
ENDROOT
BRANCH   3  16
ATOM     16  C   UNL d   1      52.049  32.916  53.558  0.00  0.00     0.102 C 
BRANCH  16  17
ATOM     17  N   UNL d   1      51.564  33.569  53.371  0.00  0.00    -0.241 NA
BRANCH  17  18
ATOM     18  C   UNL d   1      50.754  33.474  53.350  0.00  0.00     0.118 C 
BRANCH  18  19
ATOM     19  C   UNL d   1      50.293  33.972  52.856  0.00  0.00     0.101 A 
ATOM     20  N   UNL d   1      49.814  34.554  53.179  0.00  0.00    -0.242 NA
ATOM     21  C   UNL d   1      49.361  35.044  52.694  0.00  0.00     0.099 A 
ATOM     22  C   UNL d   1      49.381  34.956  51.881  0.00  0.00     0.021 A 
ATOM     23  C   UNL d   1      49.859  34.374  51.552  0.00  0.00     0.003 A 
ATOM     24  C   UNL d   1      50.313  33.884  52.037  0.00  0.00     0.021 A 
ENDBRANCH  18  19
ENDBRANCH  17  18
ENDBRANCH  16  17
ENDBRANCH   3  16
BRANCH   4  25
ATOM     25  C   UNL d   1      52.750  31.303  53.021  0.00  0.00     0.302 C 
ATOM     26  O   UNL d   1      52.639  31.434  52.215  0.00  0.00    -0.259 OA
BRANCH  25  27
ATOM     27  O   UNL d   1      52.265  30.820  53.428  0.00  0.00    -0.271 OA
BRANCH  27  28
ATOM     28  C   UNL d   1      51.967  30.133  53.086  0.00  0.00     0.126 C 
ATOM     29  C   UNL d   1      51.442  29.646  53.508  0.00  0.00     0.029 C 
ENDBRANCH  27  28
ENDBRANCH  25  27
ENDBRANCH   4  25
TORSDOF 7
ENDMDL
