MODEL 1
REMARK VINA RESULT:      62.8      0.000      0.000
REMARK  6 active torsions:
REMARK  status: ('A' for Active; 'I' for Inactive)
REMARK    1  A    between atoms: C_2  and  S_1 
REMARK    2  A    between atoms: N_5  and  S_1 
REMARK    3  A    between atoms: C_9  and  N_5 
REMARK    4  A    between atoms: C_11  and  C_9 
REMARK       I    between atoms: N_17  and  C_11 
REMARK    5  A    between atoms: C_16  and  C_21 
REMARK    6  A    between atoms: C_21  and  N_17 
ROOT
ATOM      1  C   UNL d   1      61.036  48.345  50.617  0.00  0.00     0.299 C 
ATOM      2  N   UNL d   1      60.749  48.949  50.143  0.00  0.00    -0.203 NA
ATOM      3  O   UNL d   1      60.960  48.397  51.456  0.00  0.00    -0.263 OA
ENDROOT
BRANCH   1   4
ATOM      4  C   UNL d   1      61.398  47.689  50.277  0.00  0.00     0.174 C 
BRANCH   4   5
ATOM      5  N   UNL d   1      61.284  46.931  50.611  0.00  0.00    -0.151 NA
BRANCH   5   6
ATOM      6  S   UNL d   1      61.537  46.254  50.199  0.00  0.00     0.291 S 
ATOM      7  O   UNL d   1      62.293  46.596  50.094  0.00  0.00    -0.198 OA
ATOM      8  O   UNL d   1      60.797  45.913  50.297  0.00  0.00    -0.198 OA
BRANCH   6   9
ATOM      9  C   UNL d   1      61.799  45.584  49.786  0.00  0.00     0.135 A 
ATOM     10  S   UNL d   1      61.889  44.856  50.115  0.00  0.00    -0.067 SA
ATOM     11  C   UNL d   1      62.163  44.336  49.514  0.00  0.00     0.065 A 
ATOM     12 BR   UNL d   1      62.334  43.519  49.606  0.00  0.00    -0.042 Br
ATOM     13  C   UNL d   1      62.233  44.760  48.829  0.00  0.00     0.015 A 
ATOM     14  C   UNL d   1      62.008  45.541  48.990  0.00  0.00     0.021 A 
ENDBRANCH   6   9
ENDBRANCH   5   6
ENDBRANCH   4   5
ENDBRANCH   1   4
BRANCH   2  15
ATOM     15  C   UNL d   1      60.381  49.616  50.488  0.00  0.00     0.129 C 
BRANCH  15  16
ATOM     16  C   UNL d   1      59.551  49.629  50.571  0.00  0.00     0.144 A 
ATOM     17  O   UNL d   1      59.063  49.629  49.922  0.00  0.00    -0.301 OA
ATOM     18  C   UNL d   1      58.254  49.642  50.021  0.00  0.00     0.123 A 
ATOM     19  C   UNL d   1      57.757  49.641  49.362  0.00  0.00     0.027 A 
ATOM     20  C   UNL d   1      57.924  49.656  50.775  0.00  0.00     0.123 A 
ATOM     21  C   UNL d   1      56.936  49.654  49.456  0.00  0.00     0.002 A 
ATOM     22  C   UNL d   1      56.610  49.669  50.211  0.00  0.00     0.002 A 
ATOM     23  C   UNL d   1      57.113  49.669  50.875  0.00  0.00     0.027 A 
ATOM     24  O   UNL d   1      58.413  49.657  51.432  0.00  0.00    -0.301 OA
ATOM     25  C   UNL d   1      59.225  49.644  51.326  0.00  0.00     0.149 A 
ENDBRANCH  15  16
ENDBRANCH   2  15
TORSDOF 6
ENDMDL
