MODEL 1
REMARK VINA RESULT:     -10.0      0.000      0.000
REMARK  2 active torsions:
REMARK  status: ('A' for Active; 'I' for Inactive)
REMARK    1  A    between atoms: N_9  and  C_3 
REMARK    2  A    between atoms: C_11  and  C_4 
ROOT
ATOM      1  N   UNL d   1      53.029  33.604  53.700  0.00  0.00    -0.196 N 
ATOM      2  C   UNL d   1      52.405  33.375  53.219  0.00  0.00     0.167 A 
ATOM      3  C   UNL d   1      53.591  33.050  53.944  0.00  0.00     0.153 A 
ATOM      4  C   UNL d   1      51.944  34.035  53.069  0.00  0.00     0.057 A 
ATOM      5  N   UNL d   1      52.956  34.406  53.848  0.00  0.00    -0.161 NA
ATOM      6  N   UNL d   1      52.333  32.589  52.977  0.00  0.00    -0.227 NA
ATOM      7  C   UNL d   1      53.520  32.262  53.702  0.00  0.00     0.057 A 
ATOM      8  C   UNL d   1      52.281  34.669  53.454  0.00  0.00     0.124 A 
ATOM      9  C   UNL d   1      52.896  32.033  53.222  0.00  0.00     0.086 A 
ATOM     10  C   UNL d   1      52.832  31.236  52.982  0.00  0.00     0.021 C 
ENDROOT
BRANCH   3  11
ATOM     11  N   UNL d   1      54.215  33.279  54.424  0.00  0.00    -0.285 N 
ATOM     12  C   UNL d   1      54.130  33.275  55.248  0.00  0.00     0.108 A 
ATOM     13  C   UNL d   1      54.757  33.505  55.731  0.00  0.00     0.142 A 
ATOM     14  O   UNL d   1      55.473  33.741  55.392  0.00  0.00    -0.300 OA
ATOM     15  C   UNL d   1      55.560  33.746  54.573  0.00  0.00     0.142 A 
ATOM     16  C   UNL d   1      54.933  33.516  54.091  0.00  0.00     0.108 A 
ENDBRANCH   3  11
BRANCH   4  17
ATOM     17  C   UNL d   1      51.256  34.141  52.628  0.00  0.00     0.004 A 
ATOM     18  C   UNL d   1      51.293  34.230  51.801  0.00  0.00     0.000 A 
ATOM     19  C   UNL d   1      50.603  34.335  51.369  0.00  0.00     0.000 A 
ATOM     20  C   UNL d   1      49.865  34.353  51.749  0.00  0.00     0.000 A 
ATOM     21  C   UNL d   1      49.829  34.264  52.569  0.00  0.00     0.000 A 
ATOM     22  C   UNL d   1      50.522  34.158  53.011  0.00  0.00     0.000 A 
ENDBRANCH   4  17
TORSDOF 2
ENDMDL
MODEL 2
REMARK VINA RESULT:      -8.5      1.589      4.011
REMARK  2 active torsions:
REMARK  status: ('A' for Active; 'I' for Inactive)
REMARK    1  A    between atoms: N_9  and  C_3 
REMARK    2  A    between atoms: C_11  and  C_4 
ROOT
ATOM      1  N   UNL d   1      52.314  33.775  53.388  0.00  0.00    -0.196 N 
ATOM      2  C   UNL d   1      52.962  33.378  53.697  0.00  0.00     0.167 A 
ATOM      3  C   UNL d   1      51.763  33.373  52.924  0.00  0.00     0.153 A 
ATOM      4  C   UNL d   1      53.407  33.914  54.130  0.00  0.00     0.057 A 
ATOM      5  N   UNL d   1      52.356  34.557  53.629  0.00  0.00    -0.161 NA
ATOM      6  N   UNL d   1      53.068  32.573  53.546  0.00  0.00    -0.227 NA
ATOM      7  C   UNL d   1      51.868  32.566  52.771  0.00  0.00     0.057 A 
ATOM      8  C   UNL d   1      53.036  34.638  54.089  0.00  0.00     0.124 A 
ATOM      9  C   UNL d   1      52.516  32.169  53.080  0.00  0.00     0.086 A 
ATOM     10  C   UNL d   1      52.615  31.355  52.921  0.00  0.00     0.021 C 
ENDROOT
BRANCH   3  11
ATOM     11  N   UNL d   1      51.115  33.769  52.615  0.00  0.00    -0.285 N 
ATOM     12  C   UNL d   1      51.123  34.032  51.829  0.00  0.00     0.108 A 
ATOM     13  C   UNL d   1      50.472  34.431  51.519  0.00  0.00     0.142 A 
ATOM     14  O   UNL d   1      49.809  34.569  51.992  0.00  0.00    -0.300 OA
ATOM     15  C   UNL d   1      49.799  34.309  52.774  0.00  0.00     0.142 A 
ATOM     16  C   UNL d   1      50.450  33.910  53.084  0.00  0.00     0.108 A 
ENDBRANCH   3  11
BRANCH   4  17
ATOM     17  C   UNL d   1      54.106  33.834  54.558  0.00  0.00     0.004 A 
ATOM     18  C   UNL d   1      54.843  33.961  54.192  0.00  0.00     0.000 A 
ATOM     19  C   UNL d   1      55.536  33.880  54.626  0.00  0.00     0.000 A 
ATOM     20  C   UNL d   1      55.508  33.671  55.430  0.00  0.00     0.000 A 
ATOM     21  C   UNL d   1      54.777  33.546  55.791  0.00  0.00     0.000 A 
ATOM     22  C   UNL d   1      54.075  33.626  55.359  0.00  0.00     0.000 A 
ENDBRANCH   4  17
TORSDOF 2
ENDMDL
MODEL 3
REMARK VINA RESULT:      -8.2      1.462      3.223
REMARK  2 active torsions:
REMARK  status: ('A' for Active; 'I' for Inactive)
REMARK    1  A    between atoms: N_9  and  C_3 
REMARK    2  A    between atoms: C_11  and  C_4 
ROOT
ATOM      1  N   UNL d   1      52.977  33.159  53.797  0.00  0.00    -0.196 N 
ATOM      2  C   UNL d   1      52.644  32.447  53.561  0.00  0.00     0.167 A 
ATOM      3  C   UNL d   1      52.530  33.852  53.780  0.00  0.00     0.153 A 
ATOM      4  C   UNL d   1      53.213  31.862  53.637  0.00  0.00     0.057 A 
ATOM      5  N   UNL d   1      53.753  33.016  54.019  0.00  0.00    -0.161 NA
ATOM      6  N   UNL d   1      51.860  32.419  53.306  0.00  0.00    -0.227 NA
ATOM      7  C   UNL d   1      51.743  33.826  53.524  0.00  0.00     0.057 A 
ATOM      8  C   UNL d   1      53.894  32.210  53.918  0.00  0.00     0.124 A 
ATOM      9  C   UNL d   1      51.410  33.114  53.288  0.00  0.00     0.086 A 
ATOM     10  C   UNL d   1      50.616  33.096  53.031  0.00  0.00     0.021 C 
ENDROOT
BRANCH   3  11
ATOM     11  N   UNL d   1      52.863  34.564  54.015  0.00  0.00    -0.285 N 
ATOM     12  C   UNL d   1      52.866  34.778  54.816  0.00  0.00     0.108 A 
ATOM     13  C   UNL d   1      53.200  35.493  55.052  0.00  0.00     0.142 A 
ATOM     14  O   UNL d   1      53.533  35.998  54.490  0.00  0.00    -0.300 OA
ATOM     15  C   UNL d   1      53.531  35.788  53.694  0.00  0.00     0.142 A 
ATOM     16  C   UNL d   1      53.197  35.073  53.457  0.00  0.00     0.108 A 
ENDBRANCH   3  11
BRANCH   4  17
ATOM     17  C   UNL d   1      53.198  31.053  53.485  0.00  0.00     0.004 A 
ATOM     18  C   UNL d   1      53.168  30.769  52.702  0.00  0.00     0.000 A 
ATOM     19  C   UNL d   1      53.153  29.961  52.560  0.00  0.00     0.000 A 
ATOM     20  C   UNL d   1      53.169  29.420  53.190  0.00  0.00     0.000 A 
ATOM     21  C   UNL d   1      53.199  29.702  53.965  0.00  0.00     0.000 A 
ATOM     22  C   UNL d   1      53.214  30.517  54.116  0.00  0.00     0.000 A 
ENDBRANCH   4  17
TORSDOF 2
ENDMDL
MODEL 4
REMARK VINA RESULT:      -8.1      1.780      4.130
REMARK  2 active torsions:
REMARK  status: ('A' for Active; 'I' for Inactive)
REMARK    1  A    between atoms: N_9  and  C_3 
REMARK    2  A    between atoms: C_11  and  C_4 
ROOT
ATOM      1  N   UNL d   1      52.642  32.212  53.373  0.00  0.00    -0.196 N 
ATOM      2  C   UNL d   1      53.127  31.709  53.802  0.00  0.00     0.167 A 
ATOM      3  C   UNL d   1      52.682  33.028  53.490  0.00  0.00     0.153 A 
ATOM      4  C   UNL d   1      52.966  30.940  53.570  0.00  0.00     0.057 A 
ATOM      5  N   UNL d   1      52.180  31.755  52.873  0.00  0.00    -0.161 NA
ATOM      6  N   UNL d   1      53.659  32.015  54.355  0.00  0.00    -0.227 NA
ATOM      7  C   UNL d   1      53.214  33.337  54.043  0.00  0.00     0.057 A 
ATOM      8  C   UNL d   1      52.385  30.967  53.000  0.00  0.00     0.124 A 
ATOM      9  C   UNL d   1      53.699  32.834  54.473  0.00  0.00     0.086 A 
ATOM     10  C   UNL d   1      54.233  33.153  55.029  0.00  0.00     0.021 C 
ENDROOT
BRANCH   3  11
ATOM     11  N   UNL d   1      52.196  33.531  53.060  0.00  0.00    -0.285 N 
ATOM     12  C   UNL d   1      51.431  33.702  53.328  0.00  0.00     0.108 A 
ATOM     13  C   UNL d   1      50.944  34.207  52.897  0.00  0.00     0.142 A 
ATOM     14  O   UNL d   1      51.219  34.545  52.195  0.00  0.00    -0.300 OA
ATOM     15  C   UNL d   1      51.979  34.376  51.926  0.00  0.00     0.142 A 
ATOM     16  C   UNL d   1      52.466  33.871  52.357  0.00  0.00     0.108 A 
ENDBRANCH   3  11
BRANCH   4  17
ATOM     17  C   UNL d   1      53.277  30.214  53.806  0.00  0.00     0.004 A 
ATOM     18  C   UNL d   1      53.947  29.897  53.426  0.00  0.00     0.000 A 
ATOM     19  C   UNL d   1      54.250  29.173  53.667  0.00  0.00     0.000 A 
ATOM     20  C   UNL d   1      53.894  28.752  54.289  0.00  0.00     0.000 A 
ATOM     21  C   UNL d   1      53.230  29.068  54.664  0.00  0.00     0.000 A 
ATOM     22  C   UNL d   1      52.919  29.797  54.425  0.00  0.00     0.000 A 
ENDBRANCH   4  17
TORSDOF 2
ENDMDL
MODEL 5
REMARK VINA RESULT:      -7.2      1.191      2.019
REMARK  2 active torsions:
REMARK  status: ('A' for Active; 'I' for Inactive)
REMARK    1  A    between atoms: N_9  and  C_3 
REMARK    2  A    between atoms: C_11  and  C_4 
ROOT
ATOM      1  N   UNL d   1      52.224  33.629  53.452  0.00  0.00    -0.196 N 
ATOM      2  C   UNL d   1      51.717  34.262  53.330  0.00  0.00     0.167 A 
ATOM      3  C   UNL d   1      52.961  33.748  53.804  0.00  0.00     0.153 A 
ATOM      4  C   UNL d   1      51.035  33.978  52.975  0.00  0.00     0.057 A 
ATOM      5  N   UNL d   1      51.857  32.951  53.174  0.00  0.00    -0.161 NA
ATOM      6  N   UNL d   1      51.940  35.023  53.557  0.00  0.00    -0.227 NA
ATOM      7  C   UNL d   1      53.186  34.511  54.033  0.00  0.00     0.057 A 
ATOM      8  C   UNL d   1      51.120  33.173  52.878  0.00  0.00     0.124 A 
ATOM      9  C   UNL d   1      52.679  35.144  53.911  0.00  0.00     0.086 A 
ATOM     10  C   UNL d   1      52.914  35.911  54.144  0.00  0.00     0.021 C 
ENDROOT
BRANCH   3  11
ATOM     11  N   UNL d   1      53.467  33.115  53.927  0.00  0.00    -0.285 N 
ATOM     12  C   UNL d   1      53.491  32.737  54.664  0.00  0.00     0.108 A 
ATOM     13  C   UNL d   1      54.000  32.100  54.787  0.00  0.00     0.142 A 
ATOM     14  O   UNL d   1      54.488  31.839  54.174  0.00  0.00    -0.300 OA
ATOM     15  C   UNL d   1      54.466  32.213  53.441  0.00  0.00     0.142 A 
ATOM     16  C   UNL d   1      53.957  32.849  53.318  0.00  0.00     0.108 A 
ENDBRANCH   3  11
BRANCH   4  17
ATOM     17  C   UNL d   1      50.344  34.351  52.726  0.00  0.00     0.004 A 
ATOM     18  C   UNL d   1      49.840  34.719  53.277  0.00  0.00     0.000 A 
ATOM     19  C   UNL d   1      49.153  35.089  53.020  0.00  0.00     0.000 A 
ATOM     20  C   UNL d   1      48.955  35.100  52.214  0.00  0.00     0.000 A 
ATOM     21  C   UNL d   1      49.456  34.734  51.668  0.00  0.00     0.000 A 
ATOM     22  C   UNL d   1      50.150  34.360  51.921  0.00  0.00     0.000 A 
ENDBRANCH   4  17
TORSDOF 2
ENDMDL
MODEL 6
REMARK VINA RESULT:      -7.2      1.738      2.686
REMARK  2 active torsions:
REMARK  status: ('A' for Active; 'I' for Inactive)
REMARK    1  A    between atoms: N_9  and  C_3 
REMARK    2  A    between atoms: C_11  and  C_4 
ROOT
ATOM      1  N   UNL d   1      52.637  31.634  53.472  0.00  0.00    -0.196 N 
ATOM      2  C   UNL d   1      52.623  32.442  53.332  0.00  0.00     0.167 A 
ATOM      3  C   UNL d   1      53.334  31.268  53.719  0.00  0.00     0.153 A 
ATOM      4  C   UNL d   1      51.865  32.646  53.096  0.00  0.00     0.057 A 
ATOM      5  N   UNL d   1      51.888  31.336  53.324  0.00  0.00    -0.161 NA
ATOM      6  N   UNL d   1      53.305  32.895  53.437  0.00  0.00    -0.227 NA
ATOM      7  C   UNL d   1      54.019  31.721  53.825  0.00  0.00     0.057 A 
ATOM      8  C   UNL d   1      51.413  31.968  53.091  0.00  0.00     0.124 A 
ATOM      9  C   UNL d   1      54.005  32.528  53.685  0.00  0.00     0.086 A 
ATOM     10  C   UNL d   1      54.700  32.978  53.793  0.00  0.00     0.021 C 
ENDROOT
BRANCH   3  11
ATOM     11  N   UNL d   1      53.349  30.460  53.860  0.00  0.00    -0.285 N 
ATOM     12  C   UNL d   1      53.246  30.168  54.628  0.00  0.00     0.108 A 
ATOM     13  C   UNL d   1      53.261  29.356  54.769  0.00  0.00     0.142 A 
ATOM     14  O   UNL d   1      53.378  28.831  54.142  0.00  0.00    -0.300 OA
ATOM     15  C   UNL d   1      53.481  29.119  53.377  0.00  0.00     0.142 A 
ATOM     16  C   UNL d   1      53.466  29.930  53.236  0.00  0.00     0.108 A 
ENDBRANCH   3  11
BRANCH   4  17
ATOM     17  C   UNL d   1      51.526  33.367  52.885  0.00  0.00     0.004 A 
ATOM     18  C   UNL d   1      51.648  33.685  52.124  0.00  0.00     0.000 A 
ATOM     19  C   UNL d   1      51.307  34.404  51.921  0.00  0.00     0.000 A 
ATOM     20  C   UNL d   1      50.840  34.819  52.468  0.00  0.00     0.000 A 
ATOM     21  C   UNL d   1      50.720  34.503  53.221  0.00  0.00     0.000 A 
ATOM     22  C   UNL d   1      51.061  33.778  53.432  0.00  0.00     0.000 A 
ENDBRANCH   4  17
TORSDOF 2
ENDMDL
