MODEL 1
REMARK VINA RESULT:      23.8      0.000      0.000
REMARK  6 active torsions:
REMARK  status: ('A' for Active; 'I' for Inactive)
REMARK    1  A    between atoms: N_7  and  C_1 
REMARK    2  A    between atoms: C_6  and  C_4 
REMARK    3  A    between atoms: C_19  and  N_9 
REMARK    4  A    between atoms: C_21  and  C_13 
REMARK    5  A    between atoms: O_20  and  C_21 
REMARK    6  A    between atoms: C_22  and  O_20 
ROOT
ATOM      1  C   UNL d   1     -41.531-121.705 -53.439  0.00  0.00     0.198 A 
ATOM      2  C   UNL d   1     -41.492-122.537 -53.225  0.00  0.00     0.191 A 
ATOM      3  O   UNL d   1     -41.470-121.277 -52.728  0.00  0.00    -0.268 OA
ATOM      4  C   UNL d   1     -41.401-121.808 -52.126  0.00  0.00     0.208 A 
ATOM      5  N   UNL d   1     -41.413-122.552 -52.411  0.00  0.00    -0.206 NA
ATOM      6  C   UNL d   1     -41.531-123.164 -53.760  0.00  0.00     0.124 C 
ATOM      7  N   UNL d   1     -41.568-123.817 -54.276  0.00  0.00    -0.190 NA
ENDROOT
BRANCH   1   8
ATOM      8  N   UNL d   1     -41.611-121.490 -54.220  0.00  0.00    -0.280 N 
ATOM      9  C   UNL d   1     -41.174-121.852 -54.813  0.00  0.00     0.101 A 
ATOM     10  C   UNL d   1     -41.254-121.637 -55.593  0.00  0.00     0.100 A 
ATOM     11  N   UNL d   1     -41.791-121.038 -55.789  0.00  0.00    -0.301 N 
ATOM     12  C   UNL d   1     -42.243-120.659 -55.200  0.00  0.00     0.100 A 
ATOM     13  C   UNL d   1     -42.147-120.891 -54.416  0.00  0.00     0.101 A 
BRANCH  11  14
ATOM     14  C   UNL d   1     -41.886-120.806 -56.574  0.00  0.00     0.064 A 
ATOM     15  C   UNL d   1     -41.510-120.122 -56.878  0.00  0.00     0.018 A 
ATOM     16  C   UNL d   1     -41.605-119.891 -57.662  0.00  0.00     0.002 A 
ATOM     17  C   UNL d   1     -42.086-120.347 -58.160  0.00  0.00     0.000 A 
ATOM     18  C   UNL d   1     -42.462-121.022 -57.876  0.00  0.00     0.002 A 
ATOM     19  C   UNL d   1     -42.367-121.263 -57.072  0.00  0.00     0.018 A 
ENDBRANCH  11  14
ENDBRANCH   1   8
BRANCH   4  20
ATOM     20  C   UNL d   1     -41.321-122.098 -51.367  0.00  0.00     0.141 A 
ATOM     21  O   UNL d   1     -41.134-122.715 -50.824  0.00  0.00    -0.301 OA
ATOM     22  C   UNL d   1     -41.238-122.427 -50.056  0.00  0.00     0.125 A 
ATOM     23  C   UNL d   1     -41.480-121.661 -50.089  0.00  0.00     0.029 A 
ATOM     24  C   UNL d   1     -41.527-121.472 -50.913  0.00  0.00     0.030 A 
BRANCH  22  25
ATOM     25  C   UNL d   1     -41.123-122.826 -49.343  0.00  0.00     0.147 C 
BRANCH  25  26
ATOM     26  O   UNL d   1     -41.633-123.428 -49.090  0.00  0.00    -0.303 OA
BRANCH  26  27
ATOM     27  C   UNL d   1     -41.826-123.536 -48.306  0.00  0.00     0.100 A 
ATOM     28  C   UNL d   1     -42.594-123.489 -48.022  0.00  0.00     0.025 A 
ATOM     29  C   UNL d   1     -42.768-123.601 -47.229  0.00  0.00     0.002 A 
ATOM     30  C   UNL d   1     -43.541-123.557 -46.925  0.00  0.00     0.000 C 
ATOM     31  C   UNL d   1     -42.158-123.765 -46.708  0.00  0.00     0.000 A 
ATOM     32  C   UNL d   1     -41.359-123.817 -46.987  0.00  0.00     0.002 A 
ATOM     33  C   UNL d   1     -41.196-123.704 -47.776  0.00  0.00     0.025 A 
ENDBRANCH  26  27
ENDBRANCH  25  26
ENDBRANCH  22  25
ENDBRANCH   4  20
TORSDOF 6
ENDMDL
