MODEL 1
REMARK VINA RESULT:      48.4      0.000      0.000
REMARK  5 active torsions:
REMARK  status: ('A' for Active; 'I' for Inactive)
REMARK    1  A    between atoms: N_2  and  S_1 
REMARK    2  A    between atoms: C_4  and  S_1 
REMARK    3  A    between atoms: C_5  and  N_3 
REMARK    4  A    between atoms: C_11  and  C_4 
REMARK    5  A    between atoms: C_15  and  C_11 
ROOT
ATOM      1  N   UNL d   1     -55.007-101.773 -41.028  0.00  0.00    -0.226 N 
ATOM      2  N   UNL d   1     -55.275-102.210 -39.470  0.00  0.00    -0.301 N 
ATOM      3  C   UNL d   1     -55.427-102.456 -40.866  0.00  0.00     0.111 A 
ATOM      4  C   UNL d   1     -54.721-101.306 -40.412  0.00  0.00     0.111 A 
ATOM      5  C   UNL d   1     -54.857-101.528 -39.640  0.00  0.00     0.100 A 
ATOM      6  C   UNL d   1     -55.562-102.676 -40.086  0.00  0.00     0.100 A 
ENDROOT
BRANCH   1   7
ATOM      7  S   UNL d   1     -54.872-101.551 -41.826  0.00  0.00     0.272 S 
ATOM      8  O   UNL d   1     -54.786-100.755 -41.588  0.00  0.00    -0.200 OA
ATOM      9  O   UNL d   1     -54.958-102.342 -42.057  0.00  0.00    -0.200 OA
BRANCH   7  10
ATOM     10  C   UNL d   1     -54.738-101.331 -42.611  0.00  0.00     0.116 C 
BRANCH  10  11
ATOM     11  C   UNL d   1     -54.721-100.520 -42.816  0.00  0.00     0.014 C 
BRANCH  11  12
ATOM     12  C   UNL d   1     -54.795-100.292 -43.610  0.00  0.00     0.001 A 
ATOM     13  C   UNL d   1     -54.725 -99.485 -43.817  0.00  0.00     0.000 A 
ATOM     14  C   UNL d   1     -54.799 -99.251 -44.614  0.00  0.00     0.000 A 
ATOM     15  C   UNL d   1     -54.941 -99.819 -45.200  0.00  0.00     0.000 A 
ATOM     16  C   UNL d   1     -55.012-100.631 -44.999  0.00  0.00     0.000 A 
ATOM     17  C   UNL d   1     -54.939-100.866 -44.200  0.00  0.00     0.000 A 
ENDBRANCH  11  12
ENDBRANCH  10  11
ENDBRANCH   7  10
ENDBRANCH   1   7
BRANCH   2  18
ATOM     18  C   UNL d   1     -55.407-102.425 -38.695  0.00  0.00     0.065 A 
ATOM     19  C   UNL d   1     -56.171-102.543 -38.432  0.00  0.00     0.029 A 
ATOM     20  C   UNL d   1     -56.306-102.758 -37.660  0.00  0.00     0.059 A 
ATOM     21 CL   UNL d   1     -57.081-102.878 -37.391  0.00  0.00    -0.082 Cl
ATOM     22  C   UNL d   1     -55.673-102.857 -37.142  0.00  0.00     0.011 A 
ATOM     23  C   UNL d   1     -54.910-102.738 -37.410  0.00  0.00     0.002 A 
ATOM     24  C   UNL d   1     -54.777-102.522 -38.185  0.00  0.00     0.018 A 
ENDBRANCH   2  18
TORSDOF 5
ENDMDL
