MODEL 1
REMARK VINA RESULT:      -8.3      0.000      0.000
REMARK  3 active torsions:
REMARK  status: ('A' for Active; 'I' for Inactive)
REMARK    1  A    between atoms: N_5  and  C_1 
REMARK    2  A    between atoms: C_7  and  N_2 
REMARK    3  A    between atoms: C_9  and  C_7 
ROOT
ATOM      1  C   UNL d   1     -48.139  12.768  22.964  0.00  0.00     0.720 A 
ATOM      2  N   UNL d   1     -48.841  13.117  22.699  0.00  0.00    -0.139 N 
ATOM      3  N   UNL d   1     -48.338  12.084  23.380  0.00  0.00    -0.060 NA
ATOM      4  C   UNL d   1     -49.472  12.645  22.955  0.00  0.00     0.100 A 
ATOM      5  C   UNL d   1     -49.161  12.008  23.375  0.00  0.00     0.116 A 
ATOM      6  C   UNL d   1     -50.288  12.723  22.853  0.00  0.00     0.020 A 
ATOM      7  C   UNL d   1     -49.664  11.442  23.697  0.00  0.00     0.021 A 
ATOM      8  C   UNL d   1     -50.791  12.158  23.175  0.00  0.00     0.002 A 
ATOM      9  C   UNL d   1     -50.480  11.521  23.595  0.00  0.00     0.002 A 
ENDROOT
BRANCH   2  10
ATOM     10  C   UNL d   1     -48.899  13.815  22.257  0.00  0.00     0.098 C 
BRANCH  10  11
ATOM     11  C   UNL d   1     -49.345  14.447  22.552  0.00  0.00     0.018 A 
ATOM     12  C   UNL d   1     -50.019  14.692  22.158  0.00  0.00     0.002 A 
ATOM     13  C   UNL d   1     -50.462  15.322  22.454  0.00  0.00     0.000 A 
ATOM     14  C   UNL d   1     -50.223  15.704  23.147  0.00  0.00     0.000 A 
ATOM     15  C   UNL d   1     -49.539  15.450  23.539  0.00  0.00     0.000 A 
ATOM     16  C   UNL d   1     -49.100  14.821  23.241  0.00  0.00     0.002 A 
ENDBRANCH  10  11
ENDBRANCH   2  10
BRANCH   1  17
ATOM     17  N   UNL d   1     -47.380  13.060  22.830  0.00  0.00    -0.136 N 
ATOM     18  C   UNL d   1     -47.048  13.033  22.074  0.00  0.00     0.119 A 
ATOM     19  C   UNL d   1     -46.292  13.326  21.948  0.00  0.00     0.119 A 
ATOM     20  N   UNL d   1     -45.861  13.646  22.574  0.00  0.00    -0.239 NA
ATOM     21  C   UNL d   1     -46.193  13.673  23.329  0.00  0.00     0.119 A 
ATOM     22  C   UNL d   1     -46.956  13.379  23.465  0.00  0.00     0.119 A 
ENDBRANCH   1  17
TORSDOF 3
ENDMDL
MODEL 2
REMARK VINA RESULT:      -7.6      1.037      3.003
REMARK  3 active torsions:
REMARK  status: ('A' for Active; 'I' for Inactive)
REMARK    1  A    between atoms: N_5  and  C_1 
REMARK    2  A    between atoms: C_7  and  N_2 
REMARK    3  A    between atoms: C_9  and  C_7 
ROOT
ATOM      1  C   UNL d   1     -49.648  13.453  22.972  0.00  0.00     0.720 A 
ATOM      2  N   UNL d   1     -48.961  13.155  22.619  0.00  0.00    -0.139 N 
ATOM      3  N   UNL d   1     -49.976  12.853  23.433  0.00  0.00    -0.060 NA
ATOM      4  C   UNL d   1     -48.870  12.370  22.864  0.00  0.00     0.100 A 
ATOM      5  C   UNL d   1     -49.496  12.183  23.367  0.00  0.00     0.116 A 
ATOM      6  C   UNL d   1     -48.290  11.807  22.689  0.00  0.00     0.020 A 
ATOM      7  C   UNL d   1     -49.548  11.432  23.698  0.00  0.00     0.021 A 
ATOM      8  C   UNL d   1     -48.343  11.057  23.020  0.00  0.00     0.002 A 
ATOM      9  C   UNL d   1     -48.969  10.870  23.522  0.00  0.00     0.002 A 
ENDROOT
BRANCH   2  10
ATOM     10  C   UNL d   1     -48.458  13.572  22.110  0.00  0.00     0.098 C 
BRANCH  10  11
ATOM     11  C   UNL d   1     -47.657  13.649  22.304  0.00  0.00     0.018 A 
ATOM     12  C   UNL d   1     -47.088  13.269  21.855  0.00  0.00     0.002 A 
ATOM     13  C   UNL d   1     -46.291  13.348  22.051  0.00  0.00     0.000 A 
ATOM     14  C   UNL d   1     -46.069  13.811  22.699  0.00  0.00     0.000 A 
ATOM     15  C   UNL d   1     -46.652  14.192  23.148  0.00  0.00     0.000 A 
ATOM     16  C   UNL d   1     -47.446  14.111  22.950  0.00  0.00     0.002 A 
ENDBRANCH  10  11
ENDBRANCH   2  10
BRANCH   1  17
ATOM     17  N   UNL d   1     -49.944  14.216  22.875  0.00  0.00    -0.136 N 
ATOM     18  C   UNL d   1     -49.878  14.772  23.483  0.00  0.00     0.119 A 
ATOM     19  C   UNL d   1     -50.174  15.529  23.378  0.00  0.00     0.119 A 
ATOM     20  N   UNL d   1     -50.538  15.740  22.669  0.00  0.00    -0.239 NA
ATOM     21  C   UNL d   1     -50.603  15.184  22.062  0.00  0.00     0.119 A 
ATOM     22  C   UNL d   1     -50.307  14.416  22.159  0.00  0.00     0.119 A 
ENDBRANCH   1  17
TORSDOF 3
ENDMDL
MODEL 3
REMARK VINA RESULT:      -7.6      0.744      2.565
REMARK  3 active torsions:
REMARK  status: ('A' for Active; 'I' for Inactive)
REMARK    1  A    between atoms: N_5  and  C_1 
REMARK    2  A    between atoms: C_7  and  N_2 
REMARK    3  A    between atoms: C_9  and  C_7 
ROOT
ATOM      1  C   UNL d   1     -47.777  14.157  22.679  0.00  0.00     0.720 A 
ATOM      2  N   UNL d   1     -48.500  13.822  22.453  0.00  0.00    -0.139 N 
ATOM      3  N   UNL d   1     -47.925  14.925  22.940  0.00  0.00    -0.060 NA
ATOM      4  C   UNL d   1     -49.092  14.389  22.576  0.00  0.00     0.100 A 
ATOM      5  C   UNL d   1     -48.737  15.069  22.877  0.00  0.00     0.116 A 
ATOM      6  C   UNL d   1     -49.908  14.362  22.449  0.00  0.00     0.020 A 
ATOM      7  C   UNL d   1     -49.195  15.729  23.054  0.00  0.00     0.021 A 
ATOM      8  C   UNL d   1     -50.366  15.021  22.626  0.00  0.00     0.002 A 
ATOM      9  C   UNL d   1     -50.011  15.701  22.927  0.00  0.00     0.002 A 
ENDROOT
BRANCH   2  10
ATOM     10  C   UNL d   1     -48.609  13.057  22.156  0.00  0.00     0.098 C 
BRANCH  10  11
ATOM     11  C   UNL d   1     -49.102  12.530  22.560  0.00  0.00     0.018 A 
ATOM     12  C   UNL d   1     -48.887  12.250  23.297  0.00  0.00     0.002 A 
ATOM     13  C   UNL d   1     -49.381  11.725  23.698  0.00  0.00     0.000 A 
ATOM     14  C   UNL d   1     -50.092  11.482  23.353  0.00  0.00     0.000 A 
ATOM     15  C   UNL d   1     -50.302  11.771  22.604  0.00  0.00     0.000 A 
ATOM     16  C   UNL d   1     -49.807  12.295  22.208  0.00  0.00     0.002 A 
ENDBRANCH  10  11
ENDBRANCH   2  10
BRANCH   1  17
ATOM     17  N   UNL d   1     -47.045  13.780  22.645  0.00  0.00    -0.136 N 
ATOM     18  C   UNL d   1     -46.702  13.595  21.917  0.00  0.00     0.119 A 
ATOM     19  C   UNL d   1     -45.973  13.220  21.891  0.00  0.00     0.119 A 
ATOM     20  N   UNL d   1     -45.580  13.027  22.590  0.00  0.00    -0.239 NA
ATOM     21  C   UNL d   1     -45.923  13.212  23.317  0.00  0.00     0.119 A 
ATOM     22  C   UNL d   1     -46.659  13.591  23.352  0.00  0.00     0.119 A 
ENDBRANCH   1  17
TORSDOF 3
ENDMDL
MODEL 4
REMARK VINA RESULT:      -6.8      0.840      2.893
REMARK  3 active torsions:
REMARK  status: ('A' for Active; 'I' for Inactive)
REMARK    1  A    between atoms: N_5  and  C_1 
REMARK    2  A    between atoms: C_7  and  N_2 
REMARK    3  A    between atoms: C_9  and  C_7 
ROOT
ATOM      1  C   UNL d   1     -48.296  12.630  22.817  0.00  0.00     0.720 A 
ATOM      2  N   UNL d   1     -48.160  13.392  23.110  0.00  0.00    -0.139 N 
ATOM      3  N   UNL d   1     -47.607  12.378  22.439  0.00  0.00    -0.060 NA
ATOM      4  C   UNL d   1     -47.385  13.607  22.910  0.00  0.00     0.100 A 
ATOM      5  C   UNL d   1     -47.044  12.982  22.496  0.00  0.00     0.116 A 
ATOM      6  C   UNL d   1     -46.955  14.298  23.057  0.00  0.00     0.020 A 
ATOM      7  C   UNL d   1     -46.269  13.040  22.226  0.00  0.00     0.021 A 
ATOM      8  C   UNL d   1     -46.182  14.356  22.787  0.00  0.00     0.002 A 
ATOM      9  C   UNL d   1     -45.840  13.730  22.374  0.00  0.00     0.002 A 
ENDROOT
BRANCH   2  10
ATOM     10  C   UNL d   1     -48.705  13.855  23.527  0.00  0.00     0.098 C 
BRANCH  10  11
ATOM     11  C   UNL d   1     -49.040  14.518  23.163  0.00  0.00     0.018 A 
ATOM     12  C   UNL d   1     -49.064  14.569  22.347  0.00  0.00     0.002 A 
ATOM     13  C   UNL d   1     -49.398  15.231  21.986  0.00  0.00     0.000 A 
ATOM     14  C   UNL d   1     -49.708  15.842  22.450  0.00  0.00     0.000 A 
ATOM     15  C   UNL d   1     -49.679  15.782  23.276  0.00  0.00     0.000 A 
ATOM     16  C   UNL d   1     -49.345  15.120  23.632  0.00  0.00     0.002 A 
ENDBRANCH  10  11
ENDBRANCH   2  10
BRANCH   1  17
ATOM     17  N   UNL d   1     -48.998  12.206  22.894  0.00  0.00    -0.136 N 
ATOM     18  C   UNL d   1     -49.523  12.145  22.259  0.00  0.00     0.119 A 
ATOM     19  C   UNL d   1     -50.220  11.721  22.343  0.00  0.00     0.119 A 
ATOM     20  N   UNL d   1     -50.400  11.355  23.060  0.00  0.00    -0.239 NA
ATOM     21  C   UNL d   1     -49.875  11.416  23.694  0.00  0.00     0.119 A 
ATOM     22  C   UNL d   1     -49.169  11.843  23.617  0.00  0.00     0.119 A 
ENDBRANCH   1  17
TORSDOF 3
ENDMDL
MODEL 5
REMARK VINA RESULT:      -6.4      9.327     10.730
REMARK  3 active torsions:
REMARK  status: ('A' for Active; 'I' for Inactive)
REMARK    1  A    between atoms: N_5  and  C_1 
REMARK    2  A    between atoms: C_7  and  N_2 
REMARK    3  A    between atoms: C_9  and  C_7 
ROOT
ATOM      1  C   UNL d   1     -40.150  15.444  18.963  0.00  0.00     0.720 A 
ATOM      2  N   UNL d   1     -39.707  15.323  18.273  0.00  0.00    -0.139 N 
ATOM      3  N   UNL d   1     -40.906  15.686  18.738  0.00  0.00    -0.060 NA
ATOM      4  C   UNL d   1     -40.195  15.492  17.626  0.00  0.00     0.100 A 
ATOM      5  C   UNL d   1     -40.934  15.716  17.912  0.00  0.00     0.116 A 
ATOM      6  C   UNL d   1     -40.049  15.467  16.812  0.00  0.00     0.020 A 
ATOM      7  C   UNL d   1     -41.536  15.917  17.388  0.00  0.00     0.021 A 
ATOM      8  C   UNL d   1     -40.650  15.668  16.289  0.00  0.00     0.002 A 
ATOM      9  C   UNL d   1     -41.390  15.892  16.576  0.00  0.00     0.002 A 
ENDROOT
BRANCH   2  10
ATOM     10  C   UNL d   1     -38.917  15.077  18.242  0.00  0.00     0.098 C 
BRANCH  10  11
ATOM     11  C   UNL d   1     -38.728  14.364  17.867  0.00  0.00     0.018 A 
ATOM     12  C   UNL d   1     -39.103  13.672  18.089  0.00  0.00     0.002 A 
ATOM     13  C   UNL d   1     -38.912  12.963  17.713  0.00  0.00     0.000 A 
ATOM     14  C   UNL d   1     -38.342  12.953  17.114  0.00  0.00     0.000 A 
ATOM     15  C   UNL d   1     -37.967  13.660  16.896  0.00  0.00     0.000 A 
ATOM     16  C   UNL d   1     -38.160  14.365  17.273  0.00  0.00     0.002 A 
ENDBRANCH  10  11
ENDBRANCH   2  10
BRANCH   1  17
ATOM     17  N   UNL d   1     -39.875  15.339  19.732  0.00  0.00    -0.136 N 
ATOM     18  C   UNL d   1     -40.149  14.710  20.193  0.00  0.00     0.119 A 
ATOM     19  C   UNL d   1     -39.871  14.611  20.958  0.00  0.00     0.119 A 
ATOM     20  N   UNL d   1     -39.318  15.137  21.270  0.00  0.00    -0.239 NA
ATOM     21  C   UNL d   1     -39.044  15.765  20.810  0.00  0.00     0.119 A 
ATOM     22  C   UNL d   1     -39.320  15.872  20.036  0.00  0.00     0.119 A 
ENDBRANCH   1  17
TORSDOF 3
ENDMDL
MODEL 6
REMARK VINA RESULT:      -5.7      8.385     10.263
REMARK  3 active torsions:
REMARK  status: ('A' for Active; 'I' for Inactive)
REMARK    1  A    between atoms: N_5  and  C_1 
REMARK    2  A    between atoms: C_7  and  N_2 
REMARK    3  A    between atoms: C_9  and  C_7 
ROOT
ATOM      1  C   UNL d   1     -38.502  13.977  19.647  0.00  0.00     0.720 A 
ATOM      2  N   UNL d   1     -38.817  14.451  20.249  0.00  0.00    -0.139 N 
ATOM      3  N   UNL d   1     -38.123  13.336  20.003  0.00  0.00    -0.060 NA
ATOM      4  C   UNL d   1     -38.630  14.098  20.975  0.00  0.00     0.100 A 
ATOM      5  C   UNL d   1     -38.202  13.410  20.823  0.00  0.00     0.116 A 
ATOM      6  C   UNL d   1     -38.800  14.323  21.751  0.00  0.00     0.020 A 
ATOM      7  C   UNL d   1     -37.939  12.942  21.446  0.00  0.00     0.021 A 
ATOM      8  C   UNL d   1     -38.538  13.855  22.374  0.00  0.00     0.002 A 
ATOM      9  C   UNL d   1     -38.110  13.168  22.222  0.00  0.00     0.002 A 
ENDROOT
BRANCH   2  10
ATOM     10  C   UNL d   1     -39.244  15.152  20.141  0.00  0.00     0.098 C 
BRANCH  10  11
ATOM     11  C   UNL d   1     -40.027  15.197  20.405  0.00  0.00     0.018 A 
ATOM     12  C   UNL d   1     -40.547  14.585  20.253  0.00  0.00     0.002 A 
ATOM     13  C   UNL d   1     -41.327  14.632  20.518  0.00  0.00     0.000 A 
ATOM     14  C   UNL d   1     -41.581  15.299  20.935  0.00  0.00     0.000 A 
ATOM     15  C   UNL d   1     -41.047  15.916  21.084  0.00  0.00     0.000 A 
ATOM     16  C   UNL d   1     -40.270  15.864  20.819  0.00  0.00     0.002 A 
ENDBRANCH  10  11
ENDBRANCH   2  10
BRANCH   1  17
ATOM     17  N   UNL d   1     -38.562  14.128  18.839  0.00  0.00    -0.136 N 
ATOM     18  C   UNL d   1     -39.044  13.658  18.360  0.00  0.00     0.119 A 
ATOM     19  C   UNL d   1     -39.098  13.815  17.557  0.00  0.00     0.119 A 
ATOM     20  N   UNL d   1     -38.674  14.439  17.225  0.00  0.00    -0.239 NA
ATOM     21  C   UNL d   1     -38.193  14.907  17.704  0.00  0.00     0.119 A 
ATOM     22  C   UNL d   1     -38.132  14.756  18.517  0.00  0.00     0.119 A 
ENDBRANCH   1  17
TORSDOF 3
ENDMDL
MODEL 7
REMARK VINA RESULT:      -5.5      9.401     10.742
REMARK  3 active torsions:
REMARK  status: ('A' for Active; 'I' for Inactive)
REMARK    1  A    between atoms: N_5  and  C_1 
REMARK    2  A    between atoms: C_7  and  N_2 
REMARK    3  A    between atoms: C_9  and  C_7 
ROOT
ATOM      1  C   UNL d   1     -38.900  14.380  19.284  0.00  0.00     0.720 A 
ATOM      2  N   UNL d   1     -38.941  14.645  18.501  0.00  0.00    -0.139 N 
ATOM      3  N   UNL d   1     -38.610  13.607  19.274  0.00  0.00    -0.060 NA
ATOM      4  C   UNL d   1     -38.676  14.032  18.011  0.00  0.00     0.100 A 
ATOM      5  C   UNL d   1     -38.472  13.392  18.488  0.00  0.00     0.116 A 
ATOM      6  C   UNL d   1     -38.597  13.986  17.189  0.00  0.00     0.020 A 
ATOM      7  C   UNL d   1     -38.187  12.699  18.148  0.00  0.00     0.021 A 
ATOM      8  C   UNL d   1     -38.313  13.293  16.850  0.00  0.00     0.002 A 
ATOM      9  C   UNL d   1     -38.109  12.653  17.327  0.00  0.00     0.002 A 
ENDROOT
BRANCH   2  10
ATOM     10  C   UNL d   1     -39.202  15.392  18.254  0.00  0.00     0.098 C 
BRANCH  10  11
ATOM     11  C   UNL d   1     -39.869  15.450  17.768  0.00  0.00     0.018 A 
ATOM     12  C   UNL d   1     -40.573  15.102  17.995  0.00  0.00     0.002 A 
ATOM     13  C   UNL d   1     -41.237  15.162  17.509  0.00  0.00     0.000 A 
ATOM     14  C   UNL d   1     -41.188  15.573  16.793  0.00  0.00     0.000 A 
ATOM     15  C   UNL d   1     -40.470  15.922  16.571  0.00  0.00     0.000 A 
ATOM     16  C   UNL d   1     -39.810  15.860  17.059  0.00  0.00     0.002 A 
ENDBRANCH  10  11
ENDBRANCH   2  10
BRANCH   1  17
ATOM     17  N   UNL d   1     -39.112  14.818  19.949  0.00  0.00    -0.136 N 
ATOM     18  C   UNL d   1     -38.683  15.491  20.162  0.00  0.00     0.119 A 
ATOM     19  C   UNL d   1     -38.901  15.921  20.825  0.00  0.00     0.119 A 
ATOM     20  N   UNL d   1     -39.547  15.686  21.280  0.00  0.00    -0.239 NA
ATOM     21  C   UNL d   1     -39.976  15.014  21.067  0.00  0.00     0.119 A 
ATOM     22  C   UNL d   1     -39.762  14.573  20.398  0.00  0.00     0.119 A 
ENDBRANCH   1  17
TORSDOF 3
ENDMDL
