MODEL 1
REMARK VINA RESULT:      -4.3      0.000      0.000
REMARK  4 active torsions:
REMARK  status: ('A' for Active; 'I' for Inactive)
REMARK       I    between atoms: N_3  and  C_1 
REMARK    1  A    between atoms: C_9  and  C_1 
REMARK    2  A    between atoms: C_2  and  N_3 
REMARK    3  A    between atoms: O_15  and  C_6 
REMARK    4  A    between atoms: O_16  and  C_8 
ROOT
ATOM      1  C   UNL d   1      58.678  -0.150  30.528  0.00  0.00     0.109 A 
ATOM      2  C   UNL d   1      58.500  -0.538  29.827  0.00  0.00     0.046 A 
ATOM      3  C   UNL d   1      59.898   0.336  29.953  0.00  0.00     0.039 A 
ATOM      4  C   UNL d   1      59.384   0.290  30.587  0.00  0.00     0.113 A 
ATOM      5  C   UNL d   1      59.716  -0.060  29.239  0.00  0.00     0.082 A 
ATOM      6  C   UNL d   1      59.016  -0.494  29.184  0.00  0.00     0.106 A 
ATOM      7 CL   UNL d   1      60.236  -0.013  28.597  0.00  0.00    -0.080 Cl
ENDROOT
BRANCH   1   8
ATOM      8  N   UNL d   1      58.162  -0.196  31.166  0.00  0.00    -0.206 NA
ATOM      9  C   UNL d   1      57.373   0.017  31.072  0.00  0.00     0.279 C 
ATOM     10  O   UNL d   1      57.100   0.276  30.338  0.00  0.00    -0.265 OA
BRANCH   9  11
ATOM     11  C   UNL d   1      56.850  -0.025  31.705  0.00  0.00     0.058 A 
ATOM     12  C   UNL d   1      56.610  -0.759  31.996  0.00  0.00     0.006 A 
ATOM     13  C   UNL d   1      56.084  -0.804  32.633  0.00  0.00     0.012 A 
ATOM     14  C   UNL d   1      55.803  -0.108  32.974  0.00  0.00     0.058 A 
ATOM     15  C   UNL d   1      56.043   0.628  32.684  0.00  0.00     0.012 A 
ATOM     16 CL   UNL d   1      55.278  -0.144  33.611  0.00  0.00    -0.082 Cl
ATOM     17  C   UNL d   1      56.566   0.662  32.050  0.00  0.00     0.006 A 
ENDBRANCH   9  11
ENDBRANCH   1   8
BRANCH   4  18
ATOM     18  O   UNL d   1      59.560   0.679  31.293  0.00  0.00    -0.327 OA
ATOM     19  C   UNL d   1      60.323   0.633  31.606  0.00  0.00     0.181 C 
ENDBRANCH   4  18
BRANCH   6  20
ATOM     20  O   UNL d   1      58.836  -0.888  28.473  0.00  0.00    -0.327 OA
ATOM     21  C   UNL d   1      58.843  -1.709  28.457  0.00  0.00     0.181 C 
ENDBRANCH   6  20
TORSDOF 4
ENDMDL
MODEL 2
REMARK VINA RESULT:      -3.2      0.768      1.761
REMARK  4 active torsions:
REMARK  status: ('A' for Active; 'I' for Inactive)
REMARK       I    between atoms: N_3  and  C_1 
REMARK    1  A    between atoms: C_9  and  C_1 
REMARK    2  A    between atoms: C_2  and  N_3 
REMARK    3  A    between atoms: O_15  and  C_6 
REMARK    4  A    between atoms: O_16  and  C_8 
ROOT
ATOM      1  C   UNL d   1      58.559  -0.580  30.072  0.00  0.00     0.109 A 
ATOM      2  C   UNL d   1      59.121   0.010  30.177  0.00  0.00     0.046 A 
ATOM      3  C   UNL d   1      59.254  -1.039  28.905  0.00  0.00     0.039 A 
ATOM      4  C   UNL d   1      58.630  -1.106  29.429  0.00  0.00     0.113 A 
ATOM      5  C   UNL d   1      59.827  -0.438  29.013  0.00  0.00     0.082 A 
ATOM      6  C   UNL d   1      59.752   0.081  29.651  0.00  0.00     0.106 A 
ATOM      7 CL   UNL d   1      60.458  -0.369  28.484  0.00  0.00    -0.080 Cl
ENDROOT
BRANCH   1   8
ATOM      8  N   UNL d   1      57.931  -0.649  30.598  0.00  0.00    -0.206 NA
ATOM      9  C   UNL d   1      57.739  -0.021  31.093  0.00  0.00     0.279 C 
ATOM     10  O   UNL d   1      58.177   0.678  31.062  0.00  0.00    -0.265 OA
BRANCH   9  11
ATOM     11  C   UNL d   1      57.113  -0.082  31.622  0.00  0.00     0.058 A 
ATOM     12  C   UNL d   1      56.961  -0.797  32.005  0.00  0.00     0.006 A 
ATOM     13  C   UNL d   1      56.332  -0.860  32.537  0.00  0.00     0.012 A 
ATOM     14  C   UNL d   1      55.857  -0.201  32.680  0.00  0.00     0.058 A 
ATOM     15  C   UNL d   1      56.007   0.516  32.297  0.00  0.00     0.012 A 
ATOM     16 CL   UNL d   1      55.226  -0.256  33.211  0.00  0.00    -0.082 Cl
ATOM     17  C   UNL d   1      56.636   0.568  31.770  0.00  0.00     0.006 A 
ENDBRANCH   9  11
ENDBRANCH   1   8
BRANCH   4  18
ATOM     18  O   UNL d   1      58.064  -1.698  29.326  0.00  0.00    -0.327 OA
ATOM     19  C   UNL d   1      58.273  -2.402  28.948  0.00  0.00     0.181 C 
ENDBRANCH   4  18
BRANCH   6  20
ATOM     20  O   UNL d   1      60.322   0.680  29.758  0.00  0.00    -0.327 OA
ATOM     21  C   UNL d   1      60.819   0.646  30.411  0.00  0.00     0.181 C 
ENDBRANCH   6  20
TORSDOF 4
ENDMDL
