MODEL 1
REMARK VINA RESULT:      -6.4      0.000      0.000
REMARK  3 active torsions:
REMARK  status: ('A' for Active; 'I' for Inactive)
REMARK    1  A    between atoms: S_10  and  C_7 
REMARK    2  A    between atoms: C_13  and  S_10 
REMARK    3  A    between atoms: C_12  and  C_13 
ROOT
ATOM      1  N   UNL d   1     -41.488-122.644 -53.103  0.00  0.00    -0.167 N 
ATOM      2  C   UNL d   1     -41.239-123.425 -53.112  0.00  0.00     0.220 A 
ATOM      3  C   UNL d   1     -41.654-122.241 -53.812  0.00  0.00     0.301 A 
ATOM      4  S   UNL d   1     -41.123-123.662 -52.333  0.00  0.00    -0.019 SA
ATOM      5  N   UNL d   1     -41.525-122.399 -52.325  0.00  0.00    -0.147 NA
ATOM      6  N   UNL d   1     -41.153-123.816 -53.838  0.00  0.00    -0.121 NA
ATOM      7  C   UNL d   1     -41.301-123.023 -51.851  0.00  0.00     0.163 A 
ATOM      8  N   UNL d   1     -41.313-123.429 -54.539  0.00  0.00    -0.141 NA
ATOM      9  C   UNL d   1     -41.562-122.644 -54.526  0.00  0.00     0.161 A 
ATOM     10  O   UNL d   1     -41.902-121.459 -53.799  0.00  0.00    -0.263 OA
ATOM     11  C   UNL d   1     -41.727-122.245 -55.231  0.00  0.00     0.028 C 
ENDROOT
BRANCH   7  12
ATOM     12  S   UNL d   1     -41.261-123.014 -51.024  0.00  0.00    -0.059 SA
BRANCH  12  13
ATOM     13  C   UNL d   1     -41.932-122.837 -50.585  0.00  0.00     0.038 C 
BRANCH  13  14
ATOM     14  C   UNL d   1     -41.887-122.990 -49.778  0.00  0.00     0.017 A 
ATOM     15  C   UNL d   1     -42.558-122.905 -49.301  0.00  0.00     0.058 A 
ATOM     16 CL   UNL d   1     -43.272-122.667 -49.635  0.00  0.00    -0.082 Cl
ATOM     17  C   UNL d   1     -42.521-123.054 -48.501  0.00  0.00     0.011 A 
ATOM     18  C   UNL d   1     -41.803-123.294 -48.156  0.00  0.00     0.001 A 
ATOM     19  C   UNL d   1     -41.135-123.381 -48.620  0.00  0.00     0.000 A 
ATOM     20  C   UNL d   1     -41.169-123.230 -49.432  0.00  0.00     0.001 A 
ENDBRANCH  13  14
ENDBRANCH  12  13
ENDBRANCH   7  12
TORSDOF 3
ENDMDL
MODEL 2
REMARK VINA RESULT:      -6.0      2.073      4.615
REMARK  3 active torsions:
REMARK  status: ('A' for Active; 'I' for Inactive)
REMARK    1  A    between atoms: S_10  and  C_7 
REMARK    2  A    between atoms: C_13  and  S_10 
REMARK    3  A    between atoms: C_12  and  C_13 
ROOT
ATOM      1  N   UNL d   1     -42.232-122.665 -50.483  0.00  0.00    -0.167 N 
ATOM      2  C   UNL d   1     -41.453-122.920 -50.460  0.00  0.00     0.220 A 
ATOM      3  C   UNL d   1     -42.720-122.726 -49.811  0.00  0.00     0.301 A 
ATOM      4  S   UNL d   1     -41.123-122.788 -51.201  0.00  0.00    -0.019 SA
ATOM      5  N   UNL d   1     -42.383-122.377 -51.231  0.00  0.00    -0.147 NA
ATOM      6  N   UNL d   1     -41.151-123.242 -49.758  0.00  0.00    -0.121 NA
ATOM      7  C   UNL d   1     -41.703-122.452 -51.674  0.00  0.00     0.163 A 
ATOM      8  N   UNL d   1     -41.622-123.305 -49.094  0.00  0.00    -0.141 NA
ATOM      9  C   UNL d   1     -42.404-123.048 -49.121  0.00  0.00     0.161 A 
ATOM     10  O   UNL d   1     -43.499-122.469 -49.837  0.00  0.00    -0.263 OA
ATOM     11  C   UNL d   1     -42.888-123.108 -48.452  0.00  0.00     0.028 C 
ENDROOT
BRANCH   7  12
ATOM     12  S   UNL d   1     -41.612-122.227 -52.466  0.00  0.00    -0.059 SA
BRANCH  12  13
ATOM     13  C   UNL d   1     -41.494-122.801 -53.041  0.00  0.00     0.038 C 
BRANCH  13  14
ATOM     14  C   UNL d   1     -41.663-122.577 -53.814  0.00  0.00     0.017 A 
ATOM     15  C   UNL d   1     -41.482-123.085 -54.443  0.00  0.00     0.058 A 
ATOM     16 CL   UNL d   1     -41.132-123.815 -54.294  0.00  0.00    -0.082 Cl
ATOM     17  C   UNL d   1     -41.647-122.870 -55.211  0.00  0.00     0.011 A 
ATOM     18  C   UNL d   1     -42.001-122.135 -55.371  0.00  0.00     0.001 A 
ATOM     19  C   UNL d   1     -42.183-121.627 -54.756  0.00  0.00     0.000 A 
ATOM     20  C   UNL d   1     -42.017-121.841 -53.975  0.00  0.00     0.001 A 
ENDBRANCH  13  14
ENDBRANCH  12  13
ENDBRANCH   7  12
TORSDOF 3
ENDMDL
MODEL 3
REMARK VINA RESULT:      -4.2      2.471      4.761
REMARK  3 active torsions:
REMARK  status: ('A' for Active; 'I' for Inactive)
REMARK    1  A    between atoms: S_10  and  C_7 
REMARK    2  A    between atoms: C_13  and  S_10 
REMARK    3  A    between atoms: C_12  and  C_13 
ROOT
ATOM      1  N   UNL d   1     -42.146-123.178 -48.912  0.00  0.00    -0.167 N 
ATOM      2  C   UNL d   1     -41.423-123.556 -48.831  0.00  0.00     0.220 A 
ATOM      3  C   UNL d   1     -42.580-122.940 -48.243  0.00  0.00     0.301 A 
ATOM      4  S   UNL d   1     -41.137-123.719 -49.585  0.00  0.00    -0.019 SA
ATOM      5  N   UNL d   1     -42.307-123.107 -49.709  0.00  0.00    -0.147 NA
ATOM      6  N   UNL d   1     -41.123-123.702 -48.072  0.00  0.00    -0.121 NA
ATOM      7  C   UNL d   1     -41.689-123.438 -50.124  0.00  0.00     0.163 A 
ATOM      8  N   UNL d   1     -41.540-123.472 -47.410  0.00  0.00    -0.141 NA
ATOM      9  C   UNL d   1     -42.267-123.092 -47.495  0.00  0.00     0.161 A 
ATOM     10  O   UNL d   1     -43.302-122.562 -48.327  0.00  0.00    -0.263 OA
ATOM     11  C   UNL d   1     -42.696-122.855 -46.829  0.00  0.00     0.028 C 
ENDROOT
BRANCH   7  12
ATOM     12  S   UNL d   1     -41.626-123.484 -50.949  0.00  0.00    -0.059 SA
BRANCH  12  13
ATOM     13  C   UNL d   1     -41.213-122.905 -51.359  0.00  0.00     0.038 C 
BRANCH  13  14
ATOM     14  C   UNL d   1     -41.189-122.989 -52.176  0.00  0.00     0.017 A 
ATOM     15  C   UNL d   1     -41.159-122.319 -52.662  0.00  0.00     0.058 A 
ATOM     16 CL   UNL d   1     -41.153-121.568 -52.326  0.00  0.00    -0.082 Cl
ATOM     17  C   UNL d   1     -41.136-122.395 -53.473  0.00  0.00     0.011 A 
ATOM     18  C   UNL d   1     -41.142-123.150 -53.821  0.00  0.00     0.001 A 
ATOM     19  C   UNL d   1     -41.171-123.817 -53.348  0.00  0.00     0.000 A 
ATOM     20  C   UNL d   1     -41.195-123.745 -52.525  0.00  0.00     0.001 A 
ENDBRANCH  13  14
ENDBRANCH  12  13
ENDBRANCH   7  12
TORSDOF 3
ENDMDL
MODEL 4
REMARK VINA RESULT:      -3.6      1.365      1.774
REMARK  3 active torsions:
REMARK  status: ('A' for Active; 'I' for Inactive)
REMARK    1  A    between atoms: S_10  and  C_7 
REMARK    2  A    between atoms: C_13  and  S_10 
REMARK    3  A    between atoms: C_12  and  C_13 
ROOT
ATOM      1  N   UNL d   1     -41.714-122.691 -51.730  0.00  0.00    -0.167 N 
ATOM      2  C   UNL d   1     -41.559-121.897 -51.595  0.00  0.00     0.220 A 
ATOM      3  C   UNL d   1     -41.632-123.018 -52.491  0.00  0.00     0.301 A 
ATOM      4  S   UNL d   1     -41.689-121.746 -50.797  0.00  0.00    -0.019 SA
ATOM      5  N   UNL d   1     -41.938-123.029 -51.022  0.00  0.00    -0.147 NA
ATOM      6  N   UNL d   1     -41.318-121.417 -52.226  0.00  0.00    -0.121 NA
ATOM      7  C   UNL d   1     -41.923-122.451 -50.448  0.00  0.00     0.163 A 
ATOM      8  N   UNL d   1     -41.235-121.728 -52.976  0.00  0.00    -0.141 NA
ATOM      9  C   UNL d   1     -41.391-122.526 -53.108  0.00  0.00     0.161 A 
ATOM     10  O   UNL d   1     -41.787-123.812 -52.623  0.00  0.00    -0.263 OA
ATOM     11  C   UNL d   1     -41.309-122.850 -53.865  0.00  0.00     0.028 C 
ENDROOT
BRANCH   7  12
ATOM     12  S   UNL d   1     -42.112-122.555 -49.648  0.00  0.00    -0.059 SA
BRANCH  12  13
ATOM     13  C   UNL d   1     -42.282-123.307 -49.365  0.00  0.00     0.038 C 
BRANCH  13  14
ATOM     14  C   UNL d   1     -42.100-123.445 -48.575  0.00  0.00     0.017 A 
ATOM     15  C   UNL d   1     -42.703-123.613 -48.033  0.00  0.00     0.058 A 
ATOM     16 CL   UNL d   1     -43.485-123.643 -48.285  0.00  0.00    -0.082 Cl
ATOM     17  C   UNL d   1     -42.530-123.751 -47.248  0.00  0.00     0.011 A 
ATOM     18  C   UNL d   1     -41.742-123.723 -46.985  0.00  0.00     0.001 A 
ATOM     19  C   UNL d   1     -41.140-123.557 -47.514  0.00  0.00     0.000 A 
ATOM     20  C   UNL d   1     -41.311-123.417 -48.310  0.00  0.00     0.001 A 
ENDBRANCH  13  14
ENDBRANCH  12  13
ENDBRANCH   7  12
TORSDOF 3
ENDMDL
