MODEL 1
REMARK VINA RESULT:      -3.8      0.000      0.000
REMARK  7 active torsions:
REMARK  status: ('A' for Active; 'I' for Inactive)
REMARK    1  A    between atoms: N_3  and  C_2 
REMARK       I    between atoms: C_6  and  N_3 
REMARK    2  A    between atoms: C_11  and  C_4 
REMARK    3  A    between atoms: C_5  and  C_6 
REMARK    4  A    between atoms: C_15  and  C_11 
REMARK    5  A    between atoms: C_18  and  C_12 
REMARK    6  A    between atoms: O_17  and  C_18 
REMARK    7  A    between atoms: C_19  and  O_17 
ROOT
ATOM      1  C   UNL d   1      32.556  18.466 -23.360  0.00  0.00     0.158 A 
ATOM      2  O   UNL d   1      32.577  18.883 -22.651  0.00  0.00    -0.300 OA
ATOM      3  C   UNL d   1      32.966  18.902 -23.926  0.00  0.00     0.032 A 
ATOM      4  C   UNL d   1      33.001  19.582 -22.772  0.00  0.00     0.125 A 
ATOM      5  C   UNL d   1      33.241  19.591 -23.562  0.00  0.00     0.029 A 
ENDROOT
BRANCH   1   6
ATOM      6  C   UNL d   1      32.187  17.734 -23.486  0.00  0.00     0.304 C 
ATOM      7  N   UNL d   1      31.480  17.697 -23.912  0.00  0.00    -0.180 NA
ATOM      8  O   UNL d   1      32.527  17.045 -23.185  0.00  0.00    -0.263 OA
BRANCH   7   9
ATOM      9  C   UNL d   1      31.113  16.973 -24.038  0.00  0.00     0.216 A 
ATOM     10  N   UNL d   1      30.303  16.796 -23.903  0.00  0.00    -0.200 NA
ATOM     11  C   UNL d   1      30.183  16.024 -24.100  0.00  0.00     0.175 A 
ATOM     12  N   UNL d   1      30.897  15.702 -24.357  0.00  0.00    -0.187 NA
ATOM     13  S   UNL d   1      31.471  16.290 -24.319  0.00  0.00     0.054 SA
BRANCH  11  14
ATOM     14  C   UNL d   1      29.469  15.614 -24.054  0.00  0.00     0.082 C 
BRANCH  14  15
ATOM     15  C   UNL d   1      28.972  15.735 -23.400  0.00  0.00     0.199 C 
ATOM     16  O   UNL d   1      29.250  15.611 -22.636  0.00  0.00    -0.286 OA
ATOM     17  C   UNL d   1      28.190  15.984 -23.519  0.00  0.00     0.045 C 
ENDBRANCH  14  15
ENDBRANCH  11  14
ENDBRANCH   7   9
ENDBRANCH   1   6
BRANCH   4  18
ATOM     18  C   UNL d   1      33.152  20.156 -22.208  0.00  0.00     0.147 C 
BRANCH  18  19
ATOM     19  O   UNL d   1      32.520  20.495 -21.789  0.00  0.00    -0.303 OA
BRANCH  19  20
ATOM     20  C   UNL d   1      32.662  21.087 -21.235  0.00  0.00     0.100 A 
ATOM     21  C   UNL d   1      33.098  20.912 -20.557  0.00  0.00     0.025 A 
ATOM     22  C   UNL d   1      33.241  21.501 -20.005  0.00  0.00     0.002 A 
ATOM     23  C   UNL d   1      32.946  22.271 -20.127  0.00  0.00     0.000 A 
ATOM     24  C   UNL d   1      32.511  22.438 -20.808  0.00  0.00     0.002 A 
ATOM     25  C   UNL d   1      33.093  22.862 -19.566  0.00  0.00     0.000 C 
ATOM     26  C   UNL d   1      32.368  21.846 -21.362  0.00  0.00     0.025 A 
ENDBRANCH  19  20
ENDBRANCH  18  19
ENDBRANCH   4  18
TORSDOF 7
ENDMDL
MODEL 2
REMARK VINA RESULT:      -1.8      2.276      3.861
REMARK  7 active torsions:
REMARK  status: ('A' for Active; 'I' for Inactive)
REMARK    1  A    between atoms: N_3  and  C_2 
REMARK       I    between atoms: C_6  and  N_3 
REMARK    2  A    between atoms: C_11  and  C_4 
REMARK    3  A    between atoms: C_5  and  C_6 
REMARK    4  A    between atoms: C_15  and  C_11 
REMARK    5  A    between atoms: C_18  and  C_12 
REMARK    6  A    between atoms: O_17  and  C_18 
REMARK    7  A    between atoms: C_19  and  O_17 
ROOT
ATOM      1  C   UNL d   1      32.878  21.687 -21.478  0.00  0.00     0.158 A 
ATOM      2  O   UNL d   1      33.097  21.717 -20.685  0.00  0.00    -0.300 OA
ATOM      3  C   UNL d   1      32.593  22.429 -21.693  0.00  0.00     0.032 A 
ATOM      4  C   UNL d   1      32.949  22.479 -20.402  0.00  0.00     0.125 A 
ATOM      5  C   UNL d   1      32.637  22.918 -21.028  0.00  0.00     0.029 A 
ENDROOT
BRANCH   1   6
ATOM      6  C   UNL d   1      32.933  21.026 -21.976  0.00  0.00     0.304 C 
ATOM      7  N   UNL d   1      33.037  20.273 -21.652  0.00  0.00    -0.180 NA
ATOM      8  O   UNL d   1      32.884  21.124 -22.794  0.00  0.00    -0.263 OA
BRANCH   7   9
ATOM      9  C   UNL d   1      33.092  19.618 -22.144  0.00  0.00     0.216 A 
ATOM     10  N   UNL d   1      33.018  19.618 -22.981  0.00  0.00    -0.200 NA
ATOM     11  C   UNL d   1      33.109  18.858 -23.236  0.00  0.00     0.175 A 
ATOM     12  N   UNL d   1      33.240  18.373 -22.582  0.00  0.00    -0.187 NA
ATOM     13  S   UNL d   1      33.229  18.844 -21.908  0.00  0.00     0.054 SA
BRANCH  11  14
ATOM     14  C   UNL d   1      33.079  18.599 -24.018  0.00  0.00     0.082 C 
BRANCH  14  15
ATOM     15  C   UNL d   1      32.614  17.937 -24.208  0.00  0.00     0.199 C 
ATOM     16  O   UNL d   1      32.953  17.191 -24.262  0.00  0.00    -0.286 OA
ATOM     17  C   UNL d   1      31.801  18.033 -24.344  0.00  0.00     0.045 C 
ENDBRANCH  14  15
ENDBRANCH  11  14
ENDBRANCH   7   9
ENDBRANCH   1   6
BRANCH   4  18
ATOM     18  C   UNL d   1      33.089  22.743 -19.640  0.00  0.00     0.147 C 
BRANCH  18  19
ATOM     19  O   UNL d   1      32.676  22.401 -19.006  0.00  0.00    -0.303 OA
BRANCH  19  20
ATOM     20  C   UNL d   1      32.817  22.656 -18.236  0.00  0.00     0.100 A 
ATOM     21  C   UNL d   1      33.091  22.120 -17.672  0.00  0.00     0.025 A 
ATOM     22  C   UNL d   1      33.231  22.374 -16.906  0.00  0.00     0.002 A 
ATOM     23  C   UNL d   1      33.098  23.170 -16.697  0.00  0.00     0.000 A 
ATOM     24  C   UNL d   1      32.823  23.700 -17.266  0.00  0.00     0.002 A 
ATOM     25  C   UNL d   1      33.241  23.421 -15.921  0.00  0.00     0.000 C 
ATOM     26  C   UNL d   1      32.683  23.444 -18.036  0.00  0.00     0.025 A 
ENDBRANCH  19  20
ENDBRANCH  18  19
ENDBRANCH   4  18
TORSDOF 7
ENDMDL
MODEL 3
REMARK VINA RESULT:      -1.2      2.384      6.047
REMARK  7 active torsions:
REMARK  status: ('A' for Active; 'I' for Inactive)
REMARK    1  A    between atoms: N_3  and  C_2 
REMARK       I    between atoms: C_6  and  N_3 
REMARK    2  A    between atoms: C_11  and  C_4 
REMARK    3  A    between atoms: C_5  and  C_6 
REMARK    4  A    between atoms: C_15  and  C_11 
REMARK    5  A    between atoms: C_18  and  C_12 
REMARK    6  A    between atoms: O_17  and  C_18 
REMARK    7  A    between atoms: C_19  and  O_17 
ROOT
ATOM      1  C   UNL d   1      32.927  19.280 -22.739  0.00  0.00     0.158 A 
ATOM      2  O   UNL d   1      32.560  19.045 -23.437  0.00  0.00    -0.300 OA
ATOM      3  C   UNL d   1      33.189  18.604 -22.348  0.00  0.00     0.032 A 
ATOM      4  C   UNL d   1      32.591  18.221 -23.485  0.00  0.00     0.125 A 
ATOM      5  C   UNL d   1      32.981  17.950 -22.809  0.00  0.00     0.029 A 
ENDROOT
BRANCH   1   6
ATOM      6  C   UNL d   1      33.019  20.060 -22.473  0.00  0.00     0.304 C 
ATOM      7  N   UNL d   1      32.889  20.690 -22.991  0.00  0.00    -0.180 NA
ATOM      8  O   UNL d   1      33.241  20.203 -21.691  0.00  0.00    -0.263 OA
BRANCH   7   9
ATOM      9  C   UNL d   1      32.979  21.463 -22.728  0.00  0.00     0.216 A 
ATOM     10  N   UNL d   1      32.831  21.744 -21.950  0.00  0.00    -0.200 NA
ATOM     11  C   UNL d   1      32.992  22.535 -21.940  0.00  0.00     0.175 A 
ATOM     12  N   UNL d   1      33.239  22.765 -22.692  0.00  0.00    -0.187 NA
ATOM     13  S   UNL d   1      33.231  22.101 -23.178  0.00  0.00     0.054 SA
BRANCH  11  14
ATOM     14  C   UNL d   1      32.924  23.037 -21.290  0.00  0.00     0.082 C 
BRANCH  14  15
ATOM     15  C   UNL d   1      32.181  23.143 -20.935  0.00  0.00     0.199 C 
ATOM     16  O   UNL d   1      31.610  23.612 -21.295  0.00  0.00    -0.286 OA
ATOM     17  C   UNL d   1      32.015  22.772 -20.212  0.00  0.00     0.045 C 
ENDBRANCH  14  15
ENDBRANCH  11  14
ENDBRANCH   7   9
ENDBRANCH   1   6
BRANCH   4  18
ATOM     18  C   UNL d   1      32.289  17.764 -24.092  0.00  0.00     0.147 C 
BRANCH  18  19
ATOM     19  O   UNL d   1      31.538  17.937 -24.402  0.00  0.00    -0.303 OA
BRANCH  19  20
ATOM     20  C   UNL d   1      31.008  17.329 -24.564  0.00  0.00     0.100 A 
ATOM     21  C   UNL d   1      31.295  16.584 -24.771  0.00  0.00     0.025 A 
ATOM     22  C   UNL d   1      30.768  15.978 -24.933  0.00  0.00     0.002 A 
ATOM     23  C   UNL d   1      29.946  16.113 -24.888  0.00  0.00     0.000 A 
ATOM     24  C   UNL d   1      29.667  16.861 -24.680  0.00  0.00     0.002 A 
ATOM     25  C   UNL d   1      29.418  15.497 -25.053  0.00  0.00     0.000 C 
ATOM     26  C   UNL d   1      30.197  17.469 -24.518  0.00  0.00     0.025 A 
ENDBRANCH  19  20
ENDBRANCH  18  19
ENDBRANCH   4  18
TORSDOF 7
ENDMDL
