MODEL 1
REMARK VINA RESULT:      77.8      0.000      0.000
REMARK  4 active torsions:
REMARK  status: ('A' for Active; 'I' for Inactive)
REMARK    1  A    between atoms: C_6  and  C_1 
REMARK    2  A    between atoms: C_10  and  C_2 
REMARK       I    between atoms: N_14  and  C_6 
REMARK    3  A    between atoms: C_8  and  C_15 
REMARK    4  A    between atoms: C_21  and  N_14 
ROOT
ATOM      1  C   UNL d   1     -55.673-101.592 -43.405  0.00  0.00     0.283 C 
ATOM      2  N   UNL d   1     -55.005-101.786 -42.963  0.00  0.00    -0.208 NA
ATOM      3  O   UNL d   1     -56.412-101.521 -43.042  0.00  0.00    -0.265 OA
ENDROOT
BRANCH   2   4
ATOM      4  C   UNL d   1     -55.080-101.909 -42.151  0.00  0.00     0.085 A 
ATOM      5  C   UNL d   1     -54.913-101.305 -41.614  0.00  0.00     0.019 A 
ATOM      6  C   UNL d   1     -54.990-101.433 -40.801  0.00  0.00     0.003 A 
ATOM      7  C   UNL d   1     -55.235-102.170 -40.527  0.00  0.00     0.020 A 
ATOM      8  C   UNL d   1     -55.405-102.783 -41.054  0.00  0.00     0.003 A 
ATOM      9  C   UNL d   1     -55.330-102.660 -41.866  0.00  0.00     0.019 A 
BRANCH   7  10
ATOM     10  C   UNL d   1     -55.313-102.301 -39.716  0.00  0.00     0.118 A 
ATOM     11  N   UNL d   1     -55.982-102.590 -39.334  0.00  0.00    -0.059 NA
ATOM     12  C   UNL d   1     -55.813-102.631 -38.529  0.00  0.00     0.735 A 
ATOM     13  N   UNL d   1     -56.274-102.878 -37.890  0.00  0.00    -0.059 NA
ATOM     14  N   UNL d   1     -55.051-102.371 -38.414  0.00  0.00    -0.136 N 
ATOM     15  C   UNL d   1     -55.953-102.859 -37.133  0.00  0.00     0.119 A 
ATOM     16  C   UNL d   1     -55.181-102.596 -37.012  0.00  0.00     0.041 A 
ATOM     17  C   UNL d   1     -54.728-102.352 -37.649  0.00  0.00     0.100 A 
ATOM     18  C   UNL d   1     -54.740-102.166 -39.148  0.00  0.00     0.118 A 
ENDBRANCH   7  10
ENDBRANCH   2   4
BRANCH   1  19
ATOM     19  C   UNL d   1     -55.609-101.466 -44.219  0.00  0.00     0.102 A 
ATOM     20  C   UNL d   1     -55.877-100.808 -44.629  0.00  0.00     0.116 A 
ATOM     21  N   UNL d   1     -55.695-100.920 -45.432  0.00  0.00    -0.126 NA
ATOM     22  O   UNL d   1     -55.316-101.649 -45.502  0.00  0.00    -0.211 OA
ATOM     23  C   UNL d   1     -55.261-101.990 -44.754  0.00  0.00     0.131 A 
ATOM     24  C   UNL d   1     -54.924-102.714 -44.569  0.00  0.00     0.029 C 
BRANCH  20  25
ATOM     25  C   UNL d   1     -56.253-100.160 -44.317  0.00  0.00     0.031 A 
ATOM     26  C   UNL d   1     -55.900 -99.424 -44.352  0.00  0.00     0.059 A 
ATOM     27 CL   UNL d   1     -55.165 -99.332 -44.702  0.00  0.00    -0.082 Cl
ATOM     28  C   UNL d   1     -56.290 -98.768 -44.032  0.00  0.00     0.011 A 
ATOM     29  C   UNL d   1     -57.025 -98.860 -43.682  0.00  0.00     0.001 A 
ATOM     30  C   UNL d   1     -57.385 -99.599 -43.645  0.00  0.00     0.000 A 
ATOM     31  C   UNL d   1     -56.996-100.254 -43.965  0.00  0.00     0.002 A 
ENDBRANCH  20  25
ENDBRANCH   1  19
TORSDOF 4
ENDMDL
