MODEL 1
REMARK VINA RESULT:      67.6      0.000      0.000
REMARK  4 active torsions:
REMARK  status: ('A' for Active; 'I' for Inactive)
REMARK    1  A    between atoms: C_20  and  C_4 
REMARK    2  A    between atoms: C_8  and  C_9 
REMARK       I    between atoms: C_9  and  N_18 
REMARK    3  A    between atoms: N_18  and  C_21 
REMARK    4  A    between atoms: C_21  and  C_20 
ROOT
ATOM      1  N   UNL d   1      58.693  49.700  51.427  0.00  0.00    -0.208 NA
ATOM      2  C   UNL d   1      58.177  49.694  50.771  0.00  0.00     0.085 A 
ATOM      3  C   UNL d   1      59.511  49.702  51.307  0.00  0.00     0.279 A 
ATOM      4  C   UNL d   1      59.817  49.698  50.531  0.00  0.00     0.059 A 
ATOM      5  C   UNL d   1      59.301  49.692  49.885  0.00  0.00     0.006 A 
ATOM      6  C   UNL d   1      58.487  49.690  50.006  0.00  0.00     0.018 A 
ATOM      7  C   UNL d   1      57.360  49.692  50.901  0.00  0.00     0.018 A 
ATOM      8  O   UNL d   1      60.022  49.708  51.951  0.00  0.00    -0.265 OA
ATOM      9  C   UNL d   1      56.848  49.686  50.256  0.00  0.00     0.002 A 
ATOM     10  C   UNL d   1      57.968  49.684  49.359  0.00  0.00     0.002 A 
ATOM     11  C   UNL d   1      57.154  49.682  49.481  0.00  0.00     0.000 A 
ATOM     12  C   UNL d   1      57.065  49.697  51.672  0.00  0.00     0.002 C 
ATOM     13  C   UNL d   1      56.034  49.685  50.379  0.00  0.00     0.000 C 
ENDROOT
BRANCH   4  14
ATOM     14  C   UNL d   1      60.628  49.700  50.416  0.00  0.00     0.026 C 
BRANCH  14  15
ATOM     15  C   UNL d   1      61.098  49.108  50.732  0.00  0.00     0.102 C 
BRANCH  15  16
ATOM     16  N   UNL d   1      61.051  48.331  50.455  0.00  0.00    -0.206 NA
ATOM     17  C   UNL d   1      61.738  47.895  50.313  0.00  0.00     0.285 C 
ATOM     18  O   UNL d   1      62.476  48.230  50.446  0.00  0.00    -0.265 OA
BRANCH  17  19
ATOM     19  C   UNL d   1      61.681  47.118  50.036  0.00  0.00     0.087 A 
ATOM     20  S   UNL d   1      61.401  46.478  50.460  0.00  0.00    -0.082 SA
ATOM     21  C   UNL d   1      61.436  45.816  49.991  0.00  0.00     0.036 A 
ATOM     22  C   UNL d   1      61.745  46.044  49.255  0.00  0.00     0.008 A 
ATOM     23  C   UNL d   1      61.897  46.853  49.284  0.00  0.00     0.012 A 
ENDBRANCH  17  19
ENDBRANCH  15  16
ENDBRANCH  14  15
ENDBRANCH   4  14
TORSDOF 4
ENDMDL
MODEL 2
REMARK VINA RESULT:      70.3      1.347      1.676
REMARK  4 active torsions:
REMARK  status: ('A' for Active; 'I' for Inactive)
REMARK    1  A    between atoms: C_20  and  C_4 
REMARK    2  A    between atoms: C_8  and  C_9 
REMARK       I    between atoms: C_9  and  N_18 
REMARK    3  A    between atoms: N_18  and  C_21 
REMARK    4  A    between atoms: C_21  and  C_20 
ROOT
ATOM      1  N   UNL d   1      58.934  49.671  49.532  0.00  0.00    -0.208 NA
ATOM      2  C   UNL d   1      58.272  49.651  50.041  0.00  0.00     0.085 A 
ATOM      3  C   UNL d   1      59.697  49.687  49.850  0.00  0.00     0.279 A 
ATOM      4  C   UNL d   1      59.802  49.682  50.678  0.00  0.00     0.059 A 
ATOM      5  C   UNL d   1      59.143  49.661  51.177  0.00  0.00     0.006 A 
ATOM      6  C   UNL d   1      58.384  49.646  50.858  0.00  0.00     0.018 A 
ATOM      7  C   UNL d   1      57.513  49.636  49.713  0.00  0.00     0.018 A 
ATOM      8  O   UNL d   1      60.351  49.707  49.352  0.00  0.00    -0.265 OA
ATOM      9  C   UNL d   1      56.858  49.616  50.212  0.00  0.00     0.002 A 
ATOM     10  C   UNL d   1      57.722  49.626  51.358  0.00  0.00     0.002 A 
ATOM     11  C   UNL d   1      56.963  49.611  51.039  0.00  0.00     0.000 A 
ATOM     12  C   UNL d   1      57.416  49.641  48.894  0.00  0.00     0.002 C 
ATOM     13  C   UNL d   1      56.100  49.601  49.893  0.00  0.00     0.000 C 
ENDROOT
BRANCH   4  14
ATOM     14  C   UNL d   1      60.560  49.697  50.989  0.00  0.00     0.026 C 
BRANCH  14  15
ATOM     15  C   UNL d   1      60.764  49.220  51.623  0.00  0.00     0.102 C 
BRANCH  15  16
ATOM     16  N   UNL d   1      60.452  48.459  51.704  0.00  0.00    -0.206 NA
ATOM     17  C   UNL d   1      60.866  47.805  51.417  0.00  0.00     0.285 C 
ATOM     18  O   UNL d   1      61.593  47.904  51.049  0.00  0.00    -0.265 OA
BRANCH  17  19
ATOM     19  C   UNL d   1      60.546  47.047  51.502  0.00  0.00     0.087 A 
ATOM     20  S   UNL d   1      60.772  46.491  52.056  0.00  0.00    -0.082 SA
ATOM     21  C   UNL d   1      60.324  45.821  51.956  0.00  0.00     0.036 A 
ATOM     22  C   UNL d   1      59.804  45.958  51.323  0.00  0.00     0.008 A 
ATOM     23  C   UNL d   1      59.943  46.720  51.042  0.00  0.00     0.012 A 
ENDBRANCH  17  19
ENDBRANCH  15  16
ENDBRANCH  14  15
ENDBRANCH   4  14
TORSDOF 4
ENDMDL
