MODEL 1
REMARK VINA RESULT:      -3.8      0.000      0.000
REMARK  7 active torsions:
REMARK  status: ('A' for Active; 'I' for Inactive)
REMARK    1  A    between atoms: N_8  and  C_3 
REMARK    2  A    between atoms: C_10  and  C_5 
REMARK    3  A    between atoms: C_15  and  N_8 
REMARK    4  A    between atoms: N_12  and  C_10 
REMARK    5  A    between atoms: C_21  and  N_12 
REMARK    6  A    between atoms: O_22  and  C_16 
REMARK    7  A    between atoms: C_23  and  C_21 
ROOT
ATOM      1  N   UNL d   1     -39.542  14.623  19.961  0.00  0.00    -0.209 NA
ATOM      2  N   UNL d   1     -39.847  15.267  21.203  0.00  0.00    -0.258 N 
ATOM      3  C   UNL d   1     -40.323  14.400  19.870  0.00  0.00     0.170 A 
ATOM      4  C   UNL d   1     -39.292  15.060  20.628  0.00  0.00     0.152 A 
ATOM      5  C   UNL d   1     -40.878  14.608  20.445  0.00  0.00     0.111 A 
ATOM      6  C   UNL d   1     -40.649  15.039  21.110  0.00  0.00     0.270 A 
ATOM      7  C   UNL d   1     -38.510  15.282  20.718  0.00  0.00     0.035 A 
ATOM      8  C   UNL d   1     -39.618  15.699  21.869  0.00  0.00     0.084 A 
ATOM      9  O   UNL d   1     -41.220  15.243  21.683  0.00  0.00    -0.266 OA
ATOM     10  C   UNL d   1     -38.836  15.922  21.959  0.00  0.00     0.019 A 
ATOM     11  C   UNL d   1     -38.281  15.713  21.384  0.00  0.00     0.005 A 
ATOM     12  C   UNL d   1     -37.940  15.079  20.146  0.00  0.00     0.003 C 
ENDROOT
BRANCH   3  13
ATOM     13  N   UNL d   1     -40.548  13.959  19.186  0.00  0.00    -0.227 NA
BRANCH  13  14
ATOM     14  C   UNL d   1     -40.275  14.169  18.444  0.00  0.00     0.083 A 
ATOM     15  C   UNL d   1     -39.714  13.692  18.088  0.00  0.00     0.021 A 
ATOM     16  C   UNL d   1     -39.427  13.894  17.330  0.00  0.00     0.026 A 
ATOM     17  C   UNL d   1     -39.705  14.559  16.953  0.00  0.00     0.094 A 
ATOM     18  C   UNL d   1     -40.267  15.039  17.306  0.00  0.00     0.026 A 
ATOM     19  C   UNL d   1     -40.551  14.847  18.045  0.00  0.00     0.021 A 
BRANCH  17  20
ATOM     20  O   UNL d   1     -39.401  14.748  16.182  0.00  0.00    -0.328 OA
ATOM     21  C   UNL d   1     -38.570  14.839  16.070  0.00  0.00     0.181 C 
ENDBRANCH  17  20
ENDBRANCH  13  14
ENDBRANCH   3  13
BRANCH   5  22
ATOM     22  C   UNL d   1     -41.672  14.382  20.353  0.00  0.00     0.107 C 
BRANCH  22  23
ATOM     23  N   UNL d   1     -41.987  13.790  20.833  0.00  0.00    -0.242 NA
BRANCH  23  24
ATOM     24  C   UNL d   1     -42.676  13.407  20.608  0.00  0.00     0.099 C 
BRANCH  24  25
ATOM     25  C   UNL d   1     -43.116  12.994  21.170  0.00  0.00     0.019 A 
ATOM     26  C   UNL d   1     -43.901  13.193  21.297  0.00  0.00     0.002 A 
ATOM     27  C   UNL d   1     -44.341  12.781  21.859  0.00  0.00     0.000 A 
ATOM     28  C   UNL d   1     -43.999  12.169  22.293  0.00  0.00     0.000 A 
ATOM     29  C   UNL d   1     -43.215  11.970  22.166  0.00  0.00     0.000 A 
ATOM     30  C   UNL d   1     -42.774  12.383  21.605  0.00  0.00     0.002 A 
ENDBRANCH  24  25
ENDBRANCH  23  24
ENDBRANCH  22  23
ENDBRANCH   5  22
TORSDOF 7
ENDMDL
MODEL 2
REMARK VINA RESULT:      -3.6      4.484      8.433
REMARK  7 active torsions:
REMARK  status: ('A' for Active; 'I' for Inactive)
REMARK    1  A    between atoms: N_8  and  C_3 
REMARK    2  A    between atoms: C_10  and  C_5 
REMARK    3  A    between atoms: C_15  and  N_8 
REMARK    4  A    between atoms: N_12  and  C_10 
REMARK    5  A    between atoms: C_21  and  N_12 
REMARK    6  A    between atoms: O_22  and  C_16 
REMARK    7  A    between atoms: C_23  and  C_21 
ROOT
ATOM      1  N   UNL d   1     -48.081  12.750  22.650  0.00  0.00    -0.209 NA
ATOM      2  N   UNL d   1     -47.288  11.724  23.260  0.00  0.00    -0.258 N 
ATOM      3  C   UNL d   1     -47.420  13.224  22.561  0.00  0.00     0.170 A 
ATOM      4  C   UNL d   1     -48.024  11.993  23.001  0.00  0.00     0.152 A 
ATOM      5  C   UNL d   1     -46.684  12.955  22.820  0.00  0.00     0.111 A 
ATOM      6  C   UNL d   1     -46.611  12.211  23.168  0.00  0.00     0.270 A 
ATOM      7  C   UNL d   1     -48.684  11.519  23.090  0.00  0.00     0.035 A 
ATOM      8  C   UNL d   1     -47.214  10.979  23.608  0.00  0.00     0.084 A 
ATOM      9  O   UNL d   1     -45.860  11.951  23.426  0.00  0.00    -0.266 OA
ATOM     10  C   UNL d   1     -47.874  10.505  23.697  0.00  0.00     0.019 A 
ATOM     11  C   UNL d   1     -48.610  10.774  23.438  0.00  0.00     0.005 A 
ATOM     12  C   UNL d   1     -49.434  11.778  22.833  0.00  0.00     0.003 C 
ENDROOT
BRANCH   3  13
ATOM     13  N   UNL d   1     -47.507  13.984  22.204  0.00  0.00    -0.227 NA
BRANCH  13  14
ATOM     14  C   UNL d   1     -48.167  14.444  22.351  0.00  0.00     0.083 A 
ATOM     15  C   UNL d   1     -48.651  14.640  21.721  0.00  0.00     0.021 A 
ATOM     16  C   UNL d   1     -49.328  15.110  21.857  0.00  0.00     0.026 A 
ATOM     17  C   UNL d   1     -49.501  15.368  22.608  0.00  0.00     0.094 A 
ATOM     18  C   UNL d   1     -49.018  15.174  23.242  0.00  0.00     0.026 A 
ATOM     19  C   UNL d   1     -48.356  14.716  23.115  0.00  0.00     0.021 A 
BRANCH  17  20
ATOM     20  O   UNL d   1     -50.194  15.845  22.726  0.00  0.00    -0.328 OA
ATOM     21  C   UNL d   1     -50.532  15.910  23.496  0.00  0.00     0.181 C 
ENDBRANCH  17  20
ENDBRANCH  13  14
ENDBRANCH   3  13
BRANCH   5  22
ATOM     22  C   UNL d   1     -46.014  13.437  22.730  0.00  0.00     0.107 C 
BRANCH  22  23
ATOM     23  N   UNL d   1     -45.378  13.172  22.276  0.00  0.00    -0.242 NA
BRANCH  23  24
ATOM     24  C   UNL d   1     -44.759  13.681  22.108  0.00  0.00     0.099 C 
BRANCH  24  25
ATOM     25  C   UNL d   1     -44.062  13.383  21.780  0.00  0.00     0.019 A 
ATOM     26  C   UNL d   1     -43.931  12.575  21.771  0.00  0.00     0.002 A 
ATOM     27  C   UNL d   1     -43.235  12.277  21.444  0.00  0.00     0.000 A 
ATOM     28  C   UNL d   1     -42.670  12.787  21.126  0.00  0.00     0.000 A 
ATOM     29  C   UNL d   1     -42.801  13.595  21.136  0.00  0.00     0.000 A 
ATOM     30  C   UNL d   1     -43.497  13.893  21.463  0.00  0.00     0.002 A 
ENDBRANCH  24  25
ENDBRANCH  23  24
ENDBRANCH  22  23
ENDBRANCH   5  22
TORSDOF 7
ENDMDL
MODEL 3
REMARK VINA RESULT:      -3.2      2.751      3.872
REMARK  7 active torsions:
REMARK  status: ('A' for Active; 'I' for Inactive)
REMARK    1  A    between atoms: N_8  and  C_3 
REMARK    2  A    between atoms: C_10  and  C_5 
REMARK    3  A    between atoms: C_15  and  N_8 
REMARK    4  A    between atoms: N_12  and  C_10 
REMARK    5  A    between atoms: C_21  and  N_12 
REMARK    6  A    between atoms: O_22  and  C_16 
REMARK    7  A    between atoms: C_23  and  C_21 
ROOT
ATOM      1  N   UNL d   1     -39.235  14.663  17.916  0.00  0.00    -0.209 NA
ATOM      2  N   UNL d   1     -40.127  15.472  18.692  0.00  0.00    -0.258 N 
ATOM      3  C   UNL d   1     -38.687  14.664  18.523  0.00  0.00     0.170 A 
ATOM      4  C   UNL d   1     -39.963  15.068  17.992  0.00  0.00     0.152 A 
ATOM      5  C   UNL d   1     -38.851  15.068  19.224  0.00  0.00     0.111 A 
ATOM      6  C   UNL d   1     -39.565  15.473  19.315  0.00  0.00     0.270 A 
ATOM      7  C   UNL d   1     -40.511  15.068  17.385  0.00  0.00     0.035 A 
ATOM      8  C   UNL d   1     -40.841  15.877  18.784  0.00  0.00     0.084 A 
ATOM      9  O   UNL d   1     -39.718  15.878  20.028  0.00  0.00    -0.266 OA
ATOM     10  C   UNL d   1     -41.389  15.877  18.177  0.00  0.00     0.019 A 
ATOM     11  C   UNL d   1     -41.224  15.472  17.476  0.00  0.00     0.005 A 
ATOM     12  C   UNL d   1     -40.358  14.663  16.672  0.00  0.00     0.003 C 
ENDROOT
BRANCH   3  13
ATOM     13  N   UNL d   1     -37.960  14.247  18.420  0.00  0.00    -0.227 NA
BRANCH  13  14
ATOM     14  C   UNL d   1     -37.955  13.467  18.173  0.00  0.00     0.083 A 
ATOM     15  C   UNL d   1     -37.955  13.315  17.369  0.00  0.00     0.021 A 
ATOM     16  C   UNL d   1     -37.950  12.523  17.103  0.00  0.00     0.026 A 
ATOM     17  C   UNL d   1     -37.945  11.912  17.640  0.00  0.00     0.094 A 
ATOM     18  C   UNL d   1     -37.945  12.061  18.446  0.00  0.00     0.026 A 
ATOM     19  C   UNL d   1     -37.950  12.831  18.712  0.00  0.00     0.021 A 
BRANCH  17  20
ATOM     20  O   UNL d   1     -37.940  11.114  17.351  0.00  0.00    -0.328 OA
ATOM     21  C   UNL d   1     -38.135  10.479  17.869  0.00  0.00     0.181 C 
ENDBRANCH  17  20
ENDBRANCH  13  14
ENDBRANCH   3  13
BRANCH   5  22
ATOM     22  C   UNL d   1     -38.294  15.068  19.841  0.00  0.00     0.107 C 
BRANCH  22  23
ATOM     23  N   UNL d   1     -38.542  14.930  20.615  0.00  0.00    -0.242 NA
BRANCH  23  24
ATOM     24  C   UNL d   1     -38.005  14.659  21.171  0.00  0.00     0.099 C 
BRANCH  24  25
ATOM     25  C   UNL d   1     -38.275  14.390  21.903  0.00  0.00     0.019 A 
ATOM     26  C   UNL d   1     -38.527  13.615  21.983  0.00  0.00     0.002 A 
ATOM     27  C   UNL d   1     -38.796  13.346  22.714  0.00  0.00     0.000 A 
ATOM     28  C   UNL d   1     -38.814  13.851  23.366  0.00  0.00     0.000 A 
ATOM     29  C   UNL d   1     -38.563  14.627  23.286  0.00  0.00     0.000 A 
ATOM     30  C   UNL d   1     -38.293  14.896  22.554  0.00  0.00     0.002 A 
ENDBRANCH  24  25
ENDBRANCH  23  24
ENDBRANCH  22  23
ENDBRANCH   5  22
TORSDOF 7
ENDMDL
MODEL 4
REMARK VINA RESULT:      -2.7      2.851      6.733
REMARK  7 active torsions:
REMARK  status: ('A' for Active; 'I' for Inactive)
REMARK    1  A    between atoms: N_8  and  C_3 
REMARK    2  A    between atoms: C_10  and  C_5 
REMARK    3  A    between atoms: C_15  and  N_8 
REMARK    4  A    between atoms: N_12  and  C_10 
REMARK    5  A    between atoms: C_21  and  N_12 
REMARK    6  A    between atoms: O_22  and  C_16 
REMARK    7  A    between atoms: C_23  and  C_21 
ROOT
ATOM      1  N   UNL d   1     -45.135  12.107  22.628  0.00  0.00    -0.209 NA
ATOM      2  N   UNL d   1     -43.929  11.339  22.711  0.00  0.00    -0.258 N 
ATOM      3  C   UNL d   1     -44.770  12.648  22.136  0.00  0.00     0.170 A 
ATOM      4  C   UNL d   1     -44.720  11.444  22.923  0.00  0.00     0.152 A 
ATOM      5  C   UNL d   1     -43.980  12.543  21.924  0.00  0.00     0.111 A 
ATOM      6  C   UNL d   1     -43.555  11.894  22.206  0.00  0.00     0.270 A 
ATOM      7  C   UNL d   1     -45.084  10.903  23.416  0.00  0.00     0.035 A 
ATOM      8  C   UNL d   1     -43.504  10.689  22.993  0.00  0.00     0.084 A 
ATOM      9  O   UNL d   1     -42.756  11.799  21.984  0.00  0.00    -0.266 OA
ATOM     10  C   UNL d   1     -43.869  10.148  23.486  0.00  0.00     0.019 A 
ATOM     11  C   UNL d   1     -44.660  10.254  23.698  0.00  0.00     0.005 A 
ATOM     12  C   UNL d   1     -45.882  10.997  23.638  0.00  0.00     0.003 C 
ENDROOT
BRANCH   3  13
ATOM     13  N   UNL d   1     -45.214  13.309  21.852  0.00  0.00    -0.227 NA
BRANCH  13  14
ATOM     14  C   UNL d   1     -45.926  13.515  22.197  0.00  0.00     0.083 A 
ATOM     15  C   UNL d   1     -46.618  13.296  21.818  0.00  0.00     0.021 A 
ATOM     16  C   UNL d   1     -47.353  13.500  22.160  0.00  0.00     0.026 A 
ATOM     17  C   UNL d   1     -47.377  13.912  22.861  0.00  0.00     0.094 A 
ATOM     18  C   UNL d   1     -46.686  14.132  23.243  0.00  0.00     0.026 A 
ATOM     19  C   UNL d   1     -45.966  13.936  22.915  0.00  0.00     0.021 A 
BRANCH  17  20
ATOM     20  O   UNL d   1     -48.133  14.110  23.192  0.00  0.00    -0.328 OA
ATOM     21  C   UNL d   1     -48.748  13.533  23.209  0.00  0.00     0.181 C 
ENDBRANCH  17  20
ENDBRANCH  13  14
ENDBRANCH   3  13
BRANCH   5  22
ATOM     22  C   UNL d   1     -43.609  13.093  21.423  0.00  0.00     0.107 C 
BRANCH  22  23
ATOM     23  N   UNL d   1     -42.799  13.229  21.493  0.00  0.00    -0.242 NA
BRANCH  23  24
ATOM     24  C   UNL d   1     -42.374  13.495  20.846  0.00  0.00     0.099 C 
BRANCH  24  25
ATOM     25  C   UNL d   1     -41.792  14.071  20.947  0.00  0.00     0.019 A 
ATOM     26  C   UNL d   1     -41.007  13.848  21.015  0.00  0.00     0.002 A 
ATOM     27  C   UNL d   1     -40.426  14.424  21.117  0.00  0.00     0.000 A 
ATOM     28  C   UNL d   1     -40.628  15.222  21.150  0.00  0.00     0.000 A 
ATOM     29  C   UNL d   1     -41.413  15.446  21.081  0.00  0.00     0.000 A 
ATOM     30  C   UNL d   1     -41.995  14.870  20.980  0.00  0.00     0.002 A 
ENDBRANCH  24  25
ENDBRANCH  23  24
ENDBRANCH  22  23
ENDBRANCH   5  22
TORSDOF 7
ENDMDL
MODEL 5
REMARK VINA RESULT:      -2.4      1.535      4.404
REMARK  7 active torsions:
REMARK  status: ('A' for Active; 'I' for Inactive)
REMARK    1  A    between atoms: N_8  and  C_3 
REMARK    2  A    between atoms: C_10  and  C_5 
REMARK    3  A    between atoms: C_15  and  N_8 
REMARK    4  A    between atoms: N_12  and  C_10 
REMARK    5  A    between atoms: C_21  and  N_12 
REMARK    6  A    between atoms: O_22  and  C_16 
REMARK    7  A    between atoms: C_23  and  C_21 
ROOT
ATOM      1  N   UNL d   1     -40.464  15.368  19.100  0.00  0.00    -0.209 NA
ATOM      2  N   UNL d   1     -39.183  15.529  18.480  0.00  0.00    -0.258 N 
ATOM      3  C   UNL d   1     -40.137  15.499  19.838  0.00  0.00     0.170 A 
ATOM      4  C   UNL d   1     -39.992  15.381  18.410  0.00  0.00     0.152 A 
ATOM      5  C   UNL d   1     -39.328  15.648  19.908  0.00  0.00     0.111 A 
ATOM      6  C   UNL d   1     -38.848  15.664  19.237  0.00  0.00     0.270 A 
ATOM      7  C   UNL d   1     -40.318  15.250  17.672  0.00  0.00     0.035 A 
ATOM      8  C   UNL d   1     -38.701  15.546  17.809  0.00  0.00     0.084 A 
ATOM      9  O   UNL d   1     -38.031  15.815  19.322  0.00  0.00    -0.266 OA
ATOM     10  C   UNL d   1     -39.028  15.415  17.071  0.00  0.00     0.019 A 
ATOM     11  C   UNL d   1     -39.838  15.266  17.002  0.00  0.00     0.005 A 
ATOM     12  C   UNL d   1     -41.134  15.099  17.587  0.00  0.00     0.003 C 
ENDROOT
BRANCH   3  13
ATOM     13  N   UNL d   1     -40.638  15.480  20.517  0.00  0.00    -0.227 NA
BRANCH  13  14
ATOM     14  C   UNL d   1     -41.116  14.833  20.668  0.00  0.00     0.083 A 
ATOM     15  C   UNL d   1     -41.875  14.968  20.942  0.00  0.00     0.021 A 
ATOM     16  C   UNL d   1     -42.373  14.316  21.100  0.00  0.00     0.026 A 
ATOM     17  C   UNL d   1     -42.104  13.559  20.983  0.00  0.00     0.094 A 
ATOM     18  C   UNL d   1     -41.344  13.420  20.709  0.00  0.00     0.026 A 
ATOM     19  C   UNL d   1     -40.853  14.051  20.553  0.00  0.00     0.021 A 
BRANCH  17  20
ATOM     20  O   UNL d   1     -42.626  12.909  21.150  0.00  0.00    -0.328 OA
ATOM     21  C   UNL d   1     -43.455  13.043  21.213  0.00  0.00     0.181 C 
ENDBRANCH  17  20
ENDBRANCH  13  14
ENDBRANCH   3  13
BRANCH   5  22
ATOM     22  C   UNL d   1     -38.996  15.781  20.657  0.00  0.00     0.107 C 
BRANCH  22  23
ATOM     23  N   UNL d   1     -38.513  15.207  20.999  0.00  0.00    -0.242 NA
BRANCH  23  24
ATOM     24  C   UNL d   1     -38.085  15.385  21.674  0.00  0.00     0.099 C 
BRANCH  24  25
ATOM     25  C   UNL d   1     -38.075  14.852  22.304  0.00  0.00     0.019 A 
ATOM     26  C   UNL d   1     -38.192  15.125  23.068  0.00  0.00     0.002 A 
ATOM     27  C   UNL d   1     -38.182  14.593  23.698  0.00  0.00     0.000 A 
ATOM     28  C   UNL d   1     -38.056  13.789  23.566  0.00  0.00     0.000 A 
ATOM     29  C   UNL d   1     -37.940  13.516  22.802  0.00  0.00     0.000 A 
ATOM     30  C   UNL d   1     -37.949  14.048  22.172  0.00  0.00     0.002 A 
ENDBRANCH  24  25
ENDBRANCH  23  24
ENDBRANCH  22  23
ENDBRANCH   5  22
TORSDOF 7
ENDMDL
MODEL 6
REMARK VINA RESULT:      -2.0      6.312      8.311
REMARK  7 active torsions:
REMARK  status: ('A' for Active; 'I' for Inactive)
REMARK    1  A    between atoms: N_8  and  C_3 
REMARK    2  A    between atoms: C_10  and  C_5 
REMARK    3  A    between atoms: C_15  and  N_8 
REMARK    4  A    between atoms: N_12  and  C_10 
REMARK    5  A    between atoms: C_21  and  N_12 
REMARK    6  A    between atoms: O_22  and  C_16 
REMARK    7  A    between atoms: C_23  and  C_21 
ROOT
ATOM      1  N   UNL d   1     -47.928  13.587  22.924  0.00  0.00    -0.209 NA
ATOM      2  N   UNL d   1     -46.607  14.140  22.950  0.00  0.00    -0.258 N 
ATOM      3  C   UNL d   1     -47.650  12.878  23.223  0.00  0.00     0.170 A 
ATOM      4  C   UNL d   1     -47.410  14.228  22.784  0.00  0.00     0.152 A 
ATOM      5  C   UNL d   1     -46.847  12.790  23.390  0.00  0.00     0.111 A 
ATOM      6  C   UNL d   1     -46.322  13.413  23.257  0.00  0.00     0.270 A 
ATOM      7  C   UNL d   1     -47.688  14.937  22.485  0.00  0.00     0.035 A 
ATOM      8  C   UNL d   1     -46.081  14.763  22.817  0.00  0.00     0.084 A 
ATOM      9  O   UNL d   1     -45.512  13.310  23.430  0.00  0.00    -0.266 OA
ATOM     10  C   UNL d   1     -46.359  15.472  22.518  0.00  0.00     0.019 A 
ATOM     11  C   UNL d   1     -47.163  15.559  22.352  0.00  0.00     0.005 A 
ATOM     12  C   UNL d   1     -48.497  15.039  22.312  0.00  0.00     0.003 C 
ENDROOT
BRANCH   3  13
ATOM     13  N   UNL d   1     -48.195  12.247  23.356  0.00  0.00    -0.227 NA
BRANCH  13  14
ATOM     14  C   UNL d   1     -48.890  12.196  22.927  0.00  0.00     0.083 A 
ATOM     15  C   UNL d   1     -48.839  12.111  22.115  0.00  0.00     0.021 A 
ATOM     16  C   UNL d   1     -49.541  12.058  21.665  0.00  0.00     0.026 A 
ATOM     17  C   UNL d   1     -50.265  12.090  22.033  0.00  0.00     0.094 A 
ATOM     18  C   UNL d   1     -50.320  12.174  22.846  0.00  0.00     0.026 A 
ATOM     19  C   UNL d   1     -49.639  12.227  23.291  0.00  0.00     0.021 A 
BRANCH  17  20
ATOM     20  O   UNL d   1     -50.967  12.034  21.558  0.00  0.00    -0.328 OA
ATOM     21  C   UNL d   1     -51.057  12.528  20.882  0.00  0.00     0.181 C 
ENDBRANCH  17  20
ENDBRANCH  13  14
ENDBRANCH   3  13
BRANCH   5  22
ATOM     22  C   UNL d   1     -46.565  12.070  23.694  0.00  0.00     0.107 C 
BRANCH  22  23
ATOM     23  N   UNL d   1     -45.990  11.648  23.279  0.00  0.00    -0.242 NA
BRANCH  23  24
ATOM     24  C   UNL d   1     -45.795  10.888  23.514  0.00  0.00     0.099 C 
BRANCH  24  25
ATOM     25  C   UNL d   1     -45.011  10.636  23.472  0.00  0.00     0.019 A 
ATOM     26  C   UNL d   1     -44.427  11.162  23.243  0.00  0.00     0.002 A 
ATOM     27  C   UNL d   1     -43.643  10.910  23.200  0.00  0.00     0.000 A 
ATOM     28  C   UNL d   1     -43.442  10.132  23.388  0.00  0.00     0.000 A 
ATOM     29  C   UNL d   1     -44.026   9.606  23.617  0.00  0.00     0.000 A 
ATOM     30  C   UNL d   1     -44.810   9.858  23.659  0.00  0.00     0.002 A 
ENDBRANCH  24  25
ENDBRANCH  23  24
ENDBRANCH  22  23
ENDBRANCH   5  22
TORSDOF 7
ENDMDL
MODEL 7
REMARK VINA RESULT:      -1.5      1.404      3.417
REMARK  7 active torsions:
REMARK  status: ('A' for Active; 'I' for Inactive)
REMARK    1  A    between atoms: N_8  and  C_3 
REMARK    2  A    between atoms: C_10  and  C_5 
REMARK    3  A    between atoms: C_15  and  N_8 
REMARK    4  A    between atoms: N_12  and  C_10 
REMARK    5  A    between atoms: C_21  and  N_12 
REMARK    6  A    between atoms: O_22  and  C_16 
REMARK    7  A    between atoms: C_23  and  C_21 
ROOT
ATOM      1  N   UNL d   1     -39.391  14.680  20.053  0.00  0.00    -0.209 NA
ATOM      2  N   UNL d   1     -40.070  14.135  18.916  0.00  0.00    -0.258 N 
ATOM      3  C   UNL d   1     -40.099  14.755  20.455  0.00  0.00     0.170 A 
ATOM      4  C   UNL d   1     -39.366  14.369  19.278  0.00  0.00     0.152 A 
ATOM      5  C   UNL d   1     -40.803  14.521  20.094  0.00  0.00     0.111 A 
ATOM      6  C   UNL d   1     -40.796  14.212  19.329  0.00  0.00     0.270 A 
ATOM      7  C   UNL d   1     -38.658  14.294  18.875  0.00  0.00     0.035 A 
ATOM      8  C   UNL d   1     -40.064  13.825  18.150  0.00  0.00     0.084 A 
ATOM      9  O   UNL d   1     -41.515  13.979  18.975  0.00  0.00    -0.266 OA
ATOM     10  C   UNL d   1     -39.356  13.750  17.748  0.00  0.00     0.019 A 
ATOM     11  C   UNL d   1     -38.652  13.985  18.110  0.00  0.00     0.005 A 
ATOM     12  C   UNL d   1     -37.940  14.527  19.229  0.00  0.00     0.003 C 
ENDROOT
BRANCH   3  13
ATOM     13  N   UNL d   1     -40.094  15.072  21.238  0.00  0.00    -0.227 NA
BRANCH  13  14
ATOM     14  C   UNL d   1     -39.554  14.811  21.794  0.00  0.00     0.083 A 
ATOM     15  C   UNL d   1     -39.587  14.027  22.027  0.00  0.00     0.021 A 
ATOM     16  C   UNL d   1     -39.041  13.747  22.594  0.00  0.00     0.026 A 
ATOM     17  C   UNL d   1     -38.486  14.250  22.909  0.00  0.00     0.094 A 
ATOM     18  C   UNL d   1     -38.450  15.035  22.678  0.00  0.00     0.026 A 
ATOM     19  C   UNL d   1     -38.980  15.315  22.125  0.00  0.00     0.021 A 
BRANCH  17  20
ATOM     20  O   UNL d   1     -37.940  13.946  23.484  0.00  0.00    -0.328 OA
ATOM     21  C   UNL d   1     -37.940  13.124  23.669  0.00  0.00     0.181 C 
ENDBRANCH  17  20
ENDBRANCH  13  14
ENDBRANCH   3  13
BRANCH   5  22
ATOM     22  C   UNL d   1     -41.522  14.597  20.503  0.00  0.00     0.107 C 
BRANCH  22  23
ATOM     23  N   UNL d   1     -41.956  13.923  20.695  0.00  0.00    -0.242 NA
BRANCH  23  24
ATOM     24  C   UNL d   1     -42.721  14.000  20.978  0.00  0.00     0.099 C 
BRANCH  24  25
ATOM     25  C   UNL d   1     -43.094  13.352  21.329  0.00  0.00     0.019 A 
ATOM     26  C   UNL d   1     -43.900  13.376  21.471  0.00  0.00     0.002 A 
ATOM     27  C   UNL d   1     -44.273  12.730  21.822  0.00  0.00     0.000 A 
ATOM     28  C   UNL d   1     -43.841  12.059  22.030  0.00  0.00     0.000 A 
ATOM     29  C   UNL d   1     -43.035  12.035  21.888  0.00  0.00     0.000 A 
ATOM     30  C   UNL d   1     -42.662  12.682  21.538  0.00  0.00     0.002 A 
ENDBRANCH  24  25
ENDBRANCH  23  24
ENDBRANCH  22  23
ENDBRANCH   5  22
TORSDOF 7
ENDMDL
MODEL 8
REMARK VINA RESULT:      -1.1      2.831      3.987
REMARK  7 active torsions:
REMARK  status: ('A' for Active; 'I' for Inactive)
REMARK    1  A    between atoms: N_8  and  C_3 
REMARK    2  A    between atoms: C_10  and  C_5 
REMARK    3  A    between atoms: C_15  and  N_8 
REMARK    4  A    between atoms: N_12  and  C_10 
REMARK    5  A    between atoms: C_21  and  N_12 
REMARK    6  A    between atoms: O_22  and  C_16 
REMARK    7  A    between atoms: C_23  and  C_21 
ROOT
ATOM      1  N   UNL d   1     -39.821  14.976  17.201  0.00  0.00    -0.209 NA
ATOM      2  N   UNL d   1     -40.633  15.598  18.203  0.00  0.00    -0.258 N 
ATOM      3  C   UNL d   1     -39.180  14.967  17.709  0.00  0.00     0.170 A 
ATOM      4  C   UNL d   1     -40.557  15.291  17.441  0.00  0.00     0.152 A 
ATOM      5  C   UNL d   1     -39.256  15.274  18.471  0.00  0.00     0.111 A 
ATOM      6  C   UNL d   1     -39.976  15.589  18.724  0.00  0.00     0.270 A 
ATOM      7  C   UNL d   1     -41.198  15.299  16.933  0.00  0.00     0.035 A 
ATOM      8  C   UNL d   1     -41.353  15.913  18.457  0.00  0.00     0.084 A 
ATOM      9  O   UNL d   1     -40.039  15.896  19.498  0.00  0.00    -0.266 OA
ATOM     10  C   UNL d   1     -41.994  15.922  17.949  0.00  0.00     0.019 A 
ATOM     11  C   UNL d   1     -41.917  15.614  17.186  0.00  0.00     0.005 A 
ATOM     12  C   UNL d   1     -41.135  14.993  16.161  0.00  0.00     0.003 C 
ENDROOT
BRANCH   3  13
ATOM     13  N   UNL d   1     -38.448  14.643  17.441  0.00  0.00    -0.227 NA
BRANCH  13  14
ATOM     14  C   UNL d   1     -38.331  14.470  16.650  0.00  0.00     0.083 A 
ATOM     15  C   UNL d   1     -38.063  15.067  16.158  0.00  0.00     0.021 A 
ATOM     16  C   UNL d   1     -37.940  14.904  15.348  0.00  0.00     0.026 A 
ATOM     17  C   UNL d   1     -38.084  14.159  15.055  0.00  0.00     0.094 A 
ATOM     18  C   UNL d   1     -38.351  13.559  15.544  0.00  0.00     0.026 A 
ATOM     19  C   UNL d   1     -38.474  13.712  16.335  0.00  0.00     0.021 A 
BRANCH  17  20
ATOM     20  O   UNL d   1     -37.952  14.013  14.228  0.00  0.00    -0.328 OA
ATOM     21  C   UNL d   1     -38.292  14.526  13.653  0.00  0.00     0.181 C 
ENDBRANCH  17  20
ENDBRANCH  13  14
ENDBRANCH   3  13
BRANCH   5  22
ATOM     22  C   UNL d   1     -38.605  15.266  18.987  0.00  0.00     0.107 C 
BRANCH  22  23
ATOM     23  N   UNL d   1     -38.567  14.703  19.589  0.00  0.00    -0.242 NA
BRANCH  23  24
ATOM     24  C   UNL d   1     -38.301  14.921  20.332  0.00  0.00     0.099 C 
BRANCH  24  25
ATOM     25  C   UNL d   1     -38.228  14.350  20.924  0.00  0.00     0.019 A 
ATOM     26  C   UNL d   1     -38.322  14.564  21.709  0.00  0.00     0.002 A 
ATOM     27  C   UNL d   1     -38.248  13.994  22.300  0.00  0.00     0.000 A 
ATOM     28  C   UNL d   1     -38.081  13.210  22.107  0.00  0.00     0.000 A 
ATOM     29  C   UNL d   1     -37.987  12.996  21.323  0.00  0.00     0.000 A 
ATOM     30  C   UNL d   1     -38.060  13.566  20.731  0.00  0.00     0.002 A 
ENDBRANCH  24  25
ENDBRANCH  23  24
ENDBRANCH  22  23
ENDBRANCH   5  22
TORSDOF 7
ENDMDL
