MODEL 1
REMARK VINA RESULT:      76.3      0.000      0.000
REMARK  4 active torsions:
REMARK  status: ('A' for Active; 'I' for Inactive)
REMARK    1  A    between atoms: N_7  and  C_1 
REMARK    2  A    between atoms: C_9  and  N_3 
REMARK       I    between atoms: C_11  and  N_7 
REMARK    3  A    between atoms: C_15  and  C_11 
REMARK    4  A    between atoms: C_17  and  C_15 
ROOT
ATOM      1  C   UNL d   1     -51.387  25.884  34.240  0.00  0.00     0.169 A 
ATOM      2  C   UNL d   1     -50.734  26.379  34.094  0.00  0.00     0.065 A 
ATOM      3  N   UNL d   1     -51.323  25.217  33.754  0.00  0.00    -0.212 N 
ATOM      4  N   UNL d   1     -50.630  25.298  33.306  0.00  0.00    -0.163 NA
ATOM      5  C   UNL d   1     -50.269  26.014  33.516  0.00  0.00     0.114 A 
ATOM      6  S   UNL d   1     -49.678  27.168  33.849  0.00  0.00     0.091 S 
ATOM      7  C   UNL d   1     -49.614  26.500  33.362  0.00  0.00     0.090 A 
ATOM      8  C   UNL d   1     -50.371  27.089  34.299  0.00  0.00     0.073 A 
ATOM      9  O   UNL d   1     -49.145  27.803  33.882  0.00  0.00    -0.247 OA
ENDROOT
BRANCH   1  10
ATOM     10  N   UNL d   1     -51.995  26.037  34.782  0.00  0.00    -0.189 NA
ATOM     11  C   UNL d   1     -51.829  26.126  35.580  0.00  0.00     0.281 C 
ATOM     12  O   UNL d   1     -51.042  26.062  35.855  0.00  0.00    -0.265 OA
BRANCH  11  13
ATOM     13  C   UNL d   1     -52.433  26.279  36.122  0.00  0.00     0.063 C 
BRANCH  13  14
ATOM     14  C   UNL d   1     -52.343  26.040  36.903  0.00  0.00     0.005 A 
ATOM     15  C   UNL d   1     -51.876  26.487  37.413  0.00  0.00     0.003 A 
ATOM     16  C   UNL d   1     -51.783  26.249  38.198  0.00  0.00     0.030 A 
ATOM     17  C   UNL d   1     -52.159  25.564  38.473  0.00  0.00     0.140 A 
ATOM     18  C   UNL d   1     -52.624  25.123  37.958  0.00  0.00     0.030 A 
ATOM     19  F   UNL d   1     -52.067  25.325  39.258  0.00  0.00    -0.204 F 
ATOM     20  C   UNL d   1     -52.717  25.358  37.173  0.00  0.00     0.003 A 
ENDBRANCH  13  14
ENDBRANCH  11  13
ENDBRANCH   1  10
BRANCH   3  21
ATOM     21  C   UNL d   1     -51.852  24.583  33.719  0.00  0.00     0.085 A 
ATOM     22  C   UNL d   1     -52.642  24.725  33.528  0.00  0.00     0.031 A 
ATOM     23  C   UNL d   1     -53.156  24.097  33.496  0.00  0.00     0.059 A 
ATOM     24 CL   UNL d   1     -53.943  24.227  33.308  0.00  0.00    -0.082 Cl
ATOM     25  C   UNL d   1     -52.896  23.330  33.651  0.00  0.00     0.011 A 
ATOM     26  C   UNL d   1     -52.114  23.190  33.840  0.00  0.00     0.002 A 
ATOM     27  C   UNL d   1     -51.585  23.823  33.875  0.00  0.00     0.019 A 
ENDBRANCH   3  21
TORSDOF 4
ENDMDL
