MODEL 1
REMARK VINA RESULT:      47.8      0.000      0.000
REMARK  5 active torsions:
REMARK  status: ('A' for Active; 'I' for Inactive)
REMARK    1  A    between atoms: C_7  and  N_1 
REMARK    2  A    between atoms: C_23  and  C_5 
REMARK    3  A    between atoms: C_22  and  C_6 
REMARK    4  A    between atoms: C_8  and  C_7 
REMARK       I    between atoms: N_11  and  C_8 
REMARK    5  A    between atoms: C_17  and  N_11 
ROOT
ATOM      1  C   UNL d   1      14.272  13.540  -0.199  0.00  0.00     0.148 C 
ENDROOT
BRANCH   1   2
ATOM      2  N   UNL d   1      14.853  14.127  -0.205  0.00  0.00    -0.235 N 
ATOM      3  C   UNL d   1      14.636  14.921  -0.304  0.00  0.00     0.273 A 
ATOM      4  C   UNL d   1      15.212  15.502  -0.310  0.00  0.00     0.086 A 
ATOM      5  O   UNL d   1      13.839  15.123  -0.395  0.00  0.00    -0.266 OA
ATOM      6  S   UNL d   1      16.005  15.313  -0.220  0.00  0.00    -0.077 SA
ATOM      7  C   UNL d   1      16.225  14.526  -0.122  0.00  0.00     0.086 A 
ATOM      8  C   UNL d   1      15.655  13.928  -0.113  0.00  0.00     0.273 A 
ATOM      9  O   UNL d   1      15.872  13.139  -0.015  0.00  0.00    -0.266 OA
BRANCH   4  10
ATOM     10  C   UNL d   1      14.992  16.300  -0.409  0.00  0.00     0.011 C 
ATOM     11  C   UNL d   1      15.574  16.882  -0.484  0.00  0.00     0.001 C 
ENDBRANCH   4  10
BRANCH   7  12
ATOM     12  C   UNL d   1      17.021  14.328  -0.030  0.00  0.00     0.011 C 
ATOM     13  C   UNL d   1      17.607  14.871  -0.238  0.00  0.00     0.001 C 
ENDBRANCH   7  12
ENDBRANCH   1   2
BRANCH   1  14
ATOM     14  C   UNL d   1      14.132  13.095  -0.878  0.00  0.00     0.297 C 
ATOM     15  N   UNL d   1      13.874  13.469  -1.558  0.00  0.00    -0.207 NA
ATOM     16  O   UNL d   1      14.253  12.278  -0.862  0.00  0.00    -0.264 OA
BRANCH  15  17
ATOM     17  C   UNL d   1      13.733  13.024  -2.238  0.00  0.00     0.087 A 
ATOM     18  C   UNL d   1      13.708  13.395  -2.973  0.00  0.00     0.045 A 
ATOM     19  C   UNL d   1      13.569  12.964  -3.654  0.00  0.00     0.121 A 
ATOM     20  O   UNL d   1      13.513  13.179  -4.453  0.00  0.00    -0.299 OA
ATOM     21  C   UNL d   1      13.453  12.147  -3.607  0.00  0.00     0.119 A 
ATOM     22  C   UNL d   1      13.362  12.490  -4.893  0.00  0.00     0.304 A 
ATOM     23  O   UNL d   1      13.327  11.864  -4.364  0.00  0.00    -0.300 OA
ATOM     24  C   UNL d   1      13.480  11.780  -2.863  0.00  0.00     0.028 A 
ATOM     25  C   UNL d   1      13.619  12.216  -2.183  0.00  0.00     0.021 A 
ENDBRANCH  15  17
ENDBRANCH   1  14
TORSDOF 5
ENDMDL
MODEL 2
REMARK VINA RESULT:      50.2      2.402      4.512
REMARK  5 active torsions:
REMARK  status: ('A' for Active; 'I' for Inactive)
REMARK    1  A    between atoms: C_7  and  N_1 
REMARK    2  A    between atoms: C_23  and  C_5 
REMARK    3  A    between atoms: C_22  and  C_6 
REMARK    4  A    between atoms: C_8  and  C_7 
REMARK       I    between atoms: N_11  and  C_8 
REMARK    5  A    between atoms: C_17  and  N_11 
ROOT
ATOM      1  C   UNL d   1      12.887  13.482  -3.434  0.00  0.00     0.148 C 
ENDROOT
BRANCH   1   2
ATOM      2  N   UNL d   1      13.211  13.535  -4.192  0.00  0.00    -0.235 N 
ATOM      3  C   UNL d   1      13.566  14.242  -4.440  0.00  0.00     0.273 A 
ATOM      4  C   UNL d   1      13.887  14.294  -5.191  0.00  0.00     0.086 A 
ATOM      5  O   UNL d   1      13.594  14.892  -3.928  0.00  0.00    -0.266 OA
ATOM      6  S   UNL d   1      13.865  13.656  -5.705  0.00  0.00    -0.077 SA
ATOM      7  C   UNL d   1      13.514  12.953  -5.464  0.00  0.00     0.086 A 
ATOM      8  C   UNL d   1      13.185  12.885  -4.708  0.00  0.00     0.273 A 
ATOM      9  O   UNL d   1      12.833  12.181  -4.463  0.00  0.00    -0.266 OA
BRANCH   4  10
ATOM     10  C   UNL d   1      14.243  15.006  -5.439  0.00  0.00     0.011 C 
ATOM     11  C   UNL d   1      14.131  15.276  -6.211  0.00  0.00     0.001 C 
ENDBRANCH   4  10
BRANCH   7  12
ATOM     12  C   UNL d   1      13.488  12.306  -5.976  0.00  0.00     0.011 C 
ATOM     13  C   UNL d   1      14.150  11.820  -6.060  0.00  0.00     0.001 C 
ENDBRANCH   7  12
ENDBRANCH   1   2
BRANCH   1  14
ATOM     14  C   UNL d   1      13.290  13.073  -2.843  0.00  0.00     0.297 C 
ATOM     15  N   UNL d   1      13.678  13.489  -2.257  0.00  0.00    -0.207 NA
ATOM     16  O   UNL d   1      13.297  12.247  -2.853  0.00  0.00    -0.264 OA
BRANCH  15  17
ATOM     17  C   UNL d   1      14.082  13.080  -1.665  0.00  0.00     0.087 A 
ATOM     18  C   UNL d   1      14.864  12.849  -1.786  0.00  0.00     0.045 A 
ATOM     19  C   UNL d   1      15.273  12.443  -1.206  0.00  0.00     0.121 A 
ATOM     20  O   UNL d   1      16.047  12.146  -1.170  0.00  0.00    -0.299 OA
ATOM     21  C   UNL d   1      14.901  12.261  -0.492  0.00  0.00     0.119 A 
ATOM     22  C   UNL d   1      16.145  11.781  -0.429  0.00  0.00     0.304 A 
ATOM     23  O   UNL d   1      15.437  11.858  -0.023  0.00  0.00    -0.300 OA
ATOM     24  C   UNL d   1      14.114  12.496  -0.377  0.00  0.00     0.028 A 
ATOM     25  C   UNL d   1      13.707  12.903  -0.960  0.00  0.00     0.021 A 
ENDBRANCH  15  17
ENDBRANCH   1  14
TORSDOF 5
ENDMDL
