MODEL 1
REMARK VINA RESULT:      -1.8      0.000      0.000
REMARK  5 active torsions:
REMARK  status: ('A' for Active; 'I' for Inactive)
REMARK    1  A    between atoms: C_15  and  N_5 
REMARK    2  A    between atoms: S_10  and  C_6 
REMARK    3  A    between atoms: C_14  and  S_10 
REMARK    4  A    between atoms: C_11  and  C_14 
REMARK       I    between atoms: N_13  and  C_11 
REMARK    5  A    between atoms: C_17  and  C_15 
ROOT
ATOM      1  C   UNL d   1      32.998  22.277 -20.867  0.00  0.00     0.081 A 
ATOM      2  C   UNL d   1      33.165  21.472 -20.793  0.00  0.00     0.117 A 
ATOM      3  N   UNL d   1      33.241  21.029 -21.447  0.00  0.00    -0.215 NA
ATOM      4  C   UNL d   1      32.913  22.611 -21.585  0.00  0.00     0.268 A 
ATOM      5  N   UNL d   1      32.989  22.168 -22.239  0.00  0.00    -0.253 N 
ATOM      6  C   UNL d   1      33.152  21.381 -22.173  0.00  0.00     0.182 A 
ATOM      7  S   UNL d   1      33.220  21.285 -20.030  0.00  0.00    -0.068 SA
ATOM      8  C   UNL d   1      32.954  22.576 -20.093  0.00  0.00     0.013 A 
ATOM      9  C   UNL d   1      33.096  21.936 -19.592  0.00  0.00     0.031 A 
ATOM     10  O   UNL d   1      32.735  23.468 -21.680  0.00  0.00    -0.267 OA
ATOM     11  C   UNL d   1      32.831  23.223 -19.663  0.00  0.00     0.001 A 
ATOM     12  C   UNL d   1      33.052  22.235 -18.818  0.00  0.00     0.006 A 
ATOM     13  C   UNL d   1      32.897  22.988 -18.871  0.00  0.00     0.001 A 
ENDROOT
BRANCH   6  14
ATOM     14  S   UNL d   1      33.234  20.909 -22.877  0.00  0.00    -0.044 SA
BRANCH  14  15
ATOM     15  C   UNL d   1      33.074  20.080 -22.805  0.00  0.00     0.099 C 
BRANCH  15  16
ATOM     16  C   UNL d   1      33.060  19.623 -23.525  0.00  0.00     0.272 C 
ATOM     17  N   UNL d   1      32.910  18.815 -23.534  0.00  0.00    -0.269 N 
ATOM     18  C   UNL d   1      32.906  18.403 -24.270  0.00  0.00     0.102 C 
ATOM     19  C   UNL d   1      32.764  18.408 -22.815  0.00  0.00     0.102 C 
ATOM     20  O   UNL d   1      33.209  20.039 -24.248  0.00  0.00    -0.266 OA
ENDBRANCH  15  16
ENDBRANCH  14  15
ENDBRANCH   6  14
BRANCH   5  21
ATOM     21  C   UNL d   1      32.894  22.549 -22.997  0.00  0.00     0.085 C 
BRANCH  21  22
ATOM     22  C   UNL d   1      33.236  23.274 -23.176  0.00  0.00     0.019 C 
ATOM     23  C   UNL d   1      33.187  23.580 -23.928  0.00  0.00     0.002 C 
ENDBRANCH  21  22
ENDBRANCH   5  21
TORSDOF 5
ENDMDL
MODEL 2
REMARK VINA RESULT:      -1.0      1.218      4.304
REMARK  5 active torsions:
REMARK  status: ('A' for Active; 'I' for Inactive)
REMARK    1  A    between atoms: C_15  and  N_5 
REMARK    2  A    between atoms: S_10  and  C_6 
REMARK    3  A    between atoms: C_14  and  S_10 
REMARK    4  A    between atoms: C_11  and  C_14 
REMARK       I    between atoms: N_13  and  C_11 
REMARK    5  A    between atoms: C_17  and  C_15 
ROOT
ATOM      1  C   UNL d   1      32.982  19.198 -23.711  0.00  0.00     0.081 A 
ATOM      2  C   UNL d   1      32.971  19.233 -22.886  0.00  0.00     0.117 A 
ATOM      3  N   UNL d   1      33.049  19.936 -22.526  0.00  0.00    -0.215 NA
ATOM      4  C   UNL d   1      33.069  19.859 -24.146  0.00  0.00     0.268 A 
ATOM      5  N   UNL d   1      33.147  20.562 -23.786  0.00  0.00    -0.253 N 
ATOM      6  C   UNL d   1      33.137  20.603 -22.981  0.00  0.00     0.182 A 
ATOM      7  S   UNL d   1      32.878  18.508 -22.594  0.00  0.00    -0.068 SA
ATOM      8  C   UNL d   1      32.889  18.396 -23.909  0.00  0.00     0.013 A 
ATOM      9  C   UNL d   1      32.827  17.989 -23.193  0.00  0.00     0.031 A 
ATOM     10  O   UNL d   1      33.083  19.838 -25.026  0.00  0.00    -0.267 OA
ATOM     11  C   UNL d   1      32.839  17.886 -24.506  0.00  0.00     0.001 A 
ATOM     12  C   UNL d   1      32.735  17.187 -23.391  0.00  0.00     0.006 A 
ATOM     13  C   UNL d   1      32.743  17.139 -24.161  0.00  0.00     0.001 A 
ENDROOT
BRANCH   6  14
ATOM     14  S   UNL d   1      33.221  21.359 -22.597  0.00  0.00    -0.044 SA
BRANCH  14  15
ATOM     15  C   UNL d   1      33.223  21.363 -21.750  0.00  0.00     0.099 C 
BRANCH  15  16
ATOM     16  C   UNL d   1      33.221  22.125 -21.366  0.00  0.00     0.272 C 
ATOM     17  N   UNL d   1      33.216  22.207 -20.548  0.00  0.00    -0.269 N 
ATOM     18  C   UNL d   1      33.214  22.980 -20.211  0.00  0.00     0.102 C 
ATOM     19  C   UNL d   1      33.213  21.526 -20.058  0.00  0.00     0.102 C 
ATOM     20  O   UNL d   1      33.223  22.808 -21.866  0.00  0.00    -0.266 OA
ENDBRANCH  15  16
ENDBRANCH  14  15
ENDBRANCH   6  14
BRANCH   5  21
ATOM     21  C   UNL d   1      33.239  21.257 -24.273  0.00  0.00     0.085 C 
BRANCH  21  22
ATOM     22  C   UNL d   1      32.682  21.484 -24.833  0.00  0.00     0.019 C 
ATOM     23  C   UNL d   1      32.650  22.253 -25.096  0.00  0.00     0.002 C 
ENDBRANCH  21  22
ENDBRANCH   5  21
TORSDOF 5
ENDMDL
MODEL 3
REMARK VINA RESULT:       0.6      1.358      2.662
REMARK  5 active torsions:
REMARK  status: ('A' for Active; 'I' for Inactive)
REMARK    1  A    between atoms: C_15  and  N_5 
REMARK    2  A    between atoms: S_10  and  C_6 
REMARK    3  A    between atoms: C_14  and  S_10 
REMARK    4  A    between atoms: C_11  and  C_14 
REMARK       I    between atoms: N_13  and  C_11 
REMARK    5  A    between atoms: C_17  and  C_15 
ROOT
ATOM      1  C   UNL d   1      32.883  21.883 -20.252  0.00  0.00     0.081 A 
ATOM      2  C   UNL d   1      33.116  22.579 -20.628  0.00  0.00     0.117 A 
ATOM      3  N   UNL d   1      33.227  22.577 -21.414  0.00  0.00    -0.215 NA
ATOM      4  C   UNL d   1      32.770  21.212 -20.667  0.00  0.00     0.268 A 
ATOM      5  N   UNL d   1      32.881  21.210 -21.453  0.00  0.00    -0.253 N 
ATOM      6  C   UNL d   1      33.108  21.888 -21.827  0.00  0.00     0.182 A 
ATOM      7  S   UNL d   1      33.188  23.154 -20.096  0.00  0.00    -0.068 SA
ATOM      8  C   UNL d   1      32.816  22.068 -19.445  0.00  0.00     0.013 A 
ATOM      9  C   UNL d   1      33.012  22.867 -19.376  0.00  0.00     0.031 A 
ATOM     10  O   UNL d   1      32.521  20.462 -20.279  0.00  0.00    -0.267 OA
ATOM     11  C   UNL d   1      32.641  21.779 -18.734  0.00  0.00     0.001 A 
ATOM     12  C   UNL d   1      32.945  23.053 -18.569  0.00  0.00     0.006 A 
ATOM     13  C   UNL d   1      32.727  22.410 -18.204  0.00  0.00     0.001 A 
ENDROOT
BRANCH   6  14
ATOM     14  S   UNL d   1      33.227  21.882 -22.670  0.00  0.00    -0.044 SA
BRANCH  14  15
ATOM     15  C   UNL d   1      33.088  22.609 -23.084  0.00  0.00     0.099 C 
BRANCH  15  16
ATOM     16  C   UNL d   1      32.886  22.553 -23.910  0.00  0.00     0.272 C 
ATOM     17  N   UNL d   1      32.372  23.079 -24.277  0.00  0.00    -0.269 N 
ATOM     18  C   UNL d   1      32.200  22.986 -25.097  0.00  0.00     0.102 C 
ATOM     19  C   UNL d   1      32.025  23.702 -23.835  0.00  0.00     0.102 C 
ATOM     20  O   UNL d   1      33.239  21.922 -24.351  0.00  0.00    -0.266 OA
ENDBRANCH  15  16
ENDBRANCH  14  15
ENDBRANCH   6  14
BRANCH   5  21
ATOM     21  C   UNL d   1      32.753  20.481 -21.877  0.00  0.00     0.085 C 
BRANCH  21  22
ATOM     22  C   UNL d   1      33.188  19.800 -21.729  0.00  0.00     0.019 C 
ATOM     23  C   UNL d   1      33.055  19.122 -22.159  0.00  0.00     0.002 C 
ENDBRANCH  21  22
ENDBRANCH   5  21
TORSDOF 5
ENDMDL
