MODEL 1
REMARK VINA RESULT:      18.2      0.000      0.000
REMARK  2 active torsions:
REMARK  status: ('A' for Active; 'I' for Inactive)
REMARK    1  A    between atoms: C_2  and  S_1 
REMARK    2  A    between atoms: N_4  and  S_1 
ROOT
ATOM      1  S   UNL d   1      58.212  49.649  50.541  0.00  0.00     0.275 S 
ATOM      2  O   UNL d   1      58.068  49.591  51.347  0.00  0.00    -0.199 OA
ATOM      3  O   UNL d   1      58.359  49.707  49.735  0.00  0.00    -0.199 OA
ENDROOT
BRANCH   1   4
ATOM      4  C   UNL d   1      57.406  49.665  50.382  0.00  0.00     0.143 A 
ATOM      5  C   UNL d   1      57.069  49.679  49.629  0.00  0.00     0.117 A 
ATOM      6  N   UNL d   1      56.251  49.693  49.722  0.00  0.00    -0.147 NA
ATOM      7  C   UNL d   1      57.473  49.679  48.909  0.00  0.00     0.023 C 
ATOM      8  N   UNL d   1      56.087  49.687  50.533  0.00  0.00    -0.147 NA
ATOM      9  C   UNL d   1      56.803  49.670  50.932  0.00  0.00     0.117 A 
ATOM     10  C   UNL d   1      56.896  49.660  51.751  0.00  0.00     0.023 C 
ENDBRANCH   1   4
BRANCH   1  11
ATOM     11  N   UNL d   1      59.030  49.635  50.666  0.00  0.00    -0.225 N 
ATOM     12  C   UNL d   1      59.334  49.705  51.440  0.00  0.00     0.118 A 
ATOM     13  C   UNL d   1      60.152  49.691  51.564  0.00  0.00     0.142 A 
ATOM     14  O   UNL d   1      60.667  49.608  50.928  0.00  0.00    -0.300 OA
ATOM     15  C   UNL d   1      60.368  49.539  50.161  0.00  0.00     0.142 A 
ATOM     16  C   UNL d   1      59.549  49.552  50.028  0.00  0.00     0.118 A 
ENDBRANCH   1  11
TORSDOF 2
ENDMDL
