MODEL 1
REMARK VINA RESULT:      -2.3      0.000      0.000
REMARK  5 active torsions:
REMARK  status: ('A' for Active; 'I' for Inactive)
REMARK    1  A    between atoms: N_5  and  C_3 
REMARK    2  A    between atoms: O_13  and  C_4 
REMARK       I    between atoms: C_6  and  N_5 
REMARK    3  A    between atoms: C_9  and  C_6 
REMARK    4  A    between atoms: O_14  and  C_7 
REMARK    5  A    between atoms: O_18  and  C_15 
ROOT
ATOM      1  N   UNL d   1      32.380  18.836 -22.873  0.00  0.00    -0.189 NA
ATOM      2  C   UNL d   1      32.862  19.487 -23.069  0.00  0.00     0.281 C 
ATOM      3  O   UNL d   1      33.241  19.520 -23.820  0.00  0.00    -0.265 OA
ENDROOT
BRANCH   1   4
ATOM      4  C   UNL d   1      32.276  18.225 -23.419  0.00  0.00     0.173 A 
ATOM      5  N   UNL d   1      31.639  18.242 -23.953  0.00  0.00    -0.186 NA
ATOM      6  C   UNL d   1      31.542  17.631 -24.493  0.00  0.00     0.273 A 
ATOM      7  N   UNL d   1      32.091  17.001 -24.493  0.00  0.00    -0.181 NA
ATOM      8  C   UNL d   1      32.700  16.985 -23.984  0.00  0.00     0.185 A 
ATOM      9  C   UNL d   1      32.812  17.596 -23.430  0.00  0.00     0.083 A 
BRANCH   6  10
ATOM     10  O   UNL d   1      30.926  17.647 -25.009  0.00  0.00    -0.297 OA
ATOM     11  C   UNL d   1      30.231  17.262 -24.840  0.00  0.00     0.185 C 
ENDBRANCH   6  10
BRANCH   8  12
ATOM     12  O   UNL d   1      33.231  16.342 -24.008  0.00  0.00    -0.312 OA
ATOM     13  C   UNL d   1      33.158  15.745 -23.429  0.00  0.00     0.183 C 
ENDBRANCH   8  12
ENDBRANCH   1   4
BRANCH   2  14
ATOM     14  C   UNL d   1      32.957  20.091 -22.515  0.00  0.00     0.058 A 
ATOM     15  C   UNL d   1      33.141  20.862 -22.753  0.00  0.00     0.007 A 
ATOM     16  C   UNL d   1      33.233  21.443 -22.221  0.00  0.00     0.024 A 
ATOM     17  C   UNL d   1      33.147  21.298 -21.400  0.00  0.00     0.094 A 
ATOM     18  C   UNL d   1      32.964  20.533 -21.153  0.00  0.00     0.024 A 
ATOM     19  C   UNL d   1      32.873  19.945 -21.722  0.00  0.00     0.007 A 
BRANCH  17  20
ATOM     20  O   UNL d   1      33.240  21.889 -20.847  0.00  0.00    -0.328 OA
ATOM     21  C   UNL d   1      32.593  22.237 -20.511  0.00  0.00     0.181 C 
ENDBRANCH  17  20
ENDBRANCH   2  14
TORSDOF 5
ENDMDL
MODEL 2
REMARK VINA RESULT:      -1.6      1.684      4.956
REMARK  5 active torsions:
REMARK  status: ('A' for Active; 'I' for Inactive)
REMARK    1  A    between atoms: N_5  and  C_3 
REMARK    2  A    between atoms: O_13  and  C_4 
REMARK       I    between atoms: C_6  and  N_5 
REMARK    3  A    between atoms: C_9  and  C_6 
REMARK    4  A    between atoms: O_14  and  C_7 
REMARK    5  A    between atoms: O_18  and  C_15 
ROOT
ATOM      1  N   UNL d   1      33.241  20.413 -22.261  0.00  0.00    -0.189 NA
ATOM      2  C   UNL d   1      32.595  19.940 -22.496  0.00  0.00     0.281 C 
ATOM      3  O   UNL d   1      31.809  20.233 -22.420  0.00  0.00    -0.265 OA
ENDROOT
BRANCH   1   4
ATOM      4  C   UNL d   1      33.105  21.168 -21.955  0.00  0.00     0.173 A 
ATOM      5  N   UNL d   1      32.888  21.265 -21.157  0.00  0.00    -0.186 NA
ATOM      6  C   UNL d   1      32.755  22.019 -20.860  0.00  0.00     0.273 A 
ATOM      7  N   UNL d   1      32.840  22.676 -21.369  0.00  0.00    -0.181 NA
ATOM      8  C   UNL d   1      33.046  22.583 -22.130  0.00  0.00     0.185 A 
ATOM      9  C   UNL d   1      33.186  21.825 -22.448  0.00  0.00     0.083 A 
BRANCH   6  10
ATOM     10  O   UNL d   1      32.545  22.113 -20.089  0.00  0.00    -0.297 OA
ATOM     11  C   UNL d   1      33.052  22.463 -19.560  0.00  0.00     0.185 C 
ENDBRANCH   6  10
BRANCH   8  12
ATOM     12  O   UNL d   1      33.124  23.258 -22.614  0.00  0.00    -0.312 OA
ATOM     13  C   UNL d   1      32.435  23.573 -22.966  0.00  0.00     0.183 C 
ENDBRANCH   8  12
ENDBRANCH   1   4
BRANCH   2  14
ATOM     14  C   UNL d   1      32.744  19.188 -22.800  0.00  0.00     0.058 A 
ATOM     15  C   UNL d   1      32.553  18.999 -23.582  0.00  0.00     0.007 A 
ATOM     16  C   UNL d   1      32.696  18.276 -23.875  0.00  0.00     0.024 A 
ATOM     17  C   UNL d   1      33.045  17.678 -23.404  0.00  0.00     0.094 A 
ATOM     18  C   UNL d   1      33.240  17.856 -22.623  0.00  0.00     0.024 A 
ATOM     19  C   UNL d   1      33.083  18.613 -22.339  0.00  0.00     0.007 A 
BRANCH  17  20
ATOM     20  O   UNL d   1      33.196  16.933 -23.697  0.00  0.00    -0.328 OA
ATOM     21  C   UNL d   1      32.601  16.497 -24.026  0.00  0.00     0.181 C 
ENDBRANCH  17  20
ENDBRANCH   2  14
TORSDOF 5
ENDMDL
MODEL 3
REMARK VINA RESULT:      -1.5      1.682      4.876
REMARK  5 active torsions:
REMARK  status: ('A' for Active; 'I' for Inactive)
REMARK    1  A    between atoms: N_5  and  C_3 
REMARK    2  A    between atoms: O_13  and  C_4 
REMARK       I    between atoms: C_6  and  N_5 
REMARK    3  A    between atoms: C_9  and  C_6 
REMARK    4  A    between atoms: O_14  and  C_7 
REMARK    5  A    between atoms: O_18  and  C_15 
ROOT
ATOM      1  N   UNL d   1      33.237  20.332 -22.154  0.00  0.00    -0.189 NA
ATOM      2  C   UNL d   1      32.604  19.909 -22.493  0.00  0.00     0.281 C 
ATOM      3  O   UNL d   1      31.829  20.239 -22.493  0.00  0.00    -0.265 OA
ENDROOT
BRANCH   1   4
ATOM      4  C   UNL d   1      33.099  21.074 -21.817  0.00  0.00     0.173 A 
ATOM      5  N   UNL d   1      33.134  21.761 -22.286  0.00  0.00    -0.186 NA
ATOM      6  C   UNL d   1      32.996  22.495 -21.945  0.00  0.00     0.273 A 
ATOM      7  N   UNL d   1      32.823  22.535 -21.128  0.00  0.00    -0.181 NA
ATOM      8  C   UNL d   1      32.790  21.880 -20.681  0.00  0.00     0.185 A 
ATOM      9  C   UNL d   1      32.927  21.128 -21.011  0.00  0.00     0.083 A 
BRANCH   6  10
ATOM     10  O   UNL d   1      33.029  23.158 -22.398  0.00  0.00    -0.297 OA
ATOM     11  C   UNL d   1      32.403  23.674 -22.427  0.00  0.00     0.185 C 
ENDBRANCH   6  10
BRANCH   8  12
ATOM     12  O   UNL d   1      32.615  21.953 -19.869  0.00  0.00    -0.312 OA
ATOM     13  C   UNL d   1      33.171  22.334 -19.376  0.00  0.00     0.183 C 
ENDBRANCH   8  12
ENDBRANCH   1   4
BRANCH   2  14
ATOM     14  C   UNL d   1      32.754  19.170 -22.826  0.00  0.00     0.058 A 
ATOM     15  C   UNL d   1      33.093  18.562 -22.378  0.00  0.00     0.007 A 
ATOM     16  C   UNL d   1      33.238  17.850 -22.697  0.00  0.00     0.024 A 
ATOM     17  C   UNL d   1      33.054  17.688 -23.498  0.00  0.00     0.094 A 
ATOM     18  C   UNL d   1      32.716  18.287 -23.953  0.00  0.00     0.024 A 
ATOM     19  C   UNL d   1      32.574  19.018 -23.602  0.00  0.00     0.007 A 
BRANCH  17  20
ATOM     20  O   UNL d   1      33.199  16.960 -23.834  0.00  0.00    -0.328 OA
ATOM     21  C   UNL d   1      32.836  16.299 -23.545  0.00  0.00     0.181 C 
ENDBRANCH  17  20
ENDBRANCH   2  14
TORSDOF 5
ENDMDL
MODEL 4
REMARK VINA RESULT:      -0.1      0.917      1.217
REMARK  5 active torsions:
REMARK  status: ('A' for Active; 'I' for Inactive)
REMARK    1  A    between atoms: N_5  and  C_3 
REMARK    2  A    between atoms: O_13  and  C_4 
REMARK       I    between atoms: C_6  and  N_5 
REMARK    3  A    between atoms: C_9  and  C_6 
REMARK    4  A    between atoms: O_14  and  C_7 
REMARK    5  A    between atoms: O_18  and  C_15 
ROOT
ATOM      1  N   UNL d   1      31.831  18.385 -23.323  0.00  0.00    -0.189 NA
ATOM      2  C   UNL d   1      32.620  18.654 -23.295  0.00  0.00     0.281 C 
ATOM      3  O   UNL d   1      33.241  18.170 -23.594  0.00  0.00    -0.265 OA
ENDROOT
BRANCH   1   4
ATOM      4  C   UNL d   1      31.664  17.643 -23.645  0.00  0.00     0.173 A 
ATOM      5  N   UNL d   1      30.998  17.538 -24.133  0.00  0.00    -0.186 NA
ATOM      6  C   UNL d   1      30.838  16.797 -24.450  0.00  0.00     0.273 A 
ATOM      7  N   UNL d   1      31.351  16.162 -24.273  0.00  0.00    -0.181 NA
ATOM      8  C   UNL d   1      31.986  16.262 -23.807  0.00  0.00     0.185 A 
ATOM      9  C   UNL d   1      32.163  17.007 -23.478  0.00  0.00     0.083 A 
BRANCH   6  10
ATOM     10  O   UNL d   1      30.195  16.696 -24.922  0.00  0.00    -0.297 OA
ATOM     11  C   UNL d   1      29.540  16.299 -24.653  0.00  0.00     0.185 C 
ENDBRANCH   6  10
BRANCH   8  12
ATOM     12  O   UNL d   1      32.479  15.609 -23.648  0.00  0.00    -0.312 OA
ATOM     13  C   UNL d   1      33.129  15.472 -24.154  0.00  0.00     0.183 C 
ENDBRANCH   8  12
ENDBRANCH   1   4
BRANCH   2  14
ATOM     14  C   UNL d   1      32.774  19.396 -22.971  0.00  0.00     0.058 A 
ATOM     15  C   UNL d   1      32.645  19.546 -22.168  0.00  0.00     0.007 A 
ATOM     16  C   UNL d   1      32.793  20.260 -21.855  0.00  0.00     0.024 A 
ATOM     17  C   UNL d   1      33.086  20.888 -22.326  0.00  0.00     0.094 A 
ATOM     18  C   UNL d   1      33.218  20.749 -23.128  0.00  0.00     0.024 A 
ATOM     19  C   UNL d   1      33.058  20.001 -23.432  0.00  0.00     0.007 A 
BRANCH  17  20
ATOM     20  O   UNL d   1      33.241  21.624 -22.014  0.00  0.00    -0.328 OA
ATOM     21  C   UNL d   1      32.744  22.243 -22.164  0.00  0.00     0.181 C 
ENDBRANCH  17  20
ENDBRANCH   2  14
TORSDOF 5
ENDMDL
MODEL 5
REMARK VINA RESULT:       0.1      2.257      3.975
REMARK  5 active torsions:
REMARK  status: ('A' for Active; 'I' for Inactive)
REMARK    1  A    between atoms: N_5  and  C_3 
REMARK    2  A    between atoms: O_13  and  C_4 
REMARK       I    between atoms: C_6  and  N_5 
REMARK    3  A    between atoms: C_9  and  C_6 
REMARK    4  A    between atoms: O_14  and  C_7 
REMARK    5  A    between atoms: O_18  and  C_15 
ROOT
ATOM      1  N   UNL d   1      30.252  17.221 -23.904  0.00  0.00    -0.189 NA
ATOM      2  C   UNL d   1      30.994  17.027 -24.230  0.00  0.00     0.281 C 
ATOM      3  O   UNL d   1      31.158  16.235 -24.463  0.00  0.00    -0.265 OA
ENDROOT
BRANCH   1   4
ATOM      4  C   UNL d   1      29.680  16.632 -23.811  0.00  0.00     0.173 A 
ATOM      5  N   UNL d   1      29.507  16.330 -23.055  0.00  0.00    -0.186 NA
ATOM      6  C   UNL d   1      28.937  15.745 -22.971  0.00  0.00     0.273 A 
ATOM      7  N   UNL d   1      28.541  15.464 -23.651  0.00  0.00    -0.181 NA
ATOM      8  C   UNL d   1      28.706  15.753 -24.372  0.00  0.00     0.185 A 
ATOM      9  C   UNL d   1      29.281  16.346 -24.476  0.00  0.00     0.083 A 
BRANCH   6  10
ATOM     10  O   UNL d   1      28.769  15.453 -22.241  0.00  0.00    -0.297 OA
ATOM     11  C   UNL d   1      29.301  15.526 -21.632  0.00  0.00     0.185 C 
ENDBRANCH   6  10
BRANCH   8  12
ATOM     12  O   UNL d   1      28.295  15.453 -25.033  0.00  0.00    -0.312 OA
ATOM     13  C   UNL d   1      27.478  15.613 -25.096  0.00  0.00     0.183 C 
ENDBRANCH   8  12
ENDBRANCH   1   4
BRANCH   2  14
ATOM     14  C   UNL d   1      31.557  17.624 -24.317  0.00  0.00     0.058 A 
ATOM     15  C   UNL d   1      32.131  17.756 -23.737  0.00  0.00     0.007 A 
ATOM     16  C   UNL d   1      32.673  18.330 -23.820  0.00  0.00     0.024 A 
ATOM     17  C   UNL d   1      32.682  18.823 -24.498  0.00  0.00     0.094 A 
ATOM     18  C   UNL d   1      32.113  18.700 -25.082  0.00  0.00     0.024 A 
ATOM     19  C   UNL d   1      31.561  18.099 -24.975  0.00  0.00     0.007 A 
BRANCH  17  20
ATOM     20  O   UNL d   1      33.235  19.415 -24.591  0.00  0.00    -0.328 OA
ATOM     21  C   UNL d   1      33.170  20.102 -24.171  0.00  0.00     0.181 C 
ENDBRANCH  17  20
ENDBRANCH   2  14
TORSDOF 5
ENDMDL
