MODEL 1
REMARK VINA RESULT:      -3.3      0.000      0.000
REMARK  5 active torsions:
REMARK  status: ('A' for Active; 'I' for Inactive)
REMARK    1  A    between atoms: C_2  and  C_4 
REMARK    2  A    between atoms: C_4  and  C_10 
REMARK    3  A    between atoms: S_8  and  C_6 
REMARK    4  A    between atoms: C_14  and  C_7 
REMARK    5  A    between atoms: C_10  and  S_8 
ROOT
ATOM      1  N   UNL d   1      32.749  20.434 -21.163  0.00  0.00    -0.148 NA
ATOM      2  N   UNL d   1      32.852  19.738 -21.594  0.00  0.00    -0.141 NA
ATOM      3  C   UNL d   1      33.090  19.768 -22.383  0.00  0.00     0.133 A 
ATOM      4  C   UNL d   1      32.888  21.164 -21.526  0.00  0.00     0.103 A 
ATOM      5  C   UNL d   1      33.124  21.201 -22.309  0.00  0.00     0.023 A 
ATOM      6  C   UNL d   1      33.227  20.511 -22.742  0.00  0.00     0.029 A 
ENDROOT
BRANCH   3   7
ATOM      7  S   UNL d   1      33.190  19.078 -22.806  0.00  0.00    -0.062 SA
BRANCH   7   8
ATOM      8  C   UNL d   1      32.545  18.727 -23.181  0.00  0.00     0.079 C 
BRANCH   8   9
ATOM      9  C   UNL d   1      32.606  17.968 -23.482  0.00  0.00     0.208 C 
ATOM     10  O   UNL d   1      33.241  17.491 -23.260  0.00  0.00    -0.285 OA
BRANCH   9  11
ATOM     11  C   UNL d   1      32.043  17.675 -24.001  0.00  0.00     0.069 A 
ATOM     12  S   UNL d   1      31.537  17.045 -23.853  0.00  0.00    -0.083 SA
ATOM     13  C   UNL d   1      31.064  16.936 -24.518  0.00  0.00     0.035 A 
ATOM     14  C   UNL d   1      31.287  17.505 -25.074  0.00  0.00     0.008 A 
ATOM     15  C   UNL d   1      31.888  17.958 -24.754  0.00  0.00     0.010 A 
ENDBRANCH   9  11
ENDBRANCH   8   9
ENDBRANCH   7   8
ENDBRANCH   3   7
BRANCH   4  16
ATOM     16  C   UNL d   1      32.785  21.859 -21.094  0.00  0.00     0.019 A 
ATOM     17  C   UNL d   1      32.236  22.430 -21.347  0.00  0.00     0.002 A 
ATOM     18  C   UNL d   1      32.133  23.129 -20.913  0.00  0.00     0.000 A 
ATOM     19  C   UNL d   1      32.577  23.261 -20.224  0.00  0.00     0.000 A 
ATOM     20  C   UNL d   1      33.116  22.701 -19.975  0.00  0.00     0.000 A 
ATOM     21  C   UNL d   1      33.228  21.999 -20.401  0.00  0.00     0.002 A 
ENDBRANCH   4  16
TORSDOF 5
ENDMDL
MODEL 2
REMARK VINA RESULT:      -2.4      1.736      5.156
REMARK  5 active torsions:
REMARK  status: ('A' for Active; 'I' for Inactive)
REMARK    1  A    between atoms: C_2  and  C_4 
REMARK    2  A    between atoms: C_4  and  C_10 
REMARK    3  A    between atoms: S_8  and  C_6 
REMARK    4  A    between atoms: C_14  and  C_7 
REMARK    5  A    between atoms: C_10  and  S_8 
ROOT
ATOM      1  N   UNL d   1      32.695  18.929 -22.563  0.00  0.00    -0.148 NA
ATOM      2  N   UNL d   1      32.851  19.725 -22.415  0.00  0.00    -0.141 NA
ATOM      3  C   UNL d   1      33.087  20.225 -23.026  0.00  0.00     0.133 A 
ATOM      4  C   UNL d   1      32.777  18.633 -23.331  0.00  0.00     0.103 A 
ATOM      5  C   UNL d   1      33.011  19.123 -23.943  0.00  0.00     0.023 A 
ATOM      6  C   UNL d   1      33.167  19.916 -23.799  0.00  0.00     0.029 A 
ENDROOT
BRANCH   3   7
ATOM      7  S   UNL d   1      33.241  21.012 -22.876  0.00  0.00    -0.062 SA
BRANCH   7   8
ATOM      8  C   UNL d   1      33.013  21.347 -22.158  0.00  0.00     0.079 C 
BRANCH   8   9
ATOM      9  C   UNL d   1      32.968  22.161 -22.078  0.00  0.00     0.208 C 
ATOM     10  O   UNL d   1      33.154  22.644 -22.720  0.00  0.00    -0.285 OA
BRANCH   9  11
ATOM     11  C   UNL d   1      32.742  22.501 -21.368  0.00  0.00     0.069 A 
ATOM     12  S   UNL d   1      32.142  23.054 -21.272  0.00  0.00    -0.083 SA
ATOM     13  C   UNL d   1      32.098  23.249 -20.474  0.00  0.00     0.035 A 
ATOM     14  C   UNL d   1      32.678  22.809 -20.082  0.00  0.00     0.008 A 
ATOM     15  C   UNL d   1      33.071  22.351 -20.633  0.00  0.00     0.010 A 
ENDBRANCH   9  11
ENDBRANCH   8   9
ENDBRANCH   7   8
ENDBRANCH   3   7
BRANCH   4  16
ATOM     16  C   UNL d   1      32.620  17.836 -23.478  0.00  0.00     0.019 A 
ATOM     17  C   UNL d   1      33.209  17.265 -23.344  0.00  0.00     0.002 A 
ATOM     18  C   UNL d   1      33.053  16.464 -23.492  0.00  0.00     0.000 A 
ATOM     19  C   UNL d   1      32.307  16.230 -23.775  0.00  0.00     0.000 A 
ATOM     20  C   UNL d   1      31.729  16.792 -23.907  0.00  0.00     0.000 A 
ATOM     21  C   UNL d   1      31.874  17.595 -23.762  0.00  0.00     0.002 A 
ENDBRANCH   4  16
TORSDOF 5
ENDMDL
MODEL 3
REMARK VINA RESULT:      -2.3      2.063      5.620
REMARK  5 active torsions:
REMARK  status: ('A' for Active; 'I' for Inactive)
REMARK    1  A    between atoms: C_2  and  C_4 
REMARK    2  A    between atoms: C_4  and  C_10 
REMARK    3  A    between atoms: S_8  and  C_6 
REMARK    4  A    between atoms: C_14  and  C_7 
REMARK    5  A    between atoms: C_10  and  S_8 
ROOT
ATOM      1  N   UNL d   1      30.235  17.470 -24.293  0.00  0.00    -0.148 NA
ATOM      2  N   UNL d   1      30.952  17.877 -24.256  0.00  0.00    -0.141 NA
ATOM      3  C   UNL d   1      31.634  17.494 -23.996  0.00  0.00     0.133 A 
ATOM      4  C   UNL d   1      30.204  16.675 -24.069  0.00  0.00     0.103 A 
ATOM      5  C   UNL d   1      30.877  16.289 -23.810  0.00  0.00     0.023 A 
ATOM      6  C   UNL d   1      31.593  16.690 -23.771  0.00  0.00     0.029 A 
ENDROOT
BRANCH   3   7
ATOM      7  S   UNL d   1      32.342  17.899 -23.960  0.00  0.00    -0.062 SA
BRANCH   7   8
ATOM      8  C   UNL d   1      32.518  18.364 -23.303  0.00  0.00     0.079 C 
BRANCH   8   9
ATOM      9  C   UNL d   1      32.934  19.064 -23.391  0.00  0.00     0.208 C 
ATOM     10  O   UNL d   1      33.241  19.264 -24.131  0.00  0.00    -0.285 OA
BRANCH   9  11
ATOM     11  C   UNL d   1      33.051  19.567 -22.755  0.00  0.00     0.069 A 
ATOM     12  S   UNL d   1      33.102  20.386 -22.797  0.00  0.00    -0.083 SA
ATOM     13  C   UNL d   1      33.219  20.674 -22.035  0.00  0.00     0.035 A 
ATOM     14  C   UNL d   1      33.240  20.022 -21.527  0.00  0.00     0.008 A 
ATOM     15  C   UNL d   1      33.136  19.344 -21.972  0.00  0.00     0.010 A 
ENDBRANCH   9  11
ENDBRANCH   8   9
ENDBRANCH   7   8
ENDBRANCH   3   7
BRANCH   4  16
ATOM     16  C   UNL d   1      29.486  16.270 -24.107  0.00  0.00     0.019 A 
ATOM     17  C   UNL d   1      29.228  15.946 -24.828  0.00  0.00     0.002 A 
ATOM     18  C   UNL d   1      28.508  15.538 -24.867  0.00  0.00     0.000 A 
ATOM     19  C   UNL d   1      28.040  15.453 -24.186  0.00  0.00     0.000 A 
ATOM     20  C   UNL d   1      28.292  15.771 -23.478  0.00  0.00     0.000 A 
ATOM     21  C   UNL d   1      29.011  16.180 -23.427  0.00  0.00     0.002 A 
ENDBRANCH   4  16
TORSDOF 5
ENDMDL
MODEL 4
REMARK VINA RESULT:      -2.2      1.048      1.649
REMARK  5 active torsions:
REMARK  status: ('A' for Active; 'I' for Inactive)
REMARK    1  A    between atoms: C_2  and  C_4 
REMARK    2  A    between atoms: C_4  and  C_10 
REMARK    3  A    between atoms: S_8  and  C_6 
REMARK    4  A    between atoms: C_14  and  C_7 
REMARK    5  A    between atoms: C_10  and  S_8 
ROOT
ATOM      1  N   UNL d   1      33.046  19.248 -22.000  0.00  0.00    -0.148 NA
ATOM      2  N   UNL d   1      32.942  18.556 -22.437  0.00  0.00    -0.141 NA
ATOM      3  C   UNL d   1      32.717  18.593 -23.229  0.00  0.00     0.133 A 
ATOM      4  C   UNL d   1      32.924  19.982 -22.362  0.00  0.00     0.103 A 
ATOM      5  C   UNL d   1      32.700  20.026 -23.148  0.00  0.00     0.023 A 
ATOM      6  C   UNL d   1      32.596  19.340 -23.586  0.00  0.00     0.029 A 
ENDROOT
BRANCH   3   7
ATOM      7  S   UNL d   1      32.615  17.907 -23.658  0.00  0.00    -0.062 SA
BRANCH   7   8
ATOM      8  C   UNL d   1      31.863  17.579 -23.740  0.00  0.00     0.079 C 
BRANCH   8   9
ATOM      9  C   UNL d   1      31.735  16.963 -24.264  0.00  0.00     0.208 C 
ATOM     10  O   UNL d   1      32.358  16.691 -24.731  0.00  0.00    -0.285 OA
BRANCH   9  11
ATOM     11  C   UNL d   1      30.997  16.613 -24.330  0.00  0.00     0.069 A 
ATOM     12  S   UNL d   1      30.416  16.823 -24.871  0.00  0.00    -0.083 SA
ATOM     13  C   UNL d   1      29.765  16.334 -24.748  0.00  0.00     0.035 A 
ATOM     14  C   UNL d   1      29.955  15.825 -24.126  0.00  0.00     0.008 A 
ATOM     15  C   UNL d   1      30.712  15.998 -23.871  0.00  0.00     0.010 A 
ENDBRANCH   9  11
ENDBRANCH   8   9
ENDBRANCH   7   8
ENDBRANCH   3   7
BRANCH   4  16
ATOM     16  C   UNL d   1      33.028  20.673 -21.924  0.00  0.00     0.019 A 
ATOM     17  C   UNL d   1      33.034  21.412 -22.307  0.00  0.00     0.002 A 
ATOM     18  C   UNL d   1      33.139  22.107 -21.868  0.00  0.00     0.000 A 
ATOM     19  C   UNL d   1      33.239  22.068 -21.044  0.00  0.00     0.000 A 
ATOM     20  C   UNL d   1      33.233  21.344 -20.668  0.00  0.00     0.000 A 
ATOM     21  C   UNL d   1      33.129  20.642 -21.097  0.00  0.00     0.002 A 
ENDBRANCH   4  16
TORSDOF 5
ENDMDL
