MODEL 1
REMARK VINA RESULT:      21.6      0.000      0.000
REMARK  7 active torsions:
REMARK  status: ('A' for Active; 'I' for Inactive)
REMARK    1  A    between atoms: C_2  and  S_1 
REMARK    2  A    between atoms: N_11  and  S_1 
REMARK    3  A    between atoms: O_14  and  C_4 
REMARK    4  A    between atoms: N_10  and  C_15 
REMARK    5  A    between atoms: C_19  and  N_11 
REMARK    6  A    between atoms: C_15  and  C_16 
REMARK    7  A    between atoms: C_16  and  C_19 
ROOT
ATOM      1  S   UNL d   1      45.496 -15.180  44.345  0.00  0.00     0.287 S 
ATOM      2  O   UNL d   1      44.966 -15.348  43.741  0.00  0.00    -0.198 OA
ATOM      3  O   UNL d   1      46.030 -15.010  44.954  0.00  0.00    -0.198 OA
ENDROOT
BRANCH   1   4
ATOM      4  C   UNL d   1      45.583 -14.416  44.056  0.00  0.00     0.128 A 
ATOM      5  C   UNL d   1      45.380 -13.771  44.535  0.00  0.00     0.026 A 
ATOM      6  C   UNL d   1      45.469 -12.996  44.242  0.00  0.00     0.059 A 
ATOM      7 CL   UNL d   1      45.269 -12.362  44.713  0.00  0.00    -0.082 Cl
ATOM      8  C   UNL d   1      45.759 -12.878  43.473  0.00  0.00     0.013 A 
ATOM      9  C   UNL d   1      45.957 -13.521  43.004  0.00  0.00     0.026 A 
ATOM     10  C   UNL d   1      45.846 -12.116  43.184  0.00  0.00     0.001 C 
ATOM     11  C   UNL d   1      45.869 -14.295  43.298  0.00  0.00     0.106 A 
BRANCH  11  12
ATOM     12  O   UNL d   1      46.069 -14.938  42.824  0.00  0.00    -0.327 OA
ATOM     13  C   UNL d   1      46.574 -14.829  42.186  0.00  0.00     0.181 C 
ENDBRANCH  11  12
ENDBRANCH   1   4
BRANCH   1  14
ATOM     14  N   UNL d   1      45.408 -15.951  44.637  0.00  0.00    -0.157 NA
BRANCH  14  15
ATOM     15  C   UNL d   1      45.887 -16.560  44.341  0.00  0.00     0.114 C 
BRANCH  15  16
ATOM     16  C   UNL d   1      45.854 -17.309  44.683  0.00  0.00     0.041 C 
BRANCH  16  17
ATOM     17  C   UNL d   1      46.484 -17.826  44.603  0.00  0.00     0.082 C 
BRANCH  17  18
ATOM     18  N   UNL d   1      46.352 -18.606  44.385  0.00  0.00    -0.299 N 
ATOM     19  C   UNL d   1      46.204 -18.799  43.588  0.00  0.00     0.107 A 
ATOM     20  C   UNL d   1      46.071 -19.579  43.371  0.00  0.00     0.142 A 
ATOM     21  O   UNL d   1      46.083 -20.175  43.936  0.00  0.00    -0.300 OA
ATOM     22  C   UNL d   1      46.230 -19.990  44.731  0.00  0.00     0.142 A 
ATOM     23  C   UNL d   1      46.364 -19.197  44.952  0.00  0.00     0.107 A 
ENDBRANCH  17  18
ENDBRANCH  16  17
ENDBRANCH  15  16
ENDBRANCH  14  15
ENDBRANCH   1  14
TORSDOF 7
ENDMDL
