MODEL 1
REMARK VINA RESULT:      48.9      0.000      0.000
REMARK  4 active torsions:
REMARK  status: ('A' for Active; 'I' for Inactive)
REMARK    1  A    between atoms: S_9  and  C_2 
REMARK    2  A    between atoms: C_11  and  C_3 
REMARK    3  A    between atoms: C_7  and  C_10 
REMARK       I    between atoms: N_8  and  C_7 
REMARK    4  A    between atoms: C_10  and  S_9 
ROOT
ATOM      1  N   UNL d   1     -54.774-100.673 -42.608  0.00  0.00    -0.220 NA
ATOM      2  C   UNL d   1     -54.769-100.455 -43.395  0.00  0.00     0.114 A 
ATOM      3  C   UNL d   1     -54.763-101.469 -42.395  0.00  0.00     0.163 A 
ATOM      4  N   UNL d   1     -54.746-102.051 -42.981  0.00  0.00    -0.227 NA
ATOM      5  C   UNL d   1     -54.752-101.036 -43.981  0.00  0.00     0.042 A 
ATOM      6  C   UNL d   1     -54.740-101.837 -43.781  0.00  0.00     0.085 A 
ATOM      7  C   UNL d   1     -54.746-100.818 -44.777  0.00  0.00     0.004 A 
ATOM      8  C   UNL d   1     -54.723-102.413 -44.347  0.00  0.00     0.019 A 
ATOM      9  C   UNL d   1     -54.729-101.408 -45.356  0.00  0.00     0.000 A 
ATOM     10  C   UNL d   1     -54.717-102.208 -45.139  0.00  0.00     0.002 A 
ENDROOT
BRANCH   2  11
ATOM     11  S   UNL d   1     -54.780 -99.655 -43.613  0.00  0.00    -0.062 SA
BRANCH  11  12
ATOM     12  C   UNL d   1     -55.489 -99.235 -43.628  0.00  0.00     0.098 C 
BRANCH  12  13
ATOM     13  C   UNL d   1     -55.843 -99.054 -44.343  0.00  0.00     0.272 C 
ATOM     14  N   UNL d   1     -56.673 -99.000 -44.395  0.00  0.00    -0.267 N 
ATOM     15  C   UNL d   1     -57.027 -98.817 -45.122  0.00  0.00     0.110 A 
ATOM     16  C   UNL d   1     -57.127 -99.128 -43.731  0.00  0.00     0.110 A 
ATOM     17  C   UNL d   1     -57.843 -98.763 -45.172  0.00  0.00     0.142 A 
ATOM     18  O   UNL d   1     -58.308 -98.892 -44.501  0.00  0.00    -0.300 OA
ATOM     19  C   UNL d   1     -57.944 -99.075 -43.780  0.00  0.00     0.142 A 
ATOM     20  O   UNL d   1     -55.378 -98.925 -45.014  0.00  0.00    -0.266 OA
ENDBRANCH  12  13
ENDBRANCH  11  12
ENDBRANCH   2  11
BRANCH   3  21
ATOM     21  C   UNL d   1     -54.768-101.691 -41.594  0.00  0.00     0.036 A 
ATOM     22  C   UNL d   1     -54.825-101.110 -41.011  0.00  0.00     0.003 A 
ATOM     23  C   UNL d   1     -54.830-101.332 -40.217  0.00  0.00     0.000 A 
ATOM     24  C   UNL d   1     -54.779-102.132 -40.013  0.00  0.00     0.000 A 
ATOM     25  C   UNL d   1     -54.723-102.708 -40.603  0.00  0.00     0.000 A 
ATOM     26  C   UNL d   1     -54.719-102.478 -41.393  0.00  0.00     0.003 A 
ENDBRANCH   3  21
TORSDOF 4
ENDMDL
