MODEL 1
REMARK VINA RESULT:      82.4      0.000      0.000
REMARK  4 active torsions:
REMARK  status: ('A' for Active; 'I' for Inactive)
REMARK    1  A    between atoms: N_9  and  C_3 
REMARK    2  A    between atoms: C_11  and  C_4 
REMARK    3  A    between atoms: C_15  and  C_10 
REMARK    4  A    between atoms: C_20  and  C_15 
ROOT
ATOM      1  N   UNL d   1     -49.334  27.715  34.846  0.00  0.00    -0.196 N 
ATOM      2  C   UNL d   1     -49.926  27.149  34.666  0.00  0.00     0.167 A 
ATOM      3  C   UNL d   1     -49.252  27.954  35.612  0.00  0.00     0.153 A 
ATOM      4  C   UNL d   1     -50.026  26.895  33.906  0.00  0.00     0.057 A 
ATOM      5  N   UNL d   1     -48.966  27.744  33.483  0.00  0.00    -0.161 NA
ATOM      6  N   UNL d   1     -50.402  26.856  35.262  0.00  0.00    -0.227 NA
ATOM      7  C   UNL d   1     -49.724  27.667  36.217  0.00  0.00     0.057 A 
ATOM      8  C   UNL d   1     -49.549  27.188  33.306  0.00  0.00     0.124 A 
ATOM      9  C   UNL d   1     -50.306  27.111  36.040  0.00  0.00     0.086 A 
ENDROOT
BRANCH   3  10
ATOM     10  N   UNL d   1     -48.650  28.529  35.795  0.00  0.00    -0.285 N 
ATOM     11  C   UNL d   1     -48.199  28.895  35.168  0.00  0.00     0.108 A 
ATOM     12  C   UNL d   1     -47.605  29.462  35.357  0.00  0.00     0.142 A 
ATOM     13  O   UNL d   1     -47.450  29.675  36.168  0.00  0.00    -0.300 OA
ATOM     14  C   UNL d   1     -47.906  29.305  36.782  0.00  0.00     0.142 A 
ATOM     15  C   UNL d   1     -48.501  28.737  36.601  0.00  0.00     0.108 A 
ENDBRANCH   3  10
BRANCH   9  16
ATOM     16  C   UNL d   1     -50.806  26.802  36.659  0.00  0.00     0.019 C 
BRANCH  16  17
ATOM     17  C   UNL d   1     -50.658  26.998  37.470  0.00  0.00     0.002 C 
ATOM     18  C   UNL d   1     -51.182  26.741  38.087  0.00  0.00     0.000 C 
ENDBRANCH  16  17
ENDBRANCH   9  16
BRANCH   4  19
ATOM     19  C   UNL d   1     -50.615  26.335  33.740  0.00  0.00     0.004 A 
ATOM     20  C   UNL d   1     -51.379  26.599  33.611  0.00  0.00     0.000 A 
ATOM     21  C   UNL d   1     -51.974  26.051  33.445  0.00  0.00     0.000 A 
ATOM     22  C   UNL d   1     -51.793  25.252  33.413  0.00  0.00     0.000 A 
ATOM     23  C   UNL d   1     -51.038  25.004  33.542  0.00  0.00     0.000 A 
ATOM     24  C   UNL d   1     -50.443  25.552  33.707  0.00  0.00     0.000 A 
ENDBRANCH   4  19
TORSDOF 4
ENDMDL
