MODEL 1
REMARK VINA RESULT:      -3.7      0.000      0.000
REMARK  5 active torsions:
REMARK  status: ('A' for Active; 'I' for Inactive)
REMARK    1  A    between atoms: C_7  and  C_1 
REMARK    2  A    between atoms: C_13  and  C_2 
REMARK    3  A    between atoms: C_12  and  N_3 
REMARK    4  A    between atoms: C_4  and  C_7 
REMARK    5  A    between atoms: O_17  and  C_13 
ROOT
ATOM      1  N   UNL d   1     -42.270-122.870 -49.717  0.00  0.00    -0.305 N 
ATOM      2  C   UNL d   1     -41.805-122.792 -50.966  0.00  0.00     0.018 A 
ATOM      3  C   UNL d   1     -42.725-122.321 -50.121  0.00  0.00     0.064 A 
ATOM      4  C   UNL d   1     -41.698-123.167 -50.233  0.00  0.00     0.064 A 
ATOM      5  C   UNL d   1     -42.434-122.272 -50.903  0.00  0.00     0.019 A 
ATOM      6  C   UNL d   1     -43.356-121.892 -49.817  0.00  0.00     0.019 C 
ATOM      7  C   UNL d   1     -41.123-123.733 -50.056  0.00  0.00     0.019 C 
ENDROOT
BRANCH   2   8
ATOM      8  C   UNL d   1     -41.354-122.919 -51.648  0.00  0.00     0.006 C 
BRANCH   8   9
ATOM      9  C   UNL d   1     -41.407-122.401 -52.280  0.00  0.00     0.065 A 
ATOM     10  C   UNL d   1     -41.556-122.610 -53.064  0.00  0.00     0.086 A 
ATOM     11  C   UNL d   1     -41.563-121.915 -53.519  0.00  0.00     0.090 A 
ATOM     12  C   UNL d   1     -41.691-121.874 -54.326  0.00  0.00     0.021 C 
ATOM     13  N   UNL d   1     -41.417-121.278 -53.017  0.00  0.00    -0.208 NA
ATOM     14  C   UNL d   1     -41.320-121.576 -52.246  0.00  0.00     0.279 A 
ATOM     15  O   UNL d   1     -41.166-121.140 -51.571  0.00  0.00    -0.265 OA
BRANCH  10  16
ATOM     16  C   UNL d   1     -41.679-123.373 -53.350  0.00  0.00     0.297 C 
ATOM     17  O   UNL d   1     -42.362-123.797 -53.141  0.00  0.00    -0.259 OA
BRANCH  16  18
ATOM     18  O   UNL d   1     -41.123-123.732 -53.850  0.00  0.00    -0.296 OA
ATOM     19  C   UNL d   1     -41.275-123.816 -54.655  0.00  0.00     0.185 C 
ENDBRANCH  16  18
ENDBRANCH  10  16
ENDBRANCH   8   9
ENDBRANCH   2   8
BRANCH   1  20
ATOM     20  C   UNL d   1     -42.374-123.085 -48.927  0.00  0.00     0.092 A 
ATOM     21  C   UNL d   1     -43.002-123.548 -48.710  0.00  0.00     0.156 A 
ATOM     22  F   UNL d   1     -43.541-123.809 -49.277  0.00  0.00    -0.203 F 
ATOM     23  C   UNL d   1     -43.111-123.767 -47.913  0.00  0.00     0.031 A 
ATOM     24  C   UNL d   1     -42.561-123.500 -47.346  0.00  0.00     0.002 A 
ATOM     25  C   UNL d   1     -41.924-123.028 -47.576  0.00  0.00     0.002 A 
ATOM     26  C   UNL d   1     -41.831-122.820 -48.366  0.00  0.00     0.020 A 
ENDBRANCH   1  20
TORSDOF 5
ENDMDL
MODEL 2
REMARK VINA RESULT:      -1.0      1.717      4.691
REMARK  5 active torsions:
REMARK  status: ('A' for Active; 'I' for Inactive)
REMARK    1  A    between atoms: C_7  and  C_1 
REMARK    2  A    between atoms: C_13  and  C_2 
REMARK    3  A    between atoms: C_12  and  N_3 
REMARK    4  A    between atoms: C_4  and  C_7 
REMARK    5  A    between atoms: O_17  and  C_13 
ROOT
ATOM      1  N   UNL d   1     -41.927-122.367 -53.316  0.00  0.00    -0.305 N 
ATOM      2  C   UNL d   1     -41.934-122.315 -51.983  0.00  0.00     0.018 A 
ATOM      3  C   UNL d   1     -41.860-123.133 -53.034  0.00  0.00     0.064 A 
ATOM      4  C   UNL d   1     -41.973-121.854 -52.671  0.00  0.00     0.064 A 
ATOM      5  C   UNL d   1     -41.864-123.101 -52.199  0.00  0.00     0.019 A 
ATOM      6  C   UNL d   1     -41.800-123.817 -53.487  0.00  0.00     0.019 C 
ATOM      7  C   UNL d   1     -42.045-121.031 -52.703  0.00  0.00     0.019 C 
ENDROOT
BRANCH   2   8
ATOM      8  C   UNL d   1     -41.960-122.032 -51.205  0.00  0.00     0.006 C 
BRANCH   8   9
ATOM      9  C   UNL d   1     -42.545-122.288 -50.692  0.00  0.00     0.065 A 
ATOM     10  C   UNL d   1     -42.433-122.784 -50.042  0.00  0.00     0.086 A 
ATOM     11  C   UNL d   1     -43.169-122.902 -49.679  0.00  0.00     0.090 A 
ATOM     12  C   UNL d   1     -43.306-123.359 -49.014  0.00  0.00     0.021 C 
ATOM     13  N   UNL d   1     -43.736-122.479 -50.103  0.00  0.00    -0.208 NA
ATOM     14  C   UNL d   1     -43.351-122.097 -50.733  0.00  0.00     0.279 A 
ATOM     15  O   UNL d   1     -43.699-121.616 -51.297  0.00  0.00    -0.265 OA
BRANCH  10  16
ATOM     16  C   UNL d   1     -41.716-123.108 -49.795  0.00  0.00     0.297 C 
ATOM     17  O   UNL d   1     -41.436-123.815 -50.128  0.00  0.00    -0.259 OA
BRANCH  16  18
ATOM     18  O   UNL d   1     -41.263-122.735 -49.210  0.00  0.00    -0.296 OA
ATOM     19  C   UNL d   1     -41.123-123.105 -48.487  0.00  0.00     0.185 C 
ENDBRANCH  16  18
ENDBRANCH  10  16
ENDBRANCH   8   9
ENDBRANCH   2   8
BRANCH   1  20
ATOM     20  C   UNL d   1     -41.944-122.154 -54.114  0.00  0.00     0.092 A 
ATOM     21  C   UNL d   1     -42.607-121.810 -54.429  0.00  0.00     0.156 A 
ATOM     22  F   UNL d   1     -43.268-121.672 -53.955  0.00  0.00    -0.203 F 
ATOM     23  C   UNL d   1     -42.629-121.593 -55.233  0.00  0.00     0.031 A 
ATOM     24  C   UNL d   1     -41.957-121.736 -55.704  0.00  0.00     0.002 A 
ATOM     25  C   UNL d   1     -41.286-122.087 -55.375  0.00  0.00     0.002 A 
ATOM     26  C   UNL d   1     -41.280-122.296 -54.580  0.00  0.00     0.020 A 
ENDBRANCH   1  20
TORSDOF 5
ENDMDL
