MODEL 1
REMARK VINA RESULT:      -7.9      0.000      0.000
REMARK  5 active torsions:
REMARK  status: ('A' for Active; 'I' for Inactive)
REMARK    1  A    between atoms: C_3  and  S_1 
REMARK    2  A    between atoms: N_10  and  S_1 
REMARK    3  A    between atoms: C_19  and  N_10 
REMARK    4  A    between atoms: C_21  and  C_19 
REMARK    5  A    between atoms: C_22  and  C_21 
ROOT
ATOM      1  N   UNL d   1     -50.154  14.254  22.355  0.00  0.00    -0.273 N 
ATOM      2  C   UNL d   1     -47.922  13.253  22.712  0.00  0.00     0.104 A 
ATOM      3  C   UNL d   1     -49.409  13.920  22.475  0.00  0.00     0.067 A 
ATOM      4  C   UNL d   1     -48.810  14.368  22.814  0.00  0.00     0.017 A 
ATOM      5  C   UNL d   1     -49.266  13.138  22.253  0.00  0.00     0.017 A 
ATOM      6  C   UNL d   1     -50.297  15.036  22.577  0.00  0.00     0.265 A 
ATOM      7  C   UNL d   1     -48.065  14.034  22.934  0.00  0.00     0.014 A 
ATOM      8  C   UNL d   1     -48.526  12.805  22.371  0.00  0.00     0.014 A 
ATOM      9  C   UNL d   1     -48.953  15.150  23.036  0.00  0.00     0.006 A 
ATOM     10  C   UNL d   1     -49.693  15.484  22.918  0.00  0.00     0.061 A 
ATOM     11  O   UNL d   1     -51.048  15.377  22.458  0.00  0.00    -0.267 OA
ATOM     12  C   UNL d   1     -50.758  13.805  22.014  0.00  0.00     0.083 A 
ATOM     13  C   UNL d   1     -49.861  12.691  21.915  0.00  0.00     0.003 A 
ATOM     14  C   UNL d   1     -50.607  13.024  21.795  0.00  0.00     0.019 A 
ENDROOT
BRANCH   2  15
ATOM     15  S   UNL d   1     -47.172  12.920  22.833  0.00  0.00     0.271 S 
ATOM     16  O   UNL d   1     -47.362  12.794  23.634  0.00  0.00    -0.200 OA
ATOM     17  O   UNL d   1     -46.977  13.043  22.036  0.00  0.00    -0.200 OA
BRANCH  15  18
ATOM     18  N   UNL d   1     -46.417  12.584  22.959  0.00  0.00    -0.228 N 
ATOM     19  C   UNL d   1     -45.739  12.976  22.709  0.00  0.00     0.111 C 
BRANCH  18  20
ATOM     20  C   UNL d   1     -46.347  11.854  23.335  0.00  0.00     0.092 C 
BRANCH  20  21
ATOM     21  C   UNL d   1     -45.604  11.510  23.434  0.00  0.00     0.020 C 
BRANCH  21  22
ATOM     22  C   UNL d   1     -45.542  10.731  23.698  0.00  0.00     0.002 C 
ATOM     23  C   UNL d   1     -44.854  10.312  23.587  0.00  0.00     0.000 C 
ENDBRANCH  21  22
ENDBRANCH  20  21
ENDBRANCH  18  20
ENDBRANCH  15  18
ENDBRANCH   2  15
TORSDOF 5
ENDMDL
MODEL 2
REMARK VINA RESULT:      -7.7      0.538      1.572
REMARK  5 active torsions:
REMARK  status: ('A' for Active; 'I' for Inactive)
REMARK    1  A    between atoms: C_3  and  S_1 
REMARK    2  A    between atoms: N_10  and  S_1 
REMARK    3  A    between atoms: C_19  and  N_10 
REMARK    4  A    between atoms: C_21  and  C_19 
REMARK    5  A    between atoms: C_22  and  C_21 
ROOT
ATOM      1  N   UNL d   1     -49.745  14.162  22.109  0.00  0.00    -0.273 N 
ATOM      2  C   UNL d   1     -47.539  13.182  22.640  0.00  0.00     0.104 A 
ATOM      3  C   UNL d   1     -49.009  13.835  22.287  0.00  0.00     0.067 A 
ATOM      4  C   UNL d   1     -48.846  13.058  22.075  0.00  0.00     0.017 A 
ATOM      5  C   UNL d   1     -48.438  14.287  22.675  0.00  0.00     0.017 A 
ATOM      6  C   UNL d   1     -50.316  13.710  21.721  0.00  0.00     0.265 A 
ATOM      7  C   UNL d   1     -48.109  12.730  22.252  0.00  0.00     0.014 A 
ATOM      8  C   UNL d   1     -47.705  13.962  22.852  0.00  0.00     0.014 A 
ATOM      9  C   UNL d   1     -49.416  12.606  21.686  0.00  0.00     0.006 A 
ATOM     10  C   UNL d   1     -50.149  12.930  21.509  0.00  0.00     0.061 A 
ATOM     11  O   UNL d   1     -51.061  14.038  21.540  0.00  0.00    -0.267 OA
ATOM     12  C   UNL d   1     -49.911  14.943  22.321  0.00  0.00     0.083 A 
ATOM     13  C   UNL d   1     -48.599  15.060  22.886  0.00  0.00     0.003 A 
ATOM     14  C   UNL d   1     -49.335  15.388  22.710  0.00  0.00     0.019 A 
ENDROOT
BRANCH   2  15
ATOM     15  S   UNL d   1     -46.799  12.850  22.817  0.00  0.00     0.271 S 
ATOM     16  O   UNL d   1     -46.513  13.105  22.079  0.00  0.00    -0.200 OA
ATOM     17  O   UNL d   1     -47.080  12.593  23.554  0.00  0.00    -0.200 OA
BRANCH  15  18
ATOM     18  N   UNL d   1     -46.053  12.516  22.992  0.00  0.00    -0.228 N 
ATOM     19  C   UNL d   1     -45.364  12.945  22.867  0.00  0.00     0.111 C 
BRANCH  18  20
ATOM     20  C   UNL d   1     -46.005  11.750  23.292  0.00  0.00     0.092 C 
BRANCH  20  21
ATOM     21  C   UNL d   1     -45.269  11.382  23.368  0.00  0.00     0.020 C 
BRANCH  21  22
ATOM     22  C   UNL d   1     -45.219  10.625  23.691  0.00  0.00     0.002 C 
ATOM     23  C   UNL d   1     -44.522  10.207  23.653  0.00  0.00     0.000 C 
ENDBRANCH  21  22
ENDBRANCH  20  21
ENDBRANCH  18  20
ENDBRANCH  15  18
ENDBRANCH   2  15
TORSDOF 5
ENDMDL
MODEL 3
REMARK VINA RESULT:      -7.4      1.533      2.182
REMARK  5 active torsions:
REMARK  status: ('A' for Active; 'I' for Inactive)
REMARK    1  A    between atoms: C_3  and  S_1 
REMARK    2  A    between atoms: N_10  and  S_1 
REMARK    3  A    between atoms: C_19  and  N_10 
REMARK    4  A    between atoms: C_21  and  C_19 
REMARK    5  A    between atoms: C_22  and  C_21 
ROOT
ATOM      1  N   UNL d   1     -50.042  12.670  23.027  0.00  0.00    -0.273 N 
ATOM      2  C   UNL d   1     -47.652  13.221  22.714  0.00  0.00     0.104 A 
ATOM      3  C   UNL d   1     -49.243  12.854  22.923  0.00  0.00     0.067 A 
ATOM      4  C   UNL d   1     -48.667  12.342  23.206  0.00  0.00     0.017 A 
ATOM      5  C   UNL d   1     -49.027  13.549  22.535  0.00  0.00     0.017 A 
ATOM      6  C   UNL d   1     -50.258  11.975  23.414  0.00  0.00     0.265 A 
ATOM      7  C   UNL d   1     -47.868  12.525  23.102  0.00  0.00     0.014 A 
ATOM      8  C   UNL d   1     -48.233  13.733  22.431  0.00  0.00     0.014 A 
ATOM      9  C   UNL d   1     -48.883  11.647  23.594  0.00  0.00     0.006 A 
ATOM     10  C   UNL d   1     -49.676  11.463  23.698  0.00  0.00     0.061 A 
ATOM     11  O   UNL d   1     -51.063  11.786  23.522  0.00  0.00    -0.267 OA
ATOM     12  C   UNL d   1     -50.623  13.183  22.743  0.00  0.00     0.083 A 
ATOM     13  C   UNL d   1     -49.600  14.059  22.253  0.00  0.00     0.003 A 
ATOM     14  C   UNL d   1     -50.398  13.877  22.356  0.00  0.00     0.019 A 
ENDROOT
BRANCH   2  15
ATOM     15  S   UNL d   1     -46.849  13.402  22.611  0.00  0.00     0.271 S 
ATOM     16  O   UNL d   1     -46.879  13.080  21.845  0.00  0.00    -0.200 OA
ATOM     17  O   UNL d   1     -46.813  13.724  23.375  0.00  0.00    -0.200 OA
BRANCH  15  18
ATOM     18  N   UNL d   1     -46.040  13.584  22.504  0.00  0.00    -0.228 N 
ATOM     19  C   UNL d   1     -45.758  14.340  22.655  0.00  0.00     0.111 C 
BRANCH  18  20
ATOM     20  C   UNL d   1     -45.517  13.001  22.246  0.00  0.00     0.092 C 
BRANCH  20  21
ATOM     21  C   UNL d   1     -44.765  13.211  21.977  0.00  0.00     0.020 C 
BRANCH  21  22
ATOM     22  C   UNL d   1     -44.204  12.626  21.824  0.00  0.00     0.002 C 
ATOM     23  C   UNL d   1     -43.482  12.821  21.504  0.00  0.00     0.000 C 
ENDBRANCH  21  22
ENDBRANCH  20  21
ENDBRANCH  18  20
ENDBRANCH  15  18
ENDBRANCH   2  15
TORSDOF 5
ENDMDL
MODEL 4
REMARK VINA RESULT:      -6.6      1.294      4.504
REMARK  5 active torsions:
REMARK  status: ('A' for Active; 'I' for Inactive)
REMARK    1  A    between atoms: C_3  and  S_1 
REMARK    2  A    between atoms: N_10  and  S_1 
REMARK    3  A    between atoms: C_19  and  N_10 
REMARK    4  A    between atoms: C_21  and  C_19 
REMARK    5  A    between atoms: C_22  and  C_21 
ROOT
ATOM      1  N   UNL d   1     -45.658  12.137  22.934  0.00  0.00    -0.273 N 
ATOM      2  C   UNL d   1     -47.978  12.985  23.029  0.00  0.00     0.104 A 
ATOM      3  C   UNL d   1     -46.433  12.421  22.965  0.00  0.00     0.067 A 
ATOM      4  C   UNL d   1     -46.619  13.140  22.615  0.00  0.00     0.017 A 
ATOM      5  C   UNL d   1     -47.018  11.982  23.348  0.00  0.00     0.017 A 
ATOM      6  C   UNL d   1     -45.073  12.575  22.551  0.00  0.00     0.265 A 
ATOM      7  C   UNL d   1     -47.393  13.424  22.646  0.00  0.00     0.014 A 
ATOM      8  C   UNL d   1     -47.788  12.263  23.380  0.00  0.00     0.014 A 
ATOM      9  C   UNL d   1     -46.034  13.578  22.232  0.00  0.00     0.006 A 
ATOM     10  C   UNL d   1     -45.263  13.297  22.200  0.00  0.00     0.061 A 
ATOM     11  O   UNL d   1     -44.290  12.292  22.517  0.00  0.00    -0.267 OA
ATOM     12  C   UNL d   1     -45.469  11.414  23.286  0.00  0.00     0.083 A 
ATOM     13  C   UNL d   1     -46.834  11.267  23.698  0.00  0.00     0.003 A 
ATOM     14  C   UNL d   1     -46.060  10.982  23.667  0.00  0.00     0.019 A 
ENDROOT
BRANCH   2  15
ATOM     15  S   UNL d   1     -48.756  13.273  23.059  0.00  0.00     0.271 S 
ATOM     16  O   UNL d   1     -48.997  12.662  22.548  0.00  0.00    -0.200 OA
ATOM     17  O   UNL d   1     -48.521  13.885  23.568  0.00  0.00    -0.200 OA
BRANCH  15  18
ATOM     18  N   UNL d   1     -49.540  13.561  23.087  0.00  0.00    -0.228 N 
ATOM     19  C   UNL d   1     -50.174  13.041  23.136  0.00  0.00     0.111 C 
BRANCH  18  20
ATOM     20  C   UNL d   1     -49.682  14.373  23.065  0.00  0.00     0.092 C 
BRANCH  20  21
ATOM     21  C   UNL d   1     -50.323  14.691  23.476  0.00  0.00     0.020 C 
BRANCH  21  22
ATOM     22  C   UNL d   1     -50.709  15.360  23.186  0.00  0.00     0.002 C 
ATOM     23  C   UNL d   1     -51.010  15.916  23.698  0.00  0.00     0.000 C 
ENDBRANCH  21  22
ENDBRANCH  20  21
ENDBRANCH  18  20
ENDBRANCH  15  18
ENDBRANCH   2  15
TORSDOF 5
ENDMDL
MODEL 5
REMARK VINA RESULT:      -5.9      8.912      9.467
REMARK  5 active torsions:
REMARK  status: ('A' for Active; 'I' for Inactive)
REMARK    1  A    between atoms: C_3  and  S_1 
REMARK    2  A    between atoms: N_10  and  S_1 
REMARK    3  A    between atoms: C_19  and  N_10 
REMARK    4  A    between atoms: C_21  and  C_19 
REMARK    5  A    between atoms: C_22  and  C_21 
ROOT
ATOM      1  N   UNL d   1     -40.202  14.831  17.431  0.00  0.00    -0.273 N 
ATOM      2  C   UNL d   1     -39.728  14.742  19.855  0.00  0.00     0.104 A 
ATOM      3  C   UNL d   1     -40.044  14.802  18.241  0.00  0.00     0.067 A 
ATOM      4  C   UNL d   1     -40.413  15.332  18.748  0.00  0.00     0.017 A 
ATOM      5  C   UNL d   1     -39.516  14.242  18.538  0.00  0.00     0.017 A 
ATOM      6  C   UNL d   1     -40.730  15.391  17.133  0.00  0.00     0.265 A 
ATOM      7  C   UNL d   1     -40.255  15.302  19.558  0.00  0.00     0.014 A 
ATOM      8  C   UNL d   1     -39.358  14.212  19.343  0.00  0.00     0.014 A 
ATOM      9  C   UNL d   1     -40.941  15.892  18.451  0.00  0.00     0.006 A 
ATOM     10  C   UNL d   1     -41.100  15.922  17.646  0.00  0.00     0.061 A 
ATOM     11  O   UNL d   1     -40.892  15.424  16.316  0.00  0.00    -0.267 OA
ATOM     12  C   UNL d   1     -39.832  14.300  16.919  0.00  0.00     0.083 A 
ATOM     13  C   UNL d   1     -39.148  13.715  18.034  0.00  0.00     0.003 A 
ATOM     14  C   UNL d   1     -39.305  13.743  17.224  0.00  0.00     0.019 A 
ENDROOT
BRANCH   2  15
ATOM     15  S   UNL d   1     -39.571  14.715  20.670  0.00  0.00     0.271 S 
ATOM     16  O   UNL d   1     -40.270  14.279  20.785  0.00  0.00    -0.200 OA
ATOM     17  O   UNL d   1     -38.873  15.150  20.560  0.00  0.00    -0.200 OA
BRANCH  15  18
ATOM     18  N   UNL d   1     -39.416  14.686  21.491  0.00  0.00    -0.228 N 
ATOM     19  C   UNL d   1     -39.427  15.373  21.942  0.00  0.00     0.111 C 
BRANCH  18  20
ATOM     20  C   UNL d   1     -39.249  13.966  21.853  0.00  0.00     0.092 C 
BRANCH  20  21
ATOM     21  C   UNL d   1     -38.997  13.947  22.639  0.00  0.00     0.020 C 
BRANCH  21  22
ATOM     22  C   UNL d   1     -38.753  13.236  22.978  0.00  0.00     0.002 C 
ATOM     23  C   UNL d   1     -38.362  13.231  23.691  0.00  0.00     0.000 C 
ENDBRANCH  21  22
ENDBRANCH  20  21
ENDBRANCH  18  20
ENDBRANCH  15  18
ENDBRANCH   2  15
TORSDOF 5
ENDMDL
MODEL 6
REMARK VINA RESULT:      -5.9      1.205      4.683
REMARK  5 active torsions:
REMARK  status: ('A' for Active; 'I' for Inactive)
REMARK    1  A    between atoms: C_3  and  S_1 
REMARK    2  A    between atoms: N_10  and  S_1 
REMARK    3  A    between atoms: C_19  and  N_10 
REMARK    4  A    between atoms: C_21  and  C_19 
REMARK    5  A    between atoms: C_22  and  C_21 
ROOT
ATOM      1  N   UNL d   1     -45.178  11.953  22.846  0.00  0.00    -0.273 N 
ATOM      2  C   UNL d   1     -47.272  13.267  22.830  0.00  0.00     0.104 A 
ATOM      3  C   UNL d   1     -45.877  12.391  22.841  0.00  0.00     0.067 A 
ATOM      4  C   UNL d   1     -46.529  12.125  23.264  0.00  0.00     0.017 A 
ATOM      5  C   UNL d   1     -45.920  13.095  22.413  0.00  0.00     0.017 A 
ATOM      6  C   UNL d   1     -45.135  11.249  23.275  0.00  0.00     0.265 A 
ATOM      7  C   UNL d   1     -47.229  12.563  23.259  0.00  0.00     0.014 A 
ATOM      8  C   UNL d   1     -46.615  13.532  22.407  0.00  0.00     0.014 A 
ATOM      9  C   UNL d   1     -46.487  11.421  23.692  0.00  0.00     0.006 A 
ATOM     10  C   UNL d   1     -45.792  10.984  23.698  0.00  0.00     0.061 A 
ATOM     11  O   UNL d   1     -44.430  10.803  23.282  0.00  0.00    -0.267 OA
ATOM     12  C   UNL d   1     -44.521  12.219  22.422  0.00  0.00     0.083 A 
ATOM     13  C   UNL d   1     -45.272  13.361  21.992  0.00  0.00     0.003 A 
ATOM     14  C   UNL d   1     -44.572  12.924  21.997  0.00  0.00     0.019 A 
ENDROOT
BRANCH   2  15
ATOM     15  S   UNL d   1     -47.976  13.705  22.827  0.00  0.00     0.271 S 
ATOM     16  O   UNL d   1     -47.553  14.374  22.570  0.00  0.00    -0.200 OA
ATOM     17  O   UNL d   1     -48.402  13.041  23.084  0.00  0.00    -0.200 OA
BRANCH  15  18
ATOM     18  N   UNL d   1     -48.684  14.149  22.823  0.00  0.00    -0.228 N 
ATOM     19  C   UNL d   1     -48.688  14.931  23.077  0.00  0.00     0.111 C 
BRANCH  18  20
ATOM     20  C   UNL d   1     -49.386  13.804  22.563  0.00  0.00     0.092 C 
BRANCH  20  21
ATOM     21  C   UNL d   1     -50.046  14.276  22.408  0.00  0.00     0.020 C 
BRANCH  21  22
ATOM     22  C   UNL d   1     -50.736  13.935  22.111  0.00  0.00     0.002 C 
ATOM     23  C   UNL d   1     -50.975  14.088  21.349  0.00  0.00     0.000 C 
ENDBRANCH  21  22
ENDBRANCH  20  21
ENDBRANCH  18  20
ENDBRANCH  15  18
ENDBRANCH   2  15
TORSDOF 5
ENDMDL
MODEL 7
REMARK VINA RESULT:      -5.4      8.375      9.887
REMARK  5 active torsions:
REMARK  status: ('A' for Active; 'I' for Inactive)
REMARK    1  A    between atoms: C_3  and  S_1 
REMARK    2  A    between atoms: N_10  and  S_1 
REMARK    3  A    between atoms: C_19  and  N_10 
REMARK    4  A    between atoms: C_21  and  C_19 
REMARK    5  A    between atoms: C_22  and  C_21 
ROOT
ATOM      1  N   UNL d   1     -39.820  14.767  17.014  0.00  0.00    -0.273 N 
ATOM      2  C   UNL d   1     -39.975  15.172  19.448  0.00  0.00     0.104 A 
ATOM      3  C   UNL d   1     -39.871  14.902  17.827  0.00  0.00     0.067 A 
ATOM      4  C   UNL d   1     -39.368  14.504  18.340  0.00  0.00     0.017 A 
ATOM      5  C   UNL d   1     -40.427  15.435  18.123  0.00  0.00     0.017 A 
ATOM      6  C   UNL d   1     -39.264  14.234  16.719  0.00  0.00     0.265 A 
ATOM      7  C   UNL d   1     -39.419  14.639  19.153  0.00  0.00     0.014 A 
ATOM      8  C   UNL d   1     -40.479  15.571  18.931  0.00  0.00     0.014 A 
ATOM      9  C   UNL d   1     -38.812  13.971  18.044  0.00  0.00     0.006 A 
ATOM     10  C   UNL d   1     -38.759  13.836  17.236  0.00  0.00     0.061 A 
ATOM     11  O   UNL d   1     -39.209  14.094  15.898  0.00  0.00    -0.267 OA
ATOM     12  C   UNL d   1     -40.325  15.166  16.497  0.00  0.00     0.083 A 
ATOM     13  C   UNL d   1     -40.929  15.832  17.614  0.00  0.00     0.003 A 
ATOM     14  C   UNL d   1     -40.878  15.697  16.801  0.00  0.00     0.019 A 
ENDROOT
BRANCH   2  15
ATOM     15  S   UNL d   1     -40.024  15.306  20.265  0.00  0.00     0.271 S 
ATOM     16  O   UNL d   1     -39.459  15.913  20.196  0.00  0.00    -0.200 OA
ATOM     17  O   UNL d   1     -40.587  14.701  20.341  0.00  0.00    -0.200 OA
BRANCH  15  18
ATOM     18  N   UNL d   1     -40.071  15.443  21.089  0.00  0.00    -0.228 N 
ATOM     19  C   UNL d   1     -40.795  15.593  21.446  0.00  0.00     0.111 C 
BRANCH  18  20
ATOM     20  C   UNL d   1     -39.388  15.428  21.549  0.00  0.00     0.092 C 
BRANCH  20  21
ATOM     21  C   UNL d   1     -39.429  15.598  22.356  0.00  0.00     0.020 C 
BRANCH  21  22
ATOM     22  C   UNL d   1     -38.771  15.475  22.838  0.00  0.00     0.002 C 
ATOM     23  C   UNL d   1     -38.695  15.876  23.541  0.00  0.00     0.000 C 
ENDBRANCH  21  22
ENDBRANCH  20  21
ENDBRANCH  18  20
ENDBRANCH  15  18
ENDBRANCH   2  15
TORSDOF 5
ENDMDL
