MODEL 1
REMARK VINA RESULT:      32.8      0.000      0.000
REMARK  3 active torsions:
REMARK  status: ('A' for Active; 'I' for Inactive)
REMARK    1  A    between atoms: C_10  and  C_4 
REMARK    2  A    between atoms: C_13  and  C_10 
REMARK    3  A    between atoms: C_11  and  C_13 
ROOT
ATOM      1  C   UNL d   1     -58.515 -98.890 -46.343  0.00  0.00     0.752 A 
ATOM      2  N   UNL d   1     -59.230 -98.851 -45.936  0.00  0.00    -0.056 N 
ATOM      3  N   UNL d   1     -57.809 -98.886 -45.920  0.00  0.00    -0.059 NA
ATOM      4  C   UNL d   1     -58.532 -98.806 -44.692  0.00  0.00     0.037 A 
ATOM      5  C   UNL d   1     -59.244 -98.809 -45.109  0.00  0.00     0.102 A 
ATOM      6  N   UNL d   1     -58.678 -98.926 -47.142  0.00  0.00    -0.035 NA
ATOM      7  C   UNL d   1     -57.815 -98.844 -45.097  0.00  0.00     0.101 A 
ATOM      8  N   UNL d   1     -59.836 -98.864 -46.492  0.00  0.00    -0.127 NA
ATOM      9  C   UNL d   1     -59.498 -98.911 -47.246  0.00  0.00     0.239 A 
ATOM     10  C   UNL d   1     -59.957 -98.771 -44.709  0.00  0.00     0.021 C 
ATOM     11  C   UNL d   1     -57.103 -98.840 -44.681  0.00  0.00     0.021 C 
ENDROOT
BRANCH   4  12
ATOM     12  C   UNL d   1     -58.533 -98.764 -43.875  0.00  0.00     0.009 C 
BRANCH  12  13
ATOM     13  C   UNL d   1     -58.920 -99.341 -43.430  0.00  0.00     0.070 C 
BRANCH  13  14
ATOM     14  C   UNL d   1     -59.084 -99.204 -42.634  0.00  0.00     0.211 C 
ATOM     15  O   UNL d   1     -59.787 -99.478 -42.301  0.00  0.00    -0.644 OA
ATOM     16  O   UNL d   1     -58.544 -98.791 -42.167  0.00  0.00    -0.644 OA
ENDBRANCH  13  14
ENDBRANCH  12  13
ENDBRANCH   4  12
TORSDOF 3
ENDMDL
MODEL 2
REMARK VINA RESULT:      34.9      3.624      4.703
REMARK  3 active torsions:
REMARK  status: ('A' for Active; 'I' for Inactive)
REMARK    1  A    between atoms: C_10  and  C_4 
REMARK    2  A    between atoms: C_13  and  C_10 
REMARK    3  A    between atoms: C_11  and  C_13 
ROOT
ATOM      1  C   UNL d   1     -54.899-101.668 -43.843  0.00  0.00     0.752 A 
ATOM      2  N   UNL d   1     -54.834-101.431 -44.630  0.00  0.00    -0.056 N 
ATOM      3  N   UNL d   1     -54.994-101.098 -43.258  0.00  0.00    -0.059 NA
ATOM      4  C   UNL d   1     -54.960-100.064 -44.242  0.00  0.00     0.037 A 
ATOM      5  C   UNL d   1     -54.864-100.629 -44.835  0.00  0.00     0.102 A 
ATOM      6  N   UNL d   1     -54.849-102.481 -43.817  0.00  0.00    -0.035 NA
ATOM      7  C   UNL d   1     -55.025-100.298 -43.454  0.00  0.00     0.101 A 
ATOM      8  N   UNL d   1     -54.744-102.109 -45.088  0.00  0.00    -0.127 NA
ATOM      9  C   UNL d   1     -54.753-102.767 -44.587  0.00  0.00     0.239 A 
ATOM     10  C   UNL d   1     -54.799-100.400 -45.618  0.00  0.00     0.021 C 
ATOM     11  C   UNL d   1     -55.121 -99.733 -42.861  0.00  0.00     0.021 C 
ENDROOT
BRANCH   4  12
ATOM     12  C   UNL d   1     -54.992 -99.269 -44.432  0.00  0.00     0.009 C 
BRANCH  12  13
ATOM     13  C   UNL d   1     -55.667 -98.827 -44.261  0.00  0.00     0.070 C 
BRANCH  13  14
ATOM     14  C   UNL d   1     -56.281 -98.786 -44.810  0.00  0.00     0.211 C 
ATOM     15  O   UNL d   1     -56.115 -98.756 -45.617  0.00  0.00    -0.644 OA
ATOM     16  O   UNL d   1     -57.064 -98.775 -44.553  0.00  0.00    -0.644 OA
ENDBRANCH  13  14
ENDBRANCH  12  13
ENDBRANCH   4  12
TORSDOF 3
ENDMDL
