MODEL 1
REMARK VINA RESULT:      -5.3      0.000      0.000
REMARK  7 active torsions:
REMARK  status: ('A' for Active; 'I' for Inactive)
REMARK    1  A    between atoms: C_6  and  N_1 
REMARK    2  A    between atoms: C_7  and  C_6 
REMARK    3  A    between atoms: O_10  and  C_7 
REMARK    4  A    between atoms: C_13  and  O_10 
REMARK    5  A    between atoms: C_14  and  C_13 
REMARK    6  A    between atoms: C_16  and  C_14 
REMARK    7  A    between atoms: C_15  and  C_16 
ROOT
ATOM      1  N   UNL d   1     -41.936-122.672 -50.186  0.00  0.00    -0.246 N 
ATOM      2  C   UNL d   1     -42.702-122.347 -50.154  0.00  0.00     0.378 A 
ATOM      3  O   UNL d   1     -43.017-122.505 -49.403  0.00  0.00    -0.258 OA
ATOM      4  C   UNL d   1     -41.784-123.028 -49.455  0.00  0.00     0.092 A 
ATOM      5  C   UNL d   1     -42.452-122.924 -48.972  0.00  0.00     0.121 A 
ATOM      6  O   UNL d   1     -43.070-121.942 -50.768  0.00  0.00    -0.237 OA
ATOM      7  C   UNL d   1     -41.123-123.434 -49.165  0.00  0.00     0.020 A 
ATOM      8  C   UNL d   1     -42.449-123.231 -48.199  0.00  0.00     0.026 A 
ATOM      9  C   UNL d   1     -41.132-123.734 -48.396  0.00  0.00     0.002 A 
ATOM     10  C   UNL d   1     -41.792-123.632 -47.916  0.00  0.00     0.002 A 
ENDROOT
BRANCH   1  11
ATOM     11  C   UNL d   1     -41.393-122.666 -50.808  0.00  0.00     0.154 C 
BRANCH  11  12
ATOM     12  C   UNL d   1     -41.570-123.051 -51.507  0.00  0.00     0.318 C 
ATOM     13  O   UNL d   1     -41.879-123.817 -51.492  0.00  0.00    -0.257 OA
BRANCH  12  14
ATOM     14  O   UNL d   1     -41.440-122.673 -52.229  0.00  0.00    -0.270 OA
BRANCH  14  15
ATOM     15  C   UNL d   1     -41.221-122.916 -52.985  0.00  0.00     0.126 C 
BRANCH  15  16
ATOM     16  C   UNL d   1     -41.352-122.428 -53.632  0.00  0.00     0.027 C 
BRANCH  16  17
ATOM     17  C   UNL d   1     -41.531-122.749 -54.371  0.00  0.00     0.002 C 
BRANCH  17  18
ATOM     18  C   UNL d   1     -41.566-122.267 -55.036  0.00  0.00     0.000 C 
ATOM     19  C   UNL d   1     -42.290-122.113 -55.391  0.00  0.00     0.000 C 
ENDBRANCH  17  18
ENDBRANCH  16  17
ENDBRANCH  15  16
ENDBRANCH  14  15
ENDBRANCH  12  14
ENDBRANCH  11  12
ENDBRANCH   1  11
TORSDOF 7
ENDMDL
MODEL 2
REMARK VINA RESULT:      -4.6      1.226      5.003
REMARK  7 active torsions:
REMARK  status: ('A' for Active; 'I' for Inactive)
REMARK    1  A    between atoms: C_6  and  N_1 
REMARK    2  A    between atoms: C_7  and  C_6 
REMARK    3  A    between atoms: O_10  and  C_7 
REMARK    4  A    between atoms: C_13  and  O_10 
REMARK    5  A    between atoms: C_14  and  C_13 
REMARK    6  A    between atoms: C_16  and  C_14 
REMARK    7  A    between atoms: C_15  and  C_16 
ROOT
ATOM      1  N   UNL d   1     -41.837-122.637 -53.284  0.00  0.00    -0.246 N 
ATOM      2  C   UNL d   1     -41.349-123.306 -53.374  0.00  0.00     0.378 A 
ATOM      3  O   UNL d   1     -41.138-123.367 -54.174  0.00  0.00    -0.258 OA
ATOM      4  C   UNL d   1     -41.923-122.289 -54.029  0.00  0.00     0.092 A 
ATOM      5  C   UNL d   1     -41.492-122.740 -54.578  0.00  0.00     0.121 A 
ATOM      6  O   UNL d   1     -41.123-123.813 -52.765  0.00  0.00    -0.237 OA
ATOM      7  C   UNL d   1     -42.340-121.618 -54.281  0.00  0.00     0.020 A 
ATOM      8  C   UNL d   1     -41.483-122.511 -55.378  0.00  0.00     0.026 A 
ATOM      9  C   UNL d   1     -42.323-121.402 -55.077  0.00  0.00     0.002 A 
ATOM     10  C   UNL d   1     -41.897-121.846 -55.622  0.00  0.00     0.002 A 
ENDROOT
BRANCH   1  11
ATOM     11  C   UNL d   1     -42.190-122.338 -52.600  0.00  0.00     0.154 C 
BRANCH  11  12
ATOM     12  C   UNL d   1     -41.731-122.165 -51.947  0.00  0.00     0.318 C 
ATOM     13  O   UNL d   1     -41.130-121.602 -52.000  0.00  0.00    -0.257 OA
BRANCH  12  14
ATOM     14  O   UNL d   1     -41.869-122.554 -51.233  0.00  0.00    -0.270 OA
BRANCH  14  15
ATOM     15  C   UNL d   1     -42.220-122.352 -50.515  0.00  0.00     0.126 C 
BRANCH  15  16
ATOM     16  C   UNL d   1     -42.232-122.890 -49.893  0.00  0.00     0.027 C 
BRANCH  16  17
ATOM     17  C   UNL d   1     -42.638-122.717 -49.197  0.00  0.00     0.002 C 
BRANCH  17  18
ATOM     18  C   UNL d   1     -42.353-122.983 -48.473  0.00  0.00     0.000 C 
ATOM     19  C   UNL d   1     -42.781-123.535 -48.043  0.00  0.00     0.000 C 
ENDBRANCH  17  18
ENDBRANCH  16  17
ENDBRANCH  15  16
ENDBRANCH  14  15
ENDBRANCH  12  14
ENDBRANCH  11  12
ENDBRANCH   1  11
TORSDOF 7
ENDMDL
MODEL 3
REMARK VINA RESULT:      -4.4      1.050      4.685
REMARK  7 active torsions:
REMARK  status: ('A' for Active; 'I' for Inactive)
REMARK    1  A    between atoms: C_6  and  N_1 
REMARK    2  A    between atoms: C_7  and  C_6 
REMARK    3  A    between atoms: O_10  and  C_7 
REMARK    4  A    between atoms: C_13  and  O_10 
REMARK    5  A    between atoms: C_14  and  C_13 
REMARK    6  A    between atoms: C_16  and  C_14 
REMARK    7  A    between atoms: C_15  and  C_16 
ROOT
ATOM      1  N   UNL d   1     -41.165-122.661 -52.028  0.00  0.00    -0.246 N 
ATOM      2  C   UNL d   1     -41.186-121.829 -52.058  0.00  0.00     0.378 A 
ATOM      3  O   UNL d   1     -41.228-121.601 -52.855  0.00  0.00    -0.258 OA
ATOM      4  C   UNL d   1     -41.195-122.941 -52.806  0.00  0.00     0.092 A 
ATOM      5  C   UNL d   1     -41.234-122.285 -53.315  0.00  0.00     0.121 A 
ATOM      6  O   UNL d   1     -41.167-121.331 -51.403  0.00  0.00    -0.237 OA
ATOM      7  C   UNL d   1     -41.192-123.708 -53.118  0.00  0.00     0.020 A 
ATOM      8  C   UNL d   1     -41.269-122.408 -54.138  0.00  0.00     0.026 A 
ATOM      9  C   UNL d   1     -41.228-123.817 -53.935  0.00  0.00     0.002 A 
ATOM     10  C   UNL d   1     -41.266-123.171 -54.442  0.00  0.00     0.002 A 
ENDROOT
BRANCH   1  11
ATOM     11  C   UNL d   1     -41.123-123.157 -51.370  0.00  0.00     0.154 C 
BRANCH  11  12
ATOM     12  C   UNL d   1     -41.719-123.145 -50.811  0.00  0.00     0.318 C 
ATOM     13  O   UNL d   1     -42.509-123.089 -51.048  0.00  0.00    -0.257 OA
BRANCH  12  14
ATOM     14  O   UNL d   1     -41.533-123.187 -50.009  0.00  0.00    -0.270 OA
BRANCH  14  15
ATOM     15  C   UNL d   1     -41.871-123.544 -49.348  0.00  0.00     0.126 C 
BRANCH  15  16
ATOM     16  C   UNL d   1     -41.996-123.111 -48.661  0.00  0.00     0.027 C 
BRANCH  16  17
ATOM     17  C   UNL d   1     -42.325-123.467 -47.993  0.00  0.00     0.002 C 
BRANCH  17  18
ATOM     18  C   UNL d   1     -42.359-123.061 -47.280  0.00  0.00     0.000 C 
ATOM     19  C   UNL d   1     -41.806-123.219 -46.693  0.00  0.00     0.000 C 
ENDBRANCH  17  18
ENDBRANCH  16  17
ENDBRANCH  15  16
ENDBRANCH  14  15
ENDBRANCH  12  14
ENDBRANCH  11  12
ENDBRANCH   1  11
TORSDOF 7
ENDMDL
