MODEL 1
REMARK VINA RESULT:      11.3      0.000      0.000
REMARK  0 active torsions:
REMARK  status: ('A' for Active; 'I' for Inactive)
ROOT
ATOM      1  N   UNL d   1      14.560  13.327  -1.926  0.00  0.00    -0.202 NA
ATOM      2  N   UNL d   1      14.047  11.787  -1.668  0.00  0.00    -0.202 NA
ATOM      3  C   UNL d   1      14.495  12.168  -1.094  0.00  0.00     0.337 A 
ATOM      4  C   UNL d   1      14.755  12.944  -1.222  0.00  0.00     0.337 A 
ATOM      5  C   UNL d   1      13.857  12.173  -2.365  0.00  0.00     0.102 A 
ATOM      6  C   UNL d   1      14.112  12.936  -2.490  0.00  0.00     0.102 A 
ATOM      7  C   UNL d   1      13.924  13.332  -3.192  0.00  0.00     0.021 A 
ATOM      8  C   UNL d   1      13.404  11.780  -2.937  0.00  0.00     0.021 A 
ATOM      9  C   UNL d   1      13.215  12.178  -3.642  0.00  0.00     0.002 A 
ATOM     10  C   UNL d   1      13.473  12.948  -3.768  0.00  0.00     0.002 A 
ATOM     11  O   UNL d   1      14.687  11.782  -0.394  0.00  0.00    -0.260 OA
ATOM     12  O   UNL d   1      15.204  13.328  -0.648  0.00  0.00    -0.260 OA
ATOM     13  C   UNL d   1      13.282  13.337  -4.470  0.00  0.00     0.000 C 
ATOM     14  C   UNL d   1      12.769  11.793  -4.210  0.00  0.00     0.000 C 
ENDROOT
TORSDOF 0
ENDMDL
MODEL 2
REMARK VINA RESULT:      11.9      1.747      2.872
REMARK  0 active torsions:
REMARK  status: ('A' for Active; 'I' for Inactive)
ROOT
ATOM      1  N   UNL d   1      14.343  12.866  -3.082  0.00  0.00    -0.202 NA
ATOM      2  N   UNL d   1      13.146  11.787  -2.760  0.00  0.00    -0.202 NA
ATOM      3  C   UNL d   1      13.256  12.056  -3.529  0.00  0.00     0.337 A 
ATOM      4  C   UNL d   1      13.859  12.599  -3.694  0.00  0.00     0.337 A 
ATOM      5  C   UNL d   1      13.631  12.056  -2.157  0.00  0.00     0.102 A 
ATOM      6  C   UNL d   1      14.224  12.591  -2.319  0.00  0.00     0.102 A 
ATOM      7  C   UNL d   1      14.716  12.867  -1.715  0.00  0.00     0.021 A 
ATOM      8  C   UNL d   1      13.511  11.780  -1.385  0.00  0.00     0.021 A 
ATOM      9  C   UNL d   1      14.007  12.057  -0.778  0.00  0.00     0.002 A 
ATOM     10  C   UNL d   1      14.605  12.597  -0.942  0.00  0.00     0.002 A 
ATOM     11  O   UNL d   1      12.771  11.787  -4.135  0.00  0.00    -0.260 OA
ATOM     12  O   UNL d   1      13.972  12.870  -4.464  0.00  0.00    -0.260 OA
ATOM     13  C   UNL d   1      15.092  12.868  -0.335  0.00  0.00     0.000 C 
ATOM     14  C   UNL d   1      13.892  11.786  -0.014  0.00  0.00     0.000 C 
ENDROOT
TORSDOF 0
ENDMDL
