MODEL 1
REMARK VINA RESULT:      25.8      0.000      0.000
REMARK  6 active torsions:
REMARK  status: ('A' for Active; 'I' for Inactive)
REMARK    1  A    between atoms: C_2  and  S_1 
REMARK    2  A    between atoms: N_5  and  S_1 
REMARK    3  A    between atoms: O_14  and  C_4 
REMARK    4  A    between atoms: C_11  and  N_5 
REMARK    5  A    between atoms: C_15  and  C_11 
REMARK    6  A    between atoms: C_18  and  O_14 
ROOT
ATOM      1  C   UNL d   1      14.202  12.730  -1.942  0.00  0.00     0.129 A 
ATOM      2  C   UNL d   1      14.369  12.247  -1.297  0.00  0.00     0.026 A 
ATOM      3  C   UNL d   1      14.469  13.509  -1.951  0.00  0.00     0.112 A 
ATOM      4  C   UNL d   1      14.803  12.542  -0.661  0.00  0.00     0.059 A 
ATOM      5  C   UNL d   1      14.904  13.804  -1.314  0.00  0.00     0.026 A 
ATOM      6  C   UNL d   1      15.071  13.320  -0.669  0.00  0.00     0.013 A 
ATOM      7 CL   UNL d   1      14.970  12.058  -0.015  0.00  0.00    -0.082 Cl
ATOM      8  C   UNL d   1      15.505  13.615  -0.032  0.00  0.00     0.001 C 
ENDROOT
BRANCH   1   9
ATOM      9  S   UNL d   1      13.768  12.435  -2.578  0.00  0.00     0.287 S 
ATOM     10  O   UNL d   1      13.268  13.091  -2.541  0.00  0.00    -0.198 OA
ATOM     11  O   UNL d   1      14.267  11.780  -2.615  0.00  0.00    -0.198 OA
BRANCH   9  12
ATOM     12  N   UNL d   1      13.333  12.140  -3.214  0.00  0.00    -0.155 NA
BRANCH  12  13
ATOM     13  C   UNL d   1      13.063  12.651  -3.802  0.00  0.00     0.137 C 
BRANCH  13  14
ATOM     14  C   UNL d   1      13.170  12.459  -4.597  0.00  0.00     0.120 A 
ATOM     15  O   UNL d   1      13.561  12.919  -5.153  0.00  0.00    -0.304 OA
ATOM     16  C   UNL d   1      13.537  12.519  -5.872  0.00  0.00     0.123 A 
ATOM     17  C   UNL d   1      13.129  11.811  -5.760  0.00  0.00     0.029 A 
ATOM     18  C   UNL d   1      12.903  11.779  -4.966  0.00  0.00     0.028 A 
ENDBRANCH  13  14
ENDBRANCH  12  13
ENDBRANCH   9  12
ENDBRANCH   1   9
BRANCH   3  19
ATOM     19  O   UNL d   1      14.303  13.997  -2.597  0.00  0.00    -0.304 OA
BRANCH  19  20
ATOM     20  C   UNL d   1      14.463  14.803  -2.558  0.00  0.00     0.123 C 
ATOM     21  C   UNL d   1      14.045  15.336  -3.038  0.00  0.00     0.029 C 
ENDBRANCH  19  20
ENDBRANCH   3  19
TORSDOF 6
ENDMDL
MODEL 2
REMARK VINA RESULT:      26.1      1.353      2.050
REMARK  6 active torsions:
REMARK  status: ('A' for Active; 'I' for Inactive)
REMARK    1  A    between atoms: C_2  and  S_1 
REMARK    2  A    between atoms: N_5  and  S_1 
REMARK    3  A    between atoms: O_14  and  C_4 
REMARK    4  A    between atoms: C_11  and  N_5 
REMARK    5  A    between atoms: C_15  and  C_11 
REMARK    6  A    between atoms: C_18  and  O_14 
ROOT
ATOM      1  C   UNL d   1      14.734  13.765  -1.651  0.00  0.00     0.129 A 
ATOM      2  C   UNL d   1      14.672  14.572  -1.797  0.00  0.00     0.026 A 
ATOM      3  C   UNL d   1      15.096  13.498  -0.961  0.00  0.00     0.112 A 
ATOM      4  C   UNL d   1      14.971  15.114  -1.252  0.00  0.00     0.059 A 
ATOM      5  C   UNL d   1      15.395  14.041  -0.416  0.00  0.00     0.026 A 
ATOM      6  C   UNL d   1      15.332  14.849  -0.561  0.00  0.00     0.013 A 
ATOM      7 CL   UNL d   1      14.909  15.923  -1.397  0.00  0.00    -0.082 Cl
ATOM      8  C   UNL d   1      15.631  15.392  -0.016  0.00  0.00     0.001 C 
ENDROOT
BRANCH   1   9
ATOM      9  S   UNL d   1      14.436  13.222  -2.196  0.00  0.00     0.287 S 
ATOM     10  O   UNL d   1      13.865  13.771  -2.429  0.00  0.00    -0.198 OA
ATOM     11  O   UNL d   1      15.006  12.674  -1.963  0.00  0.00    -0.198 OA
BRANCH   9  12
ATOM     12  N   UNL d   1      14.137  12.680  -2.741  0.00  0.00    -0.155 NA
BRANCH  12  13
ATOM     13  C   UNL d   1      13.368  12.762  -3.027  0.00  0.00     0.137 C 
BRANCH  13  14
ATOM     14  C   UNL d   1      13.189  12.541  -3.801  0.00  0.00     0.120 A 
ATOM     15  O   UNL d   1      12.956  13.048  -4.403  0.00  0.00    -0.304 OA
ATOM     16  C   UNL d   1      12.835  12.596  -5.080  0.00  0.00     0.123 A 
ATOM     17  C   UNL d   1      12.995  11.808  -4.896  0.00  0.00     0.029 A 
ATOM     18  C   UNL d   1      13.214  11.780  -4.100  0.00  0.00     0.028 A 
ENDBRANCH  13  14
ENDBRANCH  12  13
ENDBRANCH   9  12
ENDBRANCH   1   9
BRANCH   3  19
ATOM     19  O   UNL d   1      15.160  12.687  -0.812  0.00  0.00    -0.304 OA
BRANCH  19  20
ATOM     20  C   UNL d   1      14.941  12.384  -0.079  0.00  0.00     0.123 C 
ATOM     21  C   UNL d   1      14.298  11.863  -0.018  0.00  0.00     0.029 C 
ENDBRANCH  19  20
ENDBRANCH   3  19
TORSDOF 6
ENDMDL
