MODEL 1
REMARK VINA RESULT:      -5.9      0.000      0.000
REMARK  0 active torsions:
REMARK  status: ('A' for Active; 'I' for Inactive)
ROOT
ATOM      1  C   UNL d   1      56.521  -0.743  32.111  0.00  0.00     0.061 A 
ATOM      2  C   UNL d   1      57.013  -0.744  31.448  0.00  0.00     0.279 A 
ATOM      3  C   UNL d   1      56.291  -0.029  32.451  0.00  0.00     0.045 A 
ATOM      4  N   UNL d   1      57.272  -0.033  31.129  0.00  0.00    -0.206 NA
ATOM      5  C   UNL d   1      55.796  -0.031  33.116  0.00  0.00     0.196 A 
ATOM      6  O   UNL d   1      57.242  -1.457  31.108  0.00  0.00    -0.265 OA
ATOM      7  C   UNL d   1      57.039   0.682  31.474  0.00  0.00     0.102 A 
ATOM      8  O   UNL d   1      55.566   0.682  33.456  0.00  0.00    -0.287 OA
ATOM      9  C   UNL d   1      56.546   0.677  32.137  0.00  0.00     0.024 A 
ATOM     10  C   UNL d   1      56.258  -1.465  32.433  0.00  0.00     0.005 A 
ATOM     11  C   UNL d   1      55.769  -1.462  33.092  0.00  0.00     0.003 A 
ATOM     12  C   UNL d   1      55.539  -0.748  33.432  0.00  0.00     0.042 A 
ENDROOT
TORSDOF 0
ENDMDL
MODEL 2
REMARK VINA RESULT:      -5.5      0.893      2.606
REMARK  0 active torsions:
REMARK  status: ('A' for Active; 'I' for Inactive)
ROOT
ATOM      1  C   UNL d   1      56.340  -0.037  32.496  0.00  0.00     0.061 A 
ATOM      2  C   UNL d   1      55.867  -0.033  33.172  0.00  0.00     0.279 A 
ATOM      3  C   UNL d   1      56.530  -0.751  32.132  0.00  0.00     0.045 A 
ATOM      4  N   UNL d   1      55.587  -0.740  33.481  0.00  0.00    -0.206 NA
ATOM      5  C   UNL d   1      57.006  -0.752  31.453  0.00  0.00     0.196 A 
ATOM      6  O   UNL d   1      55.676   0.681  33.535  0.00  0.00    -0.265 OA
ATOM      7  C   UNL d   1      55.781  -1.455  33.113  0.00  0.00     0.102 A 
ATOM      8  O   UNL d   1      57.197  -1.465  31.090  0.00  0.00    -0.287 OA
ATOM      9  C   UNL d   1      56.255  -1.453  32.436  0.00  0.00     0.024 A 
ATOM     10  C   UNL d   1      56.623   0.682  32.183  0.00  0.00     0.005 A 
ATOM     11  C   UNL d   1      57.093   0.676  31.511  0.00  0.00     0.003 A 
ATOM     12  C   UNL d   1      57.284  -0.038  31.147  0.00  0.00     0.042 A 
ENDROOT
TORSDOF 0
ENDMDL
MODEL 3
REMARK VINA RESULT:      -4.3      1.533      2.266
REMARK  0 active torsions:
REMARK  status: ('A' for Active; 'I' for Inactive)
ROOT
ATOM      1  C   UNL d   1      56.069  -0.346  32.961  0.00  0.00     0.061 A 
ATOM      2  C   UNL d   1      55.445  -0.346  33.500  0.00  0.00     0.279 A 
ATOM      3  C   UNL d   1      56.703   0.169  33.067  0.00  0.00     0.045 A 
ATOM      4  N   UNL d   1      55.456   0.166  34.141  0.00  0.00    -0.206 NA
ATOM      5  C   UNL d   1      57.329   0.167  32.523  0.00  0.00     0.196 A 
ATOM      6  O   UNL d   1      54.811  -0.861  33.394  0.00  0.00    -0.265 OA
ATOM      7  C   UNL d   1      56.095   0.682  34.244  0.00  0.00     0.102 A 
ATOM      8  O   UNL d   1      57.963   0.682  32.629  0.00  0.00    -0.287 OA
ATOM      9  C   UNL d   1      56.717   0.678  33.701  0.00  0.00     0.024 A 
ATOM     10  C   UNL d   1      56.056  -0.867  32.310  0.00  0.00     0.005 A 
ATOM     11  C   UNL d   1      56.677  -0.865  31.775  0.00  0.00     0.003 A 
ATOM     12  C   UNL d   1      57.312  -0.350  31.881  0.00  0.00     0.042 A 
ENDROOT
TORSDOF 0
ENDMDL
MODEL 4
REMARK VINA RESULT:      -4.3      1.129      1.629
REMARK  0 active torsions:
REMARK  status: ('A' for Active; 'I' for Inactive)
ROOT
ATOM      1  C   UNL d   1      56.744   0.058  32.719  0.00  0.00     0.061 A 
ATOM      2  C   UNL d   1      57.339   0.061  32.146  0.00  0.00     0.279 A 
ATOM      3  C   UNL d   1      56.200  -0.559  32.743  0.00  0.00     0.045 A 
ATOM      4  N   UNL d   1      57.387  -0.552  31.602  0.00  0.00    -0.206 NA
ATOM      5  C   UNL d   1      55.604  -0.559  33.319  0.00  0.00     0.196 A 
ATOM      6  O   UNL d   1      57.883   0.678  32.122  0.00  0.00    -0.265 OA
ATOM      7  C   UNL d   1      56.838  -1.170  31.630  0.00  0.00     0.102 A 
ATOM      8  O   UNL d   1      55.060  -1.176  33.343  0.00  0.00    -0.287 OA
ATOM      9  C   UNL d   1      56.245  -1.168  32.205  0.00  0.00     0.024 A 
ATOM     10  C   UNL d   1      56.698   0.681  33.270  0.00  0.00     0.005 A 
ATOM     11  C   UNL d   1      56.106   0.677  33.839  0.00  0.00     0.003 A 
ATOM     12  C   UNL d   1      55.561   0.059  33.863  0.00  0.00     0.042 A 
ENDROOT
TORSDOF 0
ENDMDL
MODEL 5
REMARK VINA RESULT:      -3.9      1.099      1.996
REMARK  0 active torsions:
REMARK  status: ('A' for Active; 'I' for Inactive)
ROOT
ATOM      1  C   UNL d   1      56.601  -0.216  33.225  0.00  0.00     0.061 A 
ATOM      2  C   UNL d   1      57.038   0.381  33.590  0.00  0.00     0.279 A 
ATOM      3  C   UNL d   1      56.837  -0.510  32.493  0.00  0.00     0.045 A 
ATOM      4  N   UNL d   1      57.707   0.682  33.222  0.00  0.00    -0.206 NA
ATOM      5  C   UNL d   1      56.395  -1.110  32.130  0.00  0.00     0.196 A 
ATOM      6  O   UNL d   1      56.803   0.674  34.322  0.00  0.00    -0.265 OA
ATOM      7  C   UNL d   1      57.941   0.385  32.486  0.00  0.00     0.102 A 
ATOM      8  O   UNL d   1      56.631  -1.403  31.397  0.00  0.00    -0.287 OA
ATOM      9  C   UNL d   1      57.499  -0.214  32.126  0.00  0.00     0.024 A 
ATOM     10  C   UNL d   1      55.922  -0.521  33.601  0.00  0.00     0.005 A 
ATOM     11  C   UNL d   1      55.488  -1.115  33.237  0.00  0.00     0.003 A 
ATOM     12  C   UNL d   1      55.724  -1.408  32.504  0.00  0.00     0.042 A 
ENDROOT
TORSDOF 0
ENDMDL
MODEL 6
REMARK VINA RESULT:      -3.5      9.601      9.775
REMARK  0 active torsions:
REMARK  status: ('A' for Active; 'I' for Inactive)
ROOT
ATOM      1  C   UNL d   1      60.290  -8.797  34.755  0.00  0.00     0.061 A 
ATOM      2  C   UNL d   1      60.474  -8.958  33.967  0.00  0.00     0.279 A 
ATOM      3  C   UNL d   1      59.631  -9.147  35.103  0.00  0.00     0.045 A 
ATOM      4  N   UNL d   1      59.999  -9.467  33.531  0.00  0.00    -0.206 NA
ATOM      5  C   UNL d   1      59.449  -8.984  35.895  0.00  0.00     0.196 A 
ATOM      6  O   UNL d   1      61.133  -8.608  33.619  0.00  0.00    -0.265 OA
ATOM      7  C   UNL d   1      59.338  -9.817  33.884  0.00  0.00     0.102 A 
ATOM      8  O   UNL d   1      58.790  -9.334  36.243  0.00  0.00    -0.287 OA
ATOM      9  C   UNL d   1      59.159  -9.652  34.673  0.00  0.00     0.024 A 
ATOM     10  C   UNL d   1      60.773  -8.280  35.196  0.00  0.00     0.005 A 
ATOM     11  C   UNL d   1      60.589  -8.122  35.979  0.00  0.00     0.003 A 
ATOM     12  C   UNL d   1      59.929  -8.472  36.327  0.00  0.00     0.042 A 
ENDROOT
TORSDOF 0
ENDMDL
MODEL 7
REMARK VINA RESULT:      -3.3      1.179      2.039
REMARK  0 active torsions:
REMARK  status: ('A' for Active; 'I' for Inactive)
ROOT
ATOM      1  C   UNL d   1      57.298  -0.047  31.115  0.00  0.00     0.061 A 
ATOM      2  C   UNL d   1      57.765  -0.036  30.435  0.00  0.00     0.279 A 
ATOM      3  C   UNL d   1      57.065  -0.766  31.443  0.00  0.00     0.045 A 
ATOM      4  N   UNL d   1      57.996  -0.742  30.086  0.00  0.00    -0.206 NA
ATOM      5  C   UNL d   1      56.596  -0.773  32.126  0.00  0.00     0.196 A 
ATOM      6  O   UNL d   1      57.997   0.682  30.108  0.00  0.00    -0.265 OA
ATOM      7  C   UNL d   1      57.761  -1.462  30.418  0.00  0.00     0.102 A 
ATOM      8  O   UNL d   1      56.363  -1.492  32.454  0.00  0.00    -0.287 OA
ATOM      9  C   UNL d   1      57.293  -1.467  31.099  0.00  0.00     0.024 A 
ATOM     10  C   UNL d   1      57.063   0.671  31.468  0.00  0.00     0.005 A 
ATOM     11  C   UNL d   1      56.599   0.658  32.145  0.00  0.00     0.003 A 
ATOM     12  C   UNL d   1      56.366  -0.061  32.472  0.00  0.00     0.042 A 
ENDROOT
TORSDOF 0
ENDMDL
