MODEL 1
REMARK VINA RESULT:      -9.3      0.000      0.000
REMARK  6 active torsions:
REMARK  status: ('A' for Active; 'I' for Inactive)
REMARK    1  A    between atoms: C_6  and  C_1 
REMARK    2  A    between atoms: C_9  and  N_3 
REMARK    3  A    between atoms: C_17  and  C_9 
REMARK    4  A    between atoms: O_15  and  C_10 
REMARK    5  A    between atoms: O_16  and  C_17 
REMARK    6  A    between atoms: C_18  and  O_16 
ROOT
ATOM      1  C   UNL d   1      52.498  33.836  53.627  0.00  0.00     0.148 A 
ATOM      2  N   UNL d   1      52.851  34.414  54.114  0.00  0.00    -0.227 NA
ATOM      3  N   UNL d   1      52.940  33.139  53.678  0.00  0.00    -0.287 N 
ATOM      4  C   UNL d   1      53.573  33.275  54.196  0.00  0.00     0.083 A 
ATOM      5  C   UNL d   1      53.516  34.058  54.463  0.00  0.00     0.099 A 
ATOM      6  C   UNL d   1      54.198  32.795  54.467  0.00  0.00     0.019 A 
ATOM      7  C   UNL d   1      54.081  34.358  54.996  0.00  0.00     0.021 A 
ATOM      8  C   UNL d   1      54.756  33.093  54.995  0.00  0.00     0.002 A 
ATOM      9  C   UNL d   1      54.697  33.876  55.260  0.00  0.00     0.002 A 
ENDROOT
BRANCH   1  10
ATOM     10  C   UNL d   1      51.819  33.946  53.172  0.00  0.00     0.035 A 
ATOM     11  C   UNL d   1      51.078  33.785  53.494  0.00  0.00     0.005 A 
ATOM     12  C   UNL d   1      50.402  33.894  53.041  0.00  0.00     0.024 A 
ATOM     13  C   UNL d   1      50.459  34.164  52.263  0.00  0.00     0.094 A 
ATOM     14  C   UNL d   1      51.213  34.329  51.934  0.00  0.00     0.024 A 
ATOM     15  C   UNL d   1      51.887  34.217  52.394  0.00  0.00     0.005 A 
BRANCH  13  16
ATOM     16  O   UNL d   1      49.783  34.276  51.802  0.00  0.00    -0.328 OA
ATOM     17  C   UNL d   1      49.194  34.790  52.066  0.00  0.00     0.181 C 
ENDBRANCH  13  16
ENDBRANCH   1  10
BRANCH   3  18
ATOM     18  C   UNL d   1      52.653  32.520  53.223  0.00  0.00     0.108 C 
BRANCH  18  19
ATOM     19  C   UNL d   1      53.001  31.776  53.273  0.00  0.00     0.142 C 
BRANCH  19  20
ATOM     20  O   UNL d   1      52.644  31.130  52.913  0.00  0.00    -0.302 OA
BRANCH  20  21
ATOM     21  C   UNL d   1      53.039  30.410  52.881  0.00  0.00     0.123 C 
ATOM     22  C   UNL d   1      52.707  29.743  53.241  0.00  0.00     0.029 C 
ENDBRANCH  20  21
ENDBRANCH  19  20
ENDBRANCH  18  19
ENDBRANCH   3  18
TORSDOF 6
ENDMDL
MODEL 2
REMARK VINA RESULT:      -8.3      1.120      2.699
REMARK  6 active torsions:
REMARK  status: ('A' for Active; 'I' for Inactive)
REMARK    1  A    between atoms: C_6  and  C_1 
REMARK    2  A    between atoms: C_9  and  N_3 
REMARK    3  A    between atoms: C_17  and  C_9 
REMARK    4  A    between atoms: O_15  and  C_10 
REMARK    5  A    between atoms: O_16  and  C_17 
REMARK    6  A    between atoms: C_18  and  O_16 
ROOT
ATOM      1  C   UNL d   1      52.209  32.293  53.074  0.00  0.00     0.148 A 
ATOM      2  N   UNL d   1      52.020  31.553  52.740  0.00  0.00    -0.227 NA
ATOM      3  N   UNL d   1      52.920  32.225  53.490  0.00  0.00    -0.287 N 
ATOM      4  C   UNL d   1      53.182  31.442  53.421  0.00  0.00     0.083 A 
ATOM      5  C   UNL d   1      52.629  31.031  52.960  0.00  0.00     0.099 A 
ATOM      6  C   UNL d   1      53.851  31.039  53.712  0.00  0.00     0.019 A 
ATOM      7  C   UNL d   1      52.744  30.223  52.793  0.00  0.00     0.021 A 
ATOM      8  C   UNL d   1      53.963  30.240  53.546  0.00  0.00     0.002 A 
ATOM      9  C   UNL d   1      53.409  29.831  53.086  0.00  0.00     0.002 A 
ENDROOT
BRANCH   1  10
ATOM     10  C   UNL d   1      51.757  32.980  52.998  0.00  0.00     0.035 A 
ATOM     11  C   UNL d   1      51.107  33.100  53.492  0.00  0.00     0.005 A 
ATOM     12  C   UNL d   1      50.657  33.783  53.417  0.00  0.00     0.024 A 
ATOM     13  C   UNL d   1      50.850  34.350  52.850  0.00  0.00     0.094 A 
ATOM     14  C   UNL d   1      51.511  34.229  52.348  0.00  0.00     0.024 A 
ATOM     15  C   UNL d   1      51.958  33.543  52.427  0.00  0.00     0.005 A 
BRANCH  13  16
ATOM     16  O   UNL d   1      50.402  35.039  52.770  0.00  0.00    -0.328 OA
ATOM     17  C   UNL d   1      49.579  34.985  52.744  0.00  0.00     0.181 C 
ENDBRANCH  13  16
ENDBRANCH   1  10
BRANCH   3  18
ATOM     18  C   UNL d   1      53.172  32.919  53.849  0.00  0.00     0.108 C 
BRANCH  18  19
ATOM     19  C   UNL d   1      53.812  32.905  54.367  0.00  0.00     0.142 C 
BRANCH  19  20
ATOM     20  O   UNL d   1      54.136  33.609  54.638  0.00  0.00    -0.302 OA
BRANCH  20  21
ATOM     21  C   UNL d   1      54.639  33.604  55.288  0.00  0.00     0.123 C 
ATOM     22  C   UNL d   1      55.371  33.986  55.243  0.00  0.00     0.029 C 
ENDBRANCH  20  21
ENDBRANCH  19  20
ENDBRANCH  18  19
ENDBRANCH   3  18
TORSDOF 6
ENDMDL
MODEL 3
REMARK VINA RESULT:      -7.8      1.667      4.023
REMARK  6 active torsions:
REMARK  status: ('A' for Active; 'I' for Inactive)
REMARK    1  A    between atoms: C_6  and  C_1 
REMARK    2  A    between atoms: C_9  and  N_3 
REMARK    3  A    between atoms: C_17  and  C_9 
REMARK    4  A    between atoms: O_15  and  C_10 
REMARK    5  A    between atoms: O_16  and  C_17 
REMARK    6  A    between atoms: C_18  and  O_16 
ROOT
ATOM      1  C   UNL d   1      52.566  32.002  53.169  0.00  0.00     0.148 A 
ATOM      2  N   UNL d   1      51.968  32.241  52.638  0.00  0.00    -0.227 NA
ATOM      3  N   UNL d   1      52.918  32.676  53.494  0.00  0.00    -0.287 N 
ATOM      4  C   UNL d   1      52.545  33.341  53.170  0.00  0.00     0.083 A 
ATOM      5  C   UNL d   1      51.962  33.072  52.645  0.00  0.00     0.099 A 
ATOM      6  C   UNL d   1      52.651  34.161  53.278  0.00  0.00     0.019 A 
ATOM      7  C   UNL d   1      51.490  33.619  52.231  0.00  0.00     0.021 A 
ATOM      8  C   UNL d   1      52.183  34.701  52.867  0.00  0.00     0.002 A 
ATOM      9  C   UNL d   1      51.602  34.429  52.343  0.00  0.00     0.002 A 
ENDROOT
BRANCH   1  10
ATOM     10  C   UNL d   1      52.769  31.221  53.339  0.00  0.00     0.035 A 
ATOM     11  C   UNL d   1      52.352  30.804  53.917  0.00  0.00     0.005 A 
ATOM     12  C   UNL d   1      52.554  30.027  54.086  0.00  0.00     0.024 A 
ATOM     13  C   UNL d   1      53.171  29.658  53.682  0.00  0.00     0.094 A 
ATOM     14  C   UNL d   1      53.596  30.080  53.094  0.00  0.00     0.024 A 
ATOM     15  C   UNL d   1      53.389  30.859  52.929  0.00  0.00     0.005 A 
BRANCH  13  16
ATOM     16  O   UNL d   1      53.379  28.876  53.847  0.00  0.00    -0.328 OA
ATOM     17  C   UNL d   1      53.461  28.637  54.632  0.00  0.00     0.181 C 
ENDBRANCH  13  16
ENDBRANCH   1  10
BRANCH   3  18
ATOM     18  C   UNL d   1      53.520  32.521  54.030  0.00  0.00     0.108 C 
BRANCH  18  19
ATOM     19  C   UNL d   1      53.896  33.141  54.419  0.00  0.00     0.142 C 
BRANCH  19  20
ATOM     20  O   UNL d   1      54.571  32.998  54.864  0.00  0.00    -0.302 OA
BRANCH  20  21
ATOM     21  C   UNL d   1      54.823  33.555  55.414  0.00  0.00     0.123 C 
ATOM     22  C   UNL d   1      55.537  33.955  55.295  0.00  0.00     0.029 C 
ENDBRANCH  20  21
ENDBRANCH  19  20
ENDBRANCH  18  19
ENDBRANCH   3  18
TORSDOF 6
ENDMDL
MODEL 4
REMARK VINA RESULT:      -7.7      1.449      4.095
REMARK  6 active torsions:
REMARK  status: ('A' for Active; 'I' for Inactive)
REMARK    1  A    between atoms: C_6  and  C_1 
REMARK    2  A    between atoms: C_9  and  N_3 
REMARK    3  A    between atoms: C_17  and  C_9 
REMARK    4  A    between atoms: O_15  and  C_10 
REMARK    5  A    between atoms: O_16  and  C_17 
REMARK    6  A    between atoms: C_18  and  O_16 
ROOT
ATOM      1  C   UNL d   1      53.789  31.740  54.005  0.00  0.00     0.148 A 
ATOM      2  N   UNL d   1      53.987  30.949  54.181  0.00  0.00    -0.227 NA
ATOM      3  N   UNL d   1      53.157  31.744  53.472  0.00  0.00    -0.287 N 
ATOM      4  C   UNL d   1      52.955  30.957  53.310  0.00  0.00     0.083 A 
ATOM      5  C   UNL d   1      53.465  30.470  53.745  0.00  0.00     0.099 A 
ATOM      6  C   UNL d   1      52.374  30.609  52.824  0.00  0.00     0.019 A 
ATOM      7  C   UNL d   1      53.395  29.642  53.695  0.00  0.00     0.021 A 
ATOM      8  C   UNL d   1      52.306  29.789  52.775  0.00  0.00     0.002 A 
ATOM      9  C   UNL d   1      52.818  29.305  53.212  0.00  0.00     0.002 A 
ENDROOT
BRANCH   1  10
ATOM     10  C   UNL d   1      54.165  32.406  54.315  0.00  0.00     0.035 A 
ATOM     11  C   UNL d   1      54.731  32.804  53.866  0.00  0.00     0.005 A 
ATOM     12  C   UNL d   1      55.105  33.467  54.175  0.00  0.00     0.024 A 
ATOM     13  C   UNL d   1      54.918  33.738  54.931  0.00  0.00     0.094 A 
ATOM     14  C   UNL d   1      54.343  33.334  55.388  0.00  0.00     0.024 A 
ATOM     15  C   UNL d   1      53.971  32.670  55.074  0.00  0.00     0.005 A 
BRANCH  13  16
ATOM     16  O   UNL d   1      55.291  34.404  55.247  0.00  0.00    -0.328 OA
ATOM     17  C   UNL d   1      54.908  35.135  55.214  0.00  0.00     0.181 C 
ENDBRANCH  13  16
ENDBRANCH   1  10
BRANCH   3  18
ATOM     18  C   UNL d   1      52.904  32.493  53.250  0.00  0.00     0.108 C 
BRANCH  18  19
ATOM     19  C   UNL d   1      52.124  32.610  53.014  0.00  0.00     0.142 C 
BRANCH  19  20
ATOM     20  O   UNL d   1      51.890  33.341  52.721  0.00  0.00    -0.302 OA
BRANCH  20  21
ATOM     21  C   UNL d   1      51.171  33.663  52.954  0.00  0.00     0.123 C 
ATOM     22  C   UNL d   1      50.837  34.282  52.518  0.00  0.00     0.029 C 
ENDBRANCH  20  21
ENDBRANCH  19  20
ENDBRANCH  18  19
ENDBRANCH   3  18
TORSDOF 6
ENDMDL
MODEL 5
REMARK VINA RESULT:      -7.0      0.971      3.394
REMARK  6 active torsions:
REMARK  status: ('A' for Active; 'I' for Inactive)
REMARK    1  A    between atoms: C_6  and  C_1 
REMARK    2  A    between atoms: C_9  and  N_3 
REMARK    3  A    between atoms: C_17  and  C_9 
REMARK    4  A    between atoms: O_15  and  C_10 
REMARK    5  A    between atoms: O_16  and  C_17 
REMARK    6  A    between atoms: C_18  and  O_16 
ROOT
ATOM      1  C   UNL d   1      53.720  32.242  54.114  0.00  0.00     0.148 A 
ATOM      2  N   UNL d   1      54.451  32.385  54.489  0.00  0.00    -0.227 NA
ATOM      3  N   UNL d   1      53.283  32.944  54.106  0.00  0.00    -0.287 N 
ATOM      4  C   UNL d   1      53.736  33.531  54.476  0.00  0.00     0.083 A 
ATOM      5  C   UNL d   1      54.452  33.186  54.711  0.00  0.00     0.099 A 
ATOM      6  C   UNL d   1      53.599  34.337  54.635  0.00  0.00     0.019 A 
ATOM      7  C   UNL d   1      55.027  33.645  55.101  0.00  0.00     0.021 A 
ATOM      8  C   UNL d   1      54.168  34.790  55.022  0.00  0.00     0.002 A 
ATOM      9  C   UNL d   1      54.884  34.443  55.256  0.00  0.00     0.002 A 
ENDROOT
BRANCH   1  10
ATOM     10  C   UNL d   1      53.477  31.517  53.803  0.00  0.00     0.035 A 
ATOM     11  C   UNL d   1      53.195  30.928  54.306  0.00  0.00     0.005 A 
ATOM     12  C   UNL d   1      52.954  30.207  53.996  0.00  0.00     0.024 A 
ATOM     13  C   UNL d   1      52.991  30.067  53.184  0.00  0.00     0.094 A 
ATOM     14  C   UNL d   1      53.278  30.666  52.671  0.00  0.00     0.024 A 
ATOM     15  C   UNL d   1      53.519  31.387  52.987  0.00  0.00     0.005 A 
BRANCH  13  16
ATOM     16  O   UNL d   1      52.749  29.344  52.866  0.00  0.00    -0.328 OA
ATOM     17  C   UNL d   1      52.209  28.880  53.282  0.00  0.00     0.181 C 
ENDBRANCH  13  16
ENDBRANCH   1  10
BRANCH   3  18
ATOM     18  C   UNL d   1      52.546  32.882  53.750  0.00  0.00     0.108 C 
BRANCH  18  19
ATOM     19  C   UNL d   1      52.109  33.560  53.588  0.00  0.00     0.142 C 
BRANCH  19  20
ATOM     20  O   UNL d   1      51.334  33.496  53.324  0.00  0.00    -0.302 OA
BRANCH  20  21
ATOM     21  C   UNL d   1      51.046  34.028  52.768  0.00  0.00     0.123 C 
ATOM     22  C   UNL d   1      50.272  34.313  52.835  0.00  0.00     0.029 C 
ENDBRANCH  20  21
ENDBRANCH  19  20
ENDBRANCH  18  19
ENDBRANCH   3  18
TORSDOF 6
ENDMDL
MODEL 6
REMARK VINA RESULT:      -6.6      1.164      3.566
REMARK  6 active torsions:
REMARK  status: ('A' for Active; 'I' for Inactive)
REMARK    1  A    between atoms: C_6  and  C_1 
REMARK    2  A    between atoms: C_9  and  N_3 
REMARK    3  A    between atoms: C_17  and  C_9 
REMARK    4  A    between atoms: O_15  and  C_10 
REMARK    5  A    between atoms: O_16  and  C_17 
REMARK    6  A    between atoms: C_18  and  O_16 
ROOT
ATOM      1  C   UNL d   1      52.564  33.801  53.653  0.00  0.00     0.148 A 
ATOM      2  N   UNL d   1      52.061  34.464  53.715  0.00  0.00    -0.227 NA
ATOM      3  N   UNL d   1      52.222  33.256  53.134  0.00  0.00    -0.287 N 
ATOM      4  C   UNL d   1      51.505  33.572  52.867  0.00  0.00     0.083 A 
ATOM      5  C   UNL d   1      51.407  34.314  53.224  0.00  0.00     0.099 A 
ATOM      6  C   UNL d   1      50.919  33.290  52.345  0.00  0.00     0.019 A 
ATOM      7  C   UNL d   1      50.730  34.769  53.061  0.00  0.00     0.021 A 
ATOM      8  C   UNL d   1      50.249  33.742  52.184  0.00  0.00     0.002 A 
ATOM      9  C   UNL d   1      50.154  34.483  52.543  0.00  0.00     0.002 A 
ENDROOT
BRANCH   1  10
ATOM     10  C   UNL d   1      53.283  33.709  54.048  0.00  0.00     0.035 A 
ATOM     11  C   UNL d   1      53.290  33.508  54.847  0.00  0.00     0.005 A 
ATOM     12  C   UNL d   1      54.005  33.417  55.240  0.00  0.00     0.024 A 
ATOM     13  C   UNL d   1      54.718  33.525  54.839  0.00  0.00     0.094 A 
ATOM     14  C   UNL d   1      54.712  33.730  54.026  0.00  0.00     0.024 A 
ATOM     15  C   UNL d   1      53.992  33.820  53.638  0.00  0.00     0.005 A 
BRANCH  13  16
ATOM     16  O   UNL d   1      55.442  33.434  55.228  0.00  0.00    -0.328 OA
ATOM     17  C   UNL d   1      55.817  34.099  55.542  0.00  0.00     0.181 C 
ENDBRANCH  13  16
ENDBRANCH   1  10
BRANCH   3  18
ATOM     18  C   UNL d   1      52.662  32.572  53.022  0.00  0.00     0.108 C 
BRANCH  18  19
ATOM     19  C   UNL d   1      52.282  31.860  52.860  0.00  0.00     0.142 C 
BRANCH  19  20
ATOM     20  O   UNL d   1      52.721  31.198  52.653  0.00  0.00    -0.302 OA
BRANCH  20  21
ATOM     21  C   UNL d   1      52.529  30.464  52.970  0.00  0.00     0.123 C 
ATOM     22  C   UNL d   1      53.131  29.954  53.218  0.00  0.00     0.029 C 
ENDBRANCH  20  21
ENDBRANCH  19  20
ENDBRANCH  18  19
ENDBRANCH   3  18
TORSDOF 6
ENDMDL
