MODEL 1
REMARK VINA RESULT:      -2.6      0.000      0.000
REMARK  4 active torsions:
REMARK  status: ('A' for Active; 'I' for Inactive)
REMARK    1  A    between atoms: C_2  and  C_1 
REMARK    2  A    between atoms: C_3  and  C_2 
REMARK    3  A    between atoms: C_5  and  C_3 
REMARK    4  A    between atoms: O_12  and  C_7 
ROOT
ATOM      1  C   UNL d   1      32.931  21.019 -21.574  0.00  0.00     0.000 A 
ATOM      2  C   UNL d   1      32.365  22.479 -21.051  0.00  0.00     0.094 A 
ATOM      3  C   UNL d   1      33.177  21.717 -21.944  0.00  0.00     0.002 A 
ATOM      4  C   UNL d   1      32.400  21.055 -20.941  0.00  0.00     0.002 A 
ATOM      5  C   UNL d   1      32.896  22.444 -21.684  0.00  0.00     0.024 A 
ATOM      6  C   UNL d   1      32.118  21.788 -20.682  0.00  0.00     0.024 A 
ENDROOT
BRANCH   1   7
ATOM      7  C   UNL d   1      33.218  20.292 -21.841  0.00  0.00     0.006 C 
BRANCH   7   8
ATOM      8  C   UNL d   1      32.781  19.860 -22.390  0.00  0.00     0.070 C 
BRANCH   8   9
ATOM      9  C   UNL d   1      33.072  19.148 -22.676  0.00  0.00     0.211 C 
ATOM     10  O   UNL d   1      33.238  18.535 -22.154  0.00  0.00    -0.644 OA
ATOM     11  O   UNL d   1      33.197  19.048 -23.480  0.00  0.00    -0.644 OA
ENDBRANCH   8   9
ENDBRANCH   7   8
ENDBRANCH   1   7
BRANCH   2  12
ATOM     12  O   UNL d   1      32.083  23.205 -20.791  0.00  0.00    -0.328 OA
ATOM     13  C   UNL d   1      32.473  23.606 -20.187  0.00  0.00     0.181 C 
ENDBRANCH   2  12
TORSDOF 4
ENDMDL
MODEL 2
REMARK VINA RESULT:      -2.5      1.182      3.826
REMARK  4 active torsions:
REMARK  status: ('A' for Active; 'I' for Inactive)
REMARK    1  A    between atoms: C_2  and  C_1 
REMARK    2  A    between atoms: C_3  and  C_2 
REMARK    3  A    between atoms: C_5  and  C_3 
REMARK    4  A    between atoms: O_12  and  C_7 
ROOT
ATOM      1  C   UNL d   1      33.224  19.898 -22.303  0.00  0.00     0.000 A 
ATOM      2  C   UNL d   1      33.235  18.670 -23.407  0.00  0.00     0.094 A 
ATOM      3  C   UNL d   1      33.235  20.067 -23.113  0.00  0.00     0.002 A 
ATOM      4  C   UNL d   1      33.219  19.112 -22.048  0.00  0.00     0.002 A 
ATOM      5  C   UNL d   1      33.240  19.457 -23.662  0.00  0.00     0.024 A 
ATOM      6  C   UNL d   1      33.225  18.499 -22.603  0.00  0.00     0.024 A 
ENDROOT
BRANCH   1   7
ATOM      7  C   UNL d   1      33.219  20.517 -21.757  0.00  0.00     0.006 C 
BRANCH   7   8
ATOM      8  C   UNL d   1      32.511  20.727 -21.388  0.00  0.00     0.070 C 
BRANCH   8   9
ATOM      9  C   UNL d   1      32.479  21.397 -20.914  0.00  0.00     0.211 C 
ATOM     10  O   UNL d   1      31.764  21.788 -20.806  0.00  0.00    -0.644 OA
ATOM     11  O   UNL d   1      33.158  21.674 -20.548  0.00  0.00    -0.644 OA
ENDBRANCH   8   9
ENDBRANCH   7   8
ENDBRANCH   1   7
BRANCH   2  12
ATOM     12  O   UNL d   1      33.241  18.060 -23.955  0.00  0.00    -0.328 OA
ATOM     13  C   UNL d   1      32.541  17.671 -24.146  0.00  0.00     0.181 C 
ENDBRANCH   2  12
TORSDOF 4
ENDMDL
MODEL 3
REMARK VINA RESULT:      -2.4      4.081      5.834
REMARK  4 active torsions:
REMARK  status: ('A' for Active; 'I' for Inactive)
REMARK    1  A    between atoms: C_2  and  C_1 
REMARK    2  A    between atoms: C_3  and  C_2 
REMARK    3  A    between atoms: C_5  and  C_3 
REMARK    4  A    between atoms: O_12  and  C_7 
ROOT
ATOM      1  C   UNL d   1      30.496  16.629 -24.061  0.00  0.00     0.000 A 
ATOM      2  C   UNL d   1      32.007  17.253 -23.829  0.00  0.00     0.094 A 
ATOM      3  C   UNL d   1      30.702  17.355 -24.400  0.00  0.00     0.002 A 
ATOM      4  C   UNL d   1      31.049  16.216 -23.606  0.00  0.00     0.002 A 
ATOM      5  C   UNL d   1      31.454  17.665 -24.285  0.00  0.00     0.024 A 
ATOM      6  C   UNL d   1      31.805  16.531 -23.492  0.00  0.00     0.024 A 
ENDROOT
BRANCH   1   7
ATOM      7  C   UNL d   1      29.739  16.322 -24.182  0.00  0.00     0.006 C 
BRANCH   7   8
ATOM      8  C   UNL d   1      29.203  16.307 -23.555  0.00  0.00     0.070 C 
BRANCH   8   9
ATOM      9  C   UNL d   1      28.418  16.110 -23.692  0.00  0.00     0.211 C 
ATOM     10  O   UNL d   1      27.818  16.574 -23.374  0.00  0.00    -0.644 OA
ATOM     11  O   UNL d   1      28.232  15.452 -24.144  0.00  0.00    -0.644 OA
ENDBRANCH   8   9
ENDBRANCH   7   8
ENDBRANCH   1   7
BRANCH   2  12
ATOM     12  O   UNL d   1      32.758  17.563 -23.714  0.00  0.00    -0.328 OA
ATOM     13  C   UNL d   1      32.911  18.037 -23.059  0.00  0.00     0.181 C 
ENDBRANCH   2  12
TORSDOF 4
ENDMDL
MODEL 4
REMARK VINA RESULT:      -2.3      3.801      5.720
REMARK  4 active torsions:
REMARK  status: ('A' for Active; 'I' for Inactive)
REMARK    1  A    between atoms: C_2  and  C_1 
REMARK    2  A    between atoms: C_3  and  C_2 
REMARK    3  A    between atoms: C_5  and  C_3 
REMARK    4  A    between atoms: O_12  and  C_7 
ROOT
ATOM      1  C   UNL d   1      31.225  16.896 -23.980  0.00  0.00     0.000 A 
ATOM      2  C   UNL d   1      29.727  16.202 -24.002  0.00  0.00     0.094 A 
ATOM      3  C   UNL d   1      31.094  16.178 -23.590  0.00  0.00     0.002 A 
ATOM      4  C   UNL d   1      30.603  17.266 -24.381  0.00  0.00     0.002 A 
ATOM      5  C   UNL d   1      30.349  15.832 -23.601  0.00  0.00     0.024 A 
ATOM      6  C   UNL d   1      29.853  16.915 -24.389  0.00  0.00     0.024 A 
ENDROOT
BRANCH   1   7
ATOM      7  C   UNL d   1      31.976  17.238 -23.965  0.00  0.00     0.006 C 
BRANCH   7   8
ATOM      8  C   UNL d   1      32.084  17.966 -23.592  0.00  0.00     0.070 C 
BRANCH   8   9
ATOM      9  C   UNL d   1      32.839  18.276 -23.510  0.00  0.00     0.211 C 
ATOM     10  O   UNL d   1      33.192  18.302 -22.768  0.00  0.00    -0.644 OA
ATOM     11  O   UNL d   1      33.241  18.560 -24.165  0.00  0.00    -0.644 OA
ENDBRANCH   8   9
ENDBRANCH   7   8
ENDBRANCH   1   7
BRANCH   2  12
ATOM     12  O   UNL d   1      28.983  15.857 -24.013  0.00  0.00    -0.328 OA
ATOM     13  C   UNL d   1      28.365  16.195 -23.587  0.00  0.00     0.181 C 
ENDBRANCH   2  12
TORSDOF 4
ENDMDL
MODEL 5
REMARK VINA RESULT:      -2.3      2.060      4.384
REMARK  4 active torsions:
REMARK  status: ('A' for Active; 'I' for Inactive)
REMARK    1  A    between atoms: C_2  and  C_1 
REMARK    2  A    between atoms: C_3  and  C_2 
REMARK    3  A    between atoms: C_5  and  C_3 
REMARK    4  A    between atoms: O_12  and  C_7 
ROOT
ATOM      1  C   UNL d   1      32.747  23.017 -19.437  0.00  0.00     0.000 A 
ATOM      2  C   UNL d   1      32.648  22.197 -20.867  0.00  0.00     0.094 A 
ATOM      3  C   UNL d   1      32.234  23.278 -20.031  0.00  0.00     0.002 A 
ATOM      4  C   UNL d   1      33.210  22.344 -19.561  0.00  0.00     0.002 A 
ATOM      5  C   UNL d   1      32.184  22.871 -20.742  0.00  0.00     0.024 A 
ATOM      6  C   UNL d   1      33.158  21.936 -20.279  0.00  0.00     0.024 A 
ENDROOT
BRANCH   1   7
ATOM      7  C   UNL d   1      32.791  23.432 -18.724  0.00  0.00     0.006 C 
BRANCH   7   8
ATOM      8  C   UNL d   1      32.676  23.030 -18.013  0.00  0.00     0.070 C 
BRANCH   8   9
ATOM      9  C   UNL d   1      32.580  23.452 -17.315  0.00  0.00     0.211 C 
ATOM     10  O   UNL d   1      33.240  23.702 -16.894  0.00  0.00    -0.644 OA
ATOM     11  O   UNL d   1      31.828  23.624 -17.039  0.00  0.00    -0.644 OA
ENDBRANCH   8   9
ENDBRANCH   7   8
ENDBRANCH   1   7
BRANCH   2  12
ATOM     12  O   UNL d   1      32.599  21.790 -21.577  0.00  0.00    -0.328 OA
ATOM     13  C   UNL d   1      32.652  20.969 -21.586  0.00  0.00     0.181 C 
ENDBRANCH   2  12
TORSDOF 4
ENDMDL
MODEL 6
REMARK VINA RESULT:      -2.2      2.036      4.664
REMARK  4 active torsions:
REMARK  status: ('A' for Active; 'I' for Inactive)
REMARK    1  A    between atoms: C_2  and  C_1 
REMARK    2  A    between atoms: C_3  and  C_2 
REMARK    3  A    between atoms: C_5  and  C_3 
REMARK    4  A    between atoms: O_12  and  C_7 
ROOT
ATOM      1  C   UNL d   1      32.891  18.478 -23.176  0.00  0.00     0.000 A 
ATOM      2  C   UNL d   1      32.310  17.041 -23.744  0.00  0.00     0.094 A 
ATOM      3  C   UNL d   1      33.240  17.766 -22.940  0.00  0.00     0.002 A 
ATOM      4  C   UNL d   1      32.249  18.468 -23.698  0.00  0.00     0.002 A 
ATOM      5  C   UNL d   1      32.951  17.051 -23.222  0.00  0.00     0.024 A 
ATOM      6  C   UNL d   1      31.961  17.746 -23.980  0.00  0.00     0.024 A 
ENDROOT
BRANCH   1   7
ATOM      7  C   UNL d   1      33.187  19.194 -22.888  0.00  0.00     0.006 C 
BRANCH   7   8
ATOM      8  C   UNL d   1      32.808  19.564 -22.255  0.00  0.00     0.070 C 
BRANCH   8   9
ATOM      9  C   UNL d   1      33.092  20.280 -21.970  0.00  0.00     0.211 C 
ATOM     10  O   UNL d   1      33.237  20.898 -22.492  0.00  0.00    -0.644 OA
ATOM     11  O   UNL d   1      33.229  20.378 -21.169  0.00  0.00    -0.644 OA
ENDBRANCH   8   9
ENDBRANCH   7   8
ENDBRANCH   1   7
BRANCH   2  12
ATOM     12  O   UNL d   1      32.021  16.327 -24.026  0.00  0.00    -0.328 OA
ATOM     13  C   UNL d   1      31.632  15.809 -23.518  0.00  0.00     0.181 C 
ENDBRANCH   2  12
TORSDOF 4
ENDMDL
MODEL 7
REMARK VINA RESULT:      -1.9      2.647      4.264
REMARK  4 active torsions:
REMARK  status: ('A' for Active; 'I' for Inactive)
REMARK    1  A    between atoms: C_2  and  C_1 
REMARK    2  A    between atoms: C_3  and  C_2 
REMARK    3  A    between atoms: C_5  and  C_3 
REMARK    4  A    between atoms: O_12  and  C_7 
ROOT
ATOM      1  C   UNL d   1      32.261  17.627 -23.966  0.00  0.00     0.000 A 
ATOM      2  C   UNL d   1      32.916  19.074 -23.513  0.00  0.00     0.094 A 
ATOM      3  C   UNL d   1      32.290  18.257 -24.502  0.00  0.00     0.002 A 
ATOM      4  C   UNL d   1      32.562  17.725 -23.201  0.00  0.00     0.002 A 
ATOM      5  C   UNL d   1      32.615  18.976 -24.277  0.00  0.00     0.024 A 
ATOM      6  C   UNL d   1      32.889  18.451 -22.978  0.00  0.00     0.024 A 
ENDROOT
BRANCH   1   7
ATOM      7  C   UNL d   1      31.933  16.907 -24.199  0.00  0.00     0.006 C 
BRANCH   7   8
ATOM      8  C   UNL d   1      31.153  16.731 -23.994  0.00  0.00     0.070 C 
BRANCH   8   9
ATOM      9  C   UNL d   1      30.850  15.982 -24.141  0.00  0.00     0.211 C 
ATOM     10  O   UNL d   1      30.986  15.620 -24.866  0.00  0.00    -0.644 OA
ATOM     11  O   UNL d   1      30.412  15.596 -23.566  0.00  0.00    -0.644 OA
ENDBRANCH   8   9
ENDBRANCH   7   8
ENDBRANCH   1   7
BRANCH   2  12
ATOM     12  O   UNL d   1      33.241  19.793 -23.288  0.00  0.00    -0.328 OA
ATOM     13  C   UNL d   1      33.229  20.021 -22.497  0.00  0.00     0.181 C 
ENDBRANCH   2  12
TORSDOF 4
ENDMDL
MODEL 8
REMARK VINA RESULT:      -1.9      1.999      2.798
REMARK  4 active torsions:
REMARK  status: ('A' for Active; 'I' for Inactive)
REMARK    1  A    between atoms: C_2  and  C_1 
REMARK    2  A    between atoms: C_3  and  C_2 
REMARK    3  A    between atoms: C_5  and  C_3 
REMARK    4  A    between atoms: O_12  and  C_7 
ROOT
ATOM      1  C   UNL d   1      33.141  22.490 -19.706  0.00  0.00     0.000 A 
ATOM      2  C   UNL d   1      33.018  23.296 -18.271  0.00  0.00     0.094 A 
ATOM      3  C   UNL d   1      32.979  23.301 -19.698  0.00  0.00     0.002 A 
ATOM      4  C   UNL d   1      33.241  22.083 -18.993  0.00  0.00     0.002 A 
ATOM      5  C   UNL d   1      32.918  23.702 -18.984  0.00  0.00     0.024 A 
ATOM      6  C   UNL d   1      33.179  22.491 -18.275  0.00  0.00     0.024 A 
ENDROOT
BRANCH   1   7
ATOM      7  C   UNL d   1      33.201  22.092 -20.428  0.00  0.00     0.006 C 
BRANCH   7   8
ATOM      8  C   UNL d   1      32.517  21.807 -20.792  0.00  0.00     0.070 C 
BRANCH   8   9
ATOM      9  C   UNL d   1      32.577  21.316 -21.447  0.00  0.00     0.211 C 
ATOM     10  O   UNL d   1      32.685  21.642 -22.194  0.00  0.00    -0.644 OA
ATOM     11  O   UNL d   1      32.530  20.504 -21.357  0.00  0.00    -0.644 OA
ENDBRANCH   8   9
ENDBRANCH   7   8
ENDBRANCH   1   7
BRANCH   2  12
ATOM     12  O   UNL d   1      32.957  23.697 -17.557  0.00  0.00    -0.328 OA
ATOM     13  C   UNL d   1      32.785  23.285 -16.866  0.00  0.00     0.181 C 
ENDBRANCH   2  12
TORSDOF 4
ENDMDL
