MODEL 1
REMARK VINA RESULT:     101.8      0.000      0.000
REMARK  9 active torsions:
REMARK  status: ('A' for Active; 'I' for Inactive)
REMARK    1  A    between atoms: C_9  and  S_1 
REMARK    2  A    between atoms: N_12  and  S_1 
REMARK    3  A    between atoms: S_2  and  C_8 
REMARK    4  A    between atoms: N_13  and  S_2 
REMARK    5  A    between atoms: N_20  and  C_5 
REMARK    6  A    between atoms: C_23  and  N_12 
REMARK    7  A    between atoms: C_24  and  N_13 
REMARK    8  A    between atoms: C_31  and  C_23 
REMARK    9  A    between atoms: C_30  and  C_24 
ROOT
ATOM      1  C   UNL d   1      61.582  45.256  50.329  0.00  0.00     0.021 A 
ATOM      2  C   UNL d   1      61.147  46.487  50.613  0.00  0.00     0.021 A 
ATOM      3  C   UNL d   1      61.073  45.686  50.816  0.00  0.00     0.111 A 
ATOM      4  C   UNL d   1      61.700  46.545  50.003  0.00  0.00     0.002 A 
ATOM      5  C   UNL d   1      61.963  45.780  49.834  0.00  0.00     0.002 A 
ATOM      6  C   UNL d   1      60.966  47.891  50.596  0.00  0.00     0.104 A 
ATOM      7  C   UNL d   1      62.258  44.161  49.760  0.00  0.00     0.104 A 
ATOM      8  C   UNL d   1      60.775  47.159  50.915  0.00  0.00     0.015 A 
ATOM      9  C   UNL d   1      61.708  44.469  50.312  0.00  0.00     0.015 A 
ATOM     10  C   UNL d   1      62.507  45.481  49.288  0.00  0.00     0.001 A 
ATOM     11  C   UNL d   1      61.874  47.272  49.703  0.00  0.00     0.001 A 
ATOM     12  C   UNL d   1      62.639  44.684  49.266  0.00  0.00     0.013 A 
ATOM     13  C   UNL d   1      61.527  47.926  49.979  0.00  0.00     0.013 A 
ENDROOT
BRANCH   6  14
ATOM     14  S   UNL d   1      60.610  48.601  50.874  0.00  0.00     0.272 S 
ATOM     15  O   UNL d   1      61.033  48.533  51.601  0.00  0.00    -0.200 OA
ATOM     16  O   UNL d   1      60.179  48.686  50.159  0.00  0.00    -0.200 OA
BRANCH  14  17
ATOM     17  N   UNL d   1      60.268  49.305  51.174  0.00  0.00    -0.225 N 
ATOM     18  C   UNL d   1      60.611  49.697  51.838  0.00  0.00     0.111 C 
BRANCH  17  19
ATOM     19  C   UNL d   1      59.583  49.644  50.833  0.00  0.00     0.137 C 
BRANCH  19  20
ATOM     20  C   UNL d   1      58.852  49.270  50.870  0.00  0.00     0.254 C 
ATOM     21  O   UNL d   1      58.151  49.694  50.806  0.00  0.00    -0.281 OA
ENDBRANCH  19  20
ENDBRANCH  17  19
ENDBRANCH  14  17
ENDBRANCH   6  14
BRANCH   3  22
ATOM     22  N   UNL d   1      60.575  45.386  51.404  0.00  0.00    -0.096 NA
ATOM     23  O   UNL d   1      60.878  44.883  51.986  0.00  0.00    -0.061 OA
ENDBRANCH   3  22
BRANCH   7  24
ATOM     24  S   UNL d   1      62.427  43.338  49.702  0.00  0.00     0.272 S 
ATOM     25  O   UNL d   1      62.818  43.384  50.444  0.00  0.00    -0.200 OA
ATOM     26  O   UNL d   1      62.036  43.295  48.962  0.00  0.00    -0.200 OA
BRANCH  24  27
ATOM     27  N   UNL d   1      62.614  42.514  49.677  0.00  0.00    -0.225 N 
ATOM     28  C   UNL d   1      62.317  42.032  49.088  0.00  0.00     0.111 C 
BRANCH  27  29
ATOM     29  C   UNL d   1      63.114  42.205  50.275  0.00  0.00     0.137 C 
BRANCH  29  30
ATOM     30  C   UNL d   1      62.777  41.835  50.920  0.00  0.00     0.254 C 
ATOM     31  O   UNL d   1      63.158  41.844  51.662  0.00  0.00    -0.281 OA
ENDBRANCH  29  30
ENDBRANCH  27  29
ENDBRANCH  24  27
ENDBRANCH   7  24
TORSDOF 9
ENDMDL
MODEL 2
REMARK VINA RESULT:     102.0      0.381      5.662
REMARK  9 active torsions:
REMARK  status: ('A' for Active; 'I' for Inactive)
REMARK    1  A    between atoms: C_9  and  S_1 
REMARK    2  A    between atoms: N_12  and  S_1 
REMARK    3  A    between atoms: S_2  and  C_8 
REMARK    4  A    between atoms: N_13  and  S_2 
REMARK    5  A    between atoms: N_20  and  C_5 
REMARK    6  A    between atoms: C_23  and  N_12 
REMARK    7  A    between atoms: C_24  and  N_13 
REMARK    8  A    between atoms: C_31  and  C_23 
REMARK    9  A    between atoms: C_30  and  C_24 
ROOT
ATOM      1  C   UNL d   1      61.197  46.567  50.613  0.00  0.00     0.021 A 
ATOM      2  C   UNL d   1      61.621  45.323  50.370  0.00  0.00     0.021 A 
ATOM      3  C   UNL d   1      61.128  45.781  50.855  0.00  0.00     0.111 A 
ATOM      4  C   UNL d   1      61.990  45.829  49.832  0.00  0.00     0.002 A 
ATOM      5  C   UNL d   1      61.722  46.595  49.990  0.00  0.00     0.002 A 
ATOM      6  C   UNL d   1      62.295  44.214  49.805  0.00  0.00     0.104 A 
ATOM      7  C   UNL d   1      60.997  47.959  50.563  0.00  0.00     0.104 A 
ATOM      8  C   UNL d   1      61.770  44.512  50.360  0.00  0.00     0.015 A 
ATOM      9  C   UNL d   1      60.834  47.212  50.907  0.00  0.00     0.015 A 
ATOM     10  C   UNL d   1      61.887  47.329  49.647  0.00  0.00     0.001 A 
ATOM     11  C   UNL d   1      62.503  45.519  49.294  0.00  0.00     0.001 A 
ATOM     12  C   UNL d   1      61.522  47.987  49.940  0.00  0.00     0.013 A 
ATOM     13  C   UNL d   1      62.657  44.745  49.272  0.00  0.00     0.013 A 
ENDROOT
BRANCH   6  14
ATOM     14  S   UNL d   1      62.475  43.394  49.762  0.00  0.00     0.272 S 
ATOM     15  O   UNL d   1      63.152  43.511  50.251  0.00  0.00    -0.200 OA
ATOM     16  O   UNL d   1      61.807  43.255  49.273  0.00  0.00    -0.200 OA
BRANCH  14  17
ATOM     17  N   UNL d   1      62.675  42.580  49.734  0.00  0.00    -0.225 N 
ATOM     18  C   UNL d   1      62.391  42.092  49.106  0.00  0.00     0.111 C 
BRANCH  17  19
ATOM     19  C   UNL d   1      63.157  42.222  50.318  0.00  0.00     0.137 C 
BRANCH  19  20
ATOM     20  C   UNL d   1      63.050  41.440  50.544  0.00  0.00     0.254 C 
ATOM     21  O   UNL d   1      62.495  41.231  51.113  0.00  0.00    -0.281 OA
ENDBRANCH  19  20
ENDBRANCH  17  19
ENDBRANCH  14  17
ENDBRANCH   6  14
BRANCH   3  22
ATOM     22  N   UNL d   1      60.655  45.489  51.469  0.00  0.00    -0.096 NA
ATOM     23  O   UNL d   1      60.020  44.989  51.299  0.00  0.00    -0.061 OA
ENDBRANCH   3  22
BRANCH   7  24
ATOM     24  S   UNL d   1      60.639  48.671  50.836  0.00  0.00     0.272 S 
ATOM     25  O   UNL d   1      60.360  48.252  51.508  0.00  0.00    -0.200 OA
ATOM     26  O   UNL d   1      60.920  49.087  50.164  0.00  0.00    -0.200 OA
BRANCH  24  27
ATOM     27  N   UNL d   1      60.269  49.366  51.141  0.00  0.00    -0.225 N 
ATOM     28  C   UNL d   1      60.520  49.707  51.840  0.00  0.00     0.111 C 
BRANCH  27  29
ATOM     29  C   UNL d   1      59.634  49.698  50.704  0.00  0.00     0.137 C 
BRANCH  29  30
ATOM     30  C   UNL d   1      58.917  49.308  50.691  0.00  0.00     0.254 C 
ATOM     31  O   UNL d   1      58.212  49.708  50.890  0.00  0.00    -0.281 OA
ENDBRANCH  29  30
ENDBRANCH  27  29
ENDBRANCH  24  27
ENDBRANCH   7  24
TORSDOF 9
ENDMDL
