MODEL 1
REMARK VINA RESULT:      -9.3      0.000      0.000
REMARK  4 active torsions:
REMARK  status: ('A' for Active; 'I' for Inactive)
REMARK    1  A    between atoms: S_10  and  C_3 
REMARK    2  A    between atoms: C_11  and  C_7 
REMARK    3  A    between atoms: C_13  and  S_10 
REMARK    4  A    between atoms: C_14  and  C_13 
ROOT
ATOM      1  N   UNL d   1      53.082  33.030  53.675  0.00  0.00    -0.186 N 
ATOM      2  N   UNL d   1      52.892  32.244  53.554  0.00  0.00    -0.162 NA
ATOM      3  C   UNL d   1      52.645  33.726  53.568  0.00  0.00     0.217 A 
ATOM      4  C   UNL d   1      53.826  33.246  53.955  0.00  0.00     0.187 A 
ATOM      5  N   UNL d   1      53.125  34.354  53.782  0.00  0.00    -0.120 NA
ATOM      6  N   UNL d   1      53.856  34.059  54.021  0.00  0.00    -0.127 NA
ATOM      7  C   UNL d   1      53.456  31.660  53.714  0.00  0.00     0.102 A 
ATOM      8  C   UNL d   1      54.391  32.658  54.115  0.00  0.00     0.042 A 
ATOM      9  C   UNL d   1      54.205  31.872  53.995  0.00  0.00     0.024 A 
ENDROOT
BRANCH   3  10
ATOM     10  S   UNL d   1      51.869  33.795  53.297  0.00  0.00    -0.046 SA
BRANCH  10  11
ATOM     11  C   UNL d   1      51.647  34.429  52.837  0.00  0.00     0.038 C 
BRANCH  11  12
ATOM     12  C   UNL d   1      50.898  34.459  52.513  0.00  0.00     0.007 A 
ATOM     13  C   UNL d   1      50.784  34.276  51.716  0.00  0.00     0.001 A 
ATOM     14  C   UNL d   1      50.024  34.305  51.382  0.00  0.00     0.000 A 
ATOM     15  C   UNL d   1      49.378  34.516  51.839  0.00  0.00     0.000 A 
ATOM     16  C   UNL d   1      49.486  34.701  52.641  0.00  0.00     0.000 A 
ATOM     17  C   UNL d   1      48.630  34.539  51.491  0.00  0.00     0.000 C 
ATOM     18  C   UNL d   1      50.243  34.671  52.969  0.00  0.00     0.001 A 
ENDBRANCH  11  12
ENDBRANCH  10  11
ENDBRANCH   3  10
BRANCH   7  19
ATOM     19  C   UNL d   1      53.272  30.866  53.594  0.00  0.00     0.022 A 
ATOM     20  C   UNL d   1      52.947  30.622  52.877  0.00  0.00     0.022 A 
ATOM     21  C   UNL d   1      52.760  29.831  52.752  0.00  0.00     0.099 A 
ATOM     22  N   UNL d   1      52.899  29.284  53.344  0.00  0.00    -0.242 NA
ATOM     23  C   UNL d   1      53.232  29.528  54.082  0.00  0.00     0.099 A 
ATOM     24  C   UNL d   1      53.411  30.323  54.185  0.00  0.00     0.022 A 
ENDBRANCH   7  19
TORSDOF 4
ENDMDL
MODEL 2
REMARK VINA RESULT:      -8.7      1.311      4.367
REMARK  4 active torsions:
REMARK  status: ('A' for Active; 'I' for Inactive)
REMARK    1  A    between atoms: S_10  and  C_3 
REMARK    2  A    between atoms: C_11  and  C_7 
REMARK    3  A    between atoms: C_13  and  S_10 
REMARK    4  A    between atoms: C_14  and  C_13 
ROOT
ATOM      1  N   UNL d   1      53.164  33.738  54.187  0.00  0.00    -0.186 N 
ATOM      2  N   UNL d   1      52.481  33.718  53.739  0.00  0.00    -0.162 NA
ATOM      3  C   UNL d   1      53.612  33.135  54.538  0.00  0.00     0.217 A 
ATOM      4  C   UNL d   1      53.533  34.453  54.363  0.00  0.00     0.187 A 
ATOM      5  N   UNL d   1      54.243  33.488  54.921  0.00  0.00    -0.120 NA
ATOM      6  N   UNL d   1      54.196  34.303  54.814  0.00  0.00    -0.127 NA
ATOM      7  C   UNL d   1      52.157  34.426  53.459  0.00  0.00     0.102 A 
ATOM      8  C   UNL d   1      53.206  35.163  54.081  0.00  0.00     0.042 A 
ATOM      9  C   UNL d   1      52.523  35.147  53.632  0.00  0.00     0.024 A 
ENDROOT
BRANCH   3  10
ATOM     10  S   UNL d   1      53.465  32.323  54.517  0.00  0.00    -0.046 SA
BRANCH  10  11
ATOM     11  C   UNL d   1      53.892  31.839  54.022  0.00  0.00     0.038 C 
BRANCH  11  12
ATOM     12  C   UNL d   1      53.607  31.100  53.824  0.00  0.00     0.007 A 
ATOM     13  C   UNL d   1      53.626  30.486  54.377  0.00  0.00     0.001 A 
ATOM     14  C   UNL d   1      53.337  29.733  54.180  0.00  0.00     0.000 A 
ATOM     15  C   UNL d   1      53.028  29.588  53.436  0.00  0.00     0.000 A 
ATOM     16  C   UNL d   1      53.006  30.201  52.875  0.00  0.00     0.000 A 
ATOM     17  C   UNL d   1      52.746  28.834  53.258  0.00  0.00     0.000 C 
ATOM     18  C   UNL d   1      53.294  30.948  53.074  0.00  0.00     0.001 A 
ENDBRANCH  11  12
ENDBRANCH  10  11
ENDBRANCH   3  10
BRANCH   7  19
ATOM     19  C   UNL d   1      51.468  34.412  53.006  0.00  0.00     0.022 A 
ATOM     20  C   UNL d   1      50.738  34.556  53.361  0.00  0.00     0.022 A 
ATOM     21  C   UNL d   1      50.049  34.543  52.914  0.00  0.00     0.099 A 
ATOM     22  N   UNL d   1      50.088  34.388  52.113  0.00  0.00    -0.242 NA
ATOM     23  C   UNL d   1      50.834  34.240  51.742  0.00  0.00     0.099 A 
ATOM     24  C   UNL d   1      51.510  34.257  52.207  0.00  0.00     0.022 A 
ENDBRANCH   7  19
TORSDOF 4
ENDMDL
MODEL 3
REMARK VINA RESULT:      -8.6      1.096      2.547
REMARK  4 active torsions:
REMARK  status: ('A' for Active; 'I' for Inactive)
REMARK    1  A    between atoms: S_10  and  C_3 
REMARK    2  A    between atoms: C_11  and  C_7 
REMARK    3  A    between atoms: C_13  and  S_10 
REMARK    4  A    between atoms: C_14  and  C_13 
ROOT
ATOM      1  N   UNL d   1      52.793  32.515  53.302  0.00  0.00    -0.186 N 
ATOM      2  N   UNL d   1      53.251  32.963  53.809  0.00  0.00    -0.162 NA
ATOM      3  C   UNL d   1      52.059  32.661  52.947  0.00  0.00     0.217 A 
ATOM      4  C   UNL d   1      53.043  31.770  53.053  0.00  0.00     0.187 A 
ATOM      5  N   UNL d   1      51.871  32.009  52.490  0.00  0.00    -0.120 NA
ATOM      6  N   UNL d   1      52.479  31.456  52.554  0.00  0.00    -0.127 NA
ATOM      7  C   UNL d   1      53.975  32.663  54.075  0.00  0.00     0.102 A 
ATOM      8  C   UNL d   1      53.770  31.471  53.322  0.00  0.00     0.042 A 
ATOM      9  C   UNL d   1      54.231  31.915  53.829  0.00  0.00     0.024 A 
ENDROOT
BRANCH   3  10
ATOM     10  S   UNL d   1      51.587  33.334  53.026  0.00  0.00    -0.046 SA
BRANCH  10  11
ATOM     11  C   UNL d   1      51.163  33.619  52.392  0.00  0.00     0.038 C 
BRANCH  11  12
ATOM     12  C   UNL d   1      50.525  34.112  52.514  0.00  0.00     0.007 A 
ATOM     13  C   UNL d   1      49.973  34.235  51.912  0.00  0.00     0.001 A 
ATOM     14  C   UNL d   1      49.323  34.736  52.032  0.00  0.00     0.000 A 
ATOM     15  C   UNL d   1      49.218  35.117  52.749  0.00  0.00     0.000 A 
ATOM     16  C   UNL d   1      49.769  34.998  53.360  0.00  0.00     0.000 A 
ATOM     17  C   UNL d   1      48.566  35.612  52.851  0.00  0.00     0.000 C 
ATOM     18  C   UNL d   1      50.414  34.499  53.237  0.00  0.00     0.001 A 
ENDBRANCH  11  12
ENDBRANCH  10  11
ENDBRANCH   3  10
BRANCH   7  19
ATOM     19  C   UNL d   1      54.442  33.109  54.587  0.00  0.00     0.022 A 
ATOM     20  C   UNL d   1      55.072  33.551  54.293  0.00  0.00     0.022 A 
ATOM     21  C   UNL d   1      55.541  33.997  54.798  0.00  0.00     0.099 A 
ATOM     22  N   UNL d   1      55.379  34.004  55.600  0.00  0.00    -0.242 NA
ATOM     23  C   UNL d   1      54.734  33.553  55.909  0.00  0.00     0.099 A 
ATOM     24  C   UNL d   1      54.279  33.114  55.386  0.00  0.00     0.022 A 
ENDBRANCH   7  19
TORSDOF 4
ENDMDL
MODEL 4
REMARK VINA RESULT:      -7.6      2.936      6.040
REMARK  4 active torsions:
REMARK  status: ('A' for Active; 'I' for Inactive)
REMARK    1  A    between atoms: S_10  and  C_3 
REMARK    2  A    between atoms: C_11  and  C_7 
REMARK    3  A    between atoms: C_13  and  S_10 
REMARK    4  A    between atoms: C_14  and  C_13 
ROOT
ATOM      1  N   UNL d   1      48.823  35.038  52.148  0.00  0.00    -0.186 N 
ATOM      2  N   UNL d   1      48.520  35.344  52.843  0.00  0.00    -0.162 NA
ATOM      3  C   UNL d   1      49.525  34.630  51.985  0.00  0.00     0.217 A 
ATOM      4  C   UNL d   1      48.409  35.110  51.439  0.00  0.00     0.187 A 
ATOM      5  N   UNL d   1      49.532  34.460  51.184  0.00  0.00    -0.120 NA
ATOM      6  N   UNL d   1      48.842  34.756  50.845  0.00  0.00    -0.127 NA
ATOM      7  C   UNL d   1      47.788  35.730  52.832  0.00  0.00     0.102 A 
ATOM      8  C   UNL d   1      47.674  35.498  51.431  0.00  0.00     0.042 A 
ATOM      9  C   UNL d   1      47.368  35.805  52.123  0.00  0.00     0.024 A 
ENDROOT
BRANCH   3  10
ATOM     10  S   UNL d   1      50.122  34.424  52.516  0.00  0.00    -0.046 SA
BRANCH  10  11
ATOM     11  C   UNL d   1      50.853  34.188  52.246  0.00  0.00     0.038 C 
BRANCH  11  12
ATOM     12  C   UNL d   1      51.462  34.055  52.773  0.00  0.00     0.007 A 
ATOM     13  C   UNL d   1      52.006  34.654  52.938  0.00  0.00     0.001 A 
ATOM     14  C   UNL d   1      52.627  34.523  53.473  0.00  0.00     0.000 A 
ATOM     15  C   UNL d   1      52.709  33.799  53.845  0.00  0.00     0.000 A 
ATOM     16  C   UNL d   1      52.165  33.192  53.684  0.00  0.00     0.000 A 
ATOM     17  C   UNL d   1      53.332  33.686  54.374  0.00  0.00     0.000 C 
ATOM     18  C   UNL d   1      51.549  33.326  53.152  0.00  0.00     0.001 A 
ENDBRANCH  11  12
ENDBRANCH  10  11
ENDBRANCH   3  10
BRANCH   7  19
ATOM     19  C   UNL d   1      47.477  36.041  53.529  0.00  0.00     0.022 A 
ATOM     20  C   UNL d   1      46.668  35.994  53.677  0.00  0.00     0.022 A 
ATOM     21  C   UNL d   1      46.352  36.302  54.371  0.00  0.00     0.099 A 
ATOM     22  N   UNL d   1      46.846  36.658  54.917  0.00  0.00    -0.242 NA
ATOM     23  C   UNL d   1      47.677  36.709  54.771  0.00  0.00     0.099 A 
ATOM     24  C   UNL d   1      47.971  36.395  54.072  0.00  0.00     0.022 A 
ENDBRANCH   7  19
TORSDOF 4
ENDMDL
MODEL 5
REMARK VINA RESULT:      -7.0      2.012      4.562
REMARK  4 active torsions:
REMARK  status: ('A' for Active; 'I' for Inactive)
REMARK    1  A    between atoms: S_10  and  C_3 
REMARK    2  A    between atoms: C_11  and  C_7 
REMARK    3  A    between atoms: C_13  and  S_10 
REMARK    4  A    between atoms: C_14  and  C_13 
ROOT
ATOM      1  N   UNL d   1      52.891  32.798  53.209  0.00  0.00    -0.186 N 
ATOM      2  N   UNL d   1      53.508  32.903  53.734  0.00  0.00    -0.162 NA
ATOM      3  C   UNL d   1      52.618  32.129  52.804  0.00  0.00     0.217 A 
ATOM      4  C   UNL d   1      52.407  33.430  52.995  0.00  0.00     0.187 A 
ATOM      5  N   UNL d   1      51.976  32.358  52.351  0.00  0.00    -0.120 NA
ATOM      6  N   UNL d   1      51.843  33.163  52.469  0.00  0.00    -0.127 NA
ATOM      7  C   UNL d   1      53.647  33.653  54.054  0.00  0.00     0.102 A 
ATOM      8  C   UNL d   1      52.548  34.182  53.318  0.00  0.00     0.042 A 
ATOM      9  C   UNL d   1      53.164  34.291  53.843  0.00  0.00     0.024 A 
ENDROOT
BRANCH   3  10
ATOM     10  S   UNL d   1      52.924  31.363  52.836  0.00  0.00    -0.046 SA
BRANCH  10  11
ATOM     11  C   UNL d   1      52.448  30.736  53.045  0.00  0.00     0.038 C 
BRANCH  11  12
ATOM     12  C   UNL d   1      52.745  30.130  53.503  0.00  0.00     0.007 A 
ATOM     13  C   UNL d   1      52.330  29.871  54.169  0.00  0.00     0.001 A 
ATOM     14  C   UNL d   1      52.628  29.255  54.637  0.00  0.00     0.000 A 
ATOM     15  C   UNL d   1      53.339  28.894  54.447  0.00  0.00     0.000 A 
ATOM     16  C   UNL d   1      53.761  29.149  53.779  0.00  0.00     0.000 A 
ATOM     17  C   UNL d   1      53.620  28.283  54.924  0.00  0.00     0.000 C 
ATOM     18  C   UNL d   1      53.461  29.763  53.315  0.00  0.00     0.001 A 
ENDBRANCH  11  12
ENDBRANCH  10  11
ENDBRANCH   3  10
BRANCH   7  19
ATOM     19  C   UNL d   1      54.269  33.766  54.584  0.00  0.00     0.022 A 
ATOM     20  C   UNL d   1      55.016  33.974  54.306  0.00  0.00     0.022 A 
ATOM     21  C   UNL d   1      55.638  34.087  54.830  0.00  0.00     0.099 A 
ATOM     22  N   UNL d   1      55.515  33.992  55.633  0.00  0.00    -0.242 NA
ATOM     23  C   UNL d   1      54.750  33.778  55.925  0.00  0.00     0.099 A 
ATOM     24  C   UNL d   1      54.142  33.670  55.384  0.00  0.00     0.022 A 
ENDBRANCH   7  19
TORSDOF 4
ENDMDL
