MODEL 1
REMARK VINA RESULT:      77.7      0.000      0.000
REMARK  6 active torsions:
REMARK  status: ('A' for Active; 'I' for Inactive)
REMARK    1  A    between atoms: C_7  and  N_1 
REMARK    2  A    between atoms: C_6  and  C_3 
REMARK       I    between atoms: N_9  and  C_6 
REMARK    3  A    between atoms: C_19  and  N_9 
REMARK    4  A    between atoms: C_10  and  C_19 
REMARK    5  A    between atoms: O_23  and  C_20 
REMARK    6  A    between atoms: C_24  and  O_23 
ROOT
ATOM      1  N   UNL d   1      60.861  47.694  50.585  0.00  0.00    -0.276 N 
ATOM      2  C   UNL d   1      60.113  47.895  50.832  0.00  0.00     0.181 A 
ATOM      3  C   UNL d   1      60.120  48.706  50.975  0.00  0.00     0.126 A 
ATOM      4  C   UNL d   1      61.346  48.393  50.573  0.00  0.00     0.152 A 
ATOM      5  S   UNL d   1      60.868  49.021  50.820  0.00  0.00    -0.051 SA
ATOM      6  S   UNL d   1      62.151  48.441  50.355  0.00  0.00    -0.052 SA
ATOM      7  N   UNL d   1      59.480  47.386  50.919  0.00  0.00    -0.128 N 
ENDROOT
BRANCH   1   8
ATOM      8  C   UNL d   1      61.088  46.925  50.383  0.00  0.00     0.067 A 
ATOM      9  C   UNL d   1      61.575  46.804  49.746  0.00  0.00     0.020 A 
ATOM     10  C   UNL d   1      61.807  46.047  49.536  0.00  0.00     0.026 A 
ATOM     11  C   UNL d   1      61.550  45.391  49.969  0.00  0.00     0.100 A 
ATOM     12  C   UNL d   1      61.060  45.505  50.611  0.00  0.00     0.026 A 
ATOM     13  C   UNL d   1      60.826  46.279  50.821  0.00  0.00     0.020 A 
BRANCH  11  14
ATOM     14  O   UNL d   1      61.765  44.610  49.786  0.00  0.00    -0.305 OA
BRANCH  14  15
ATOM     15  C   UNL d   1      62.004  44.423  49.007  0.00  0.00     0.123 C 
ATOM     16  C   UNL d   1      62.228  43.639  48.830  0.00  0.00     0.029 C 
ENDBRANCH  14  15
ENDBRANCH  11  14
ENDBRANCH   1   8
BRANCH   3  17
ATOM     17  C   UNL d   1      59.469  49.191  51.245  0.00  0.00     0.288 C 
ATOM     18  N   UNL d   1      58.767  49.208  50.831  0.00  0.00    -0.204 NA
ATOM     19  O   UNL d   1      59.570  49.651  51.947  0.00  0.00    -0.265 OA
BRANCH  18  20
ATOM     20  C   UNL d   1      58.153  49.695  51.127  0.00  0.00     0.127 C 
BRANCH  20  21
ATOM     21  C   UNL d   1      57.374  49.629  50.788  0.00  0.00     0.119 A 
ATOM     22  O   UNL d   1      57.272  49.698  49.974  0.00  0.00    -0.304 OA
ATOM     23  C   UNL d   1      56.476  49.611  49.824  0.00  0.00     0.123 A 
ATOM     24  C   UNL d   1      56.085  49.492  50.506  0.00  0.00     0.029 A 
ATOM     25  C   UNL d   1      56.617  49.498  51.127  0.00  0.00     0.028 A 
ENDBRANCH  20  21
ENDBRANCH  18  20
ENDBRANCH   3  17
TORSDOF 6
ENDMDL
