MODEL 1
REMARK VINA RESULT:       1.0      0.000      0.000
REMARK  3 active torsions:
REMARK  status: ('A' for Active; 'I' for Inactive)
REMARK    1  A    between atoms: C_8  and  N_1 
REMARK    2  A    between atoms: C_2  and  C_7 
REMARK    3  A    between atoms: C_7  and  C_9 
ROOT
ATOM      1  N   UNL d   1      29.216  16.794 -24.414  0.00  0.00    -0.242 N 
ATOM      2  C   UNL d   1      29.265  17.625 -24.471  0.00  0.00     0.267 A 
ATOM      3  C   UNL d   1      29.980  16.492 -24.511  0.00  0.00     0.267 A 
ATOM      4  C   UNL d   1      30.500  17.126 -24.627  0.00  0.00     0.062 A 
ATOM      5  C   UNL d   1      30.059  17.825 -24.603  0.00  0.00     0.066 A 
ATOM      6  O   UNL d   1      28.634  18.146 -24.407  0.00  0.00    -0.267 OA
ATOM      7  O   UNL d   1      30.184  15.690 -24.494  0.00  0.00    -0.267 OA
ENDROOT
BRANCH   4   8
ATOM      8  C   UNL d   1      31.314  17.069 -24.746  0.00  0.00     0.018 C 
BRANCH   8   9
ATOM      9  C   UNL d   1      31.747  17.586 -24.281  0.00  0.00     0.045 A 
ATOM     10  N   UNL d   1      31.885  18.381 -24.437  0.00  0.00    -0.308 N 
ATOM     11  C   UNL d   1      32.342  18.692 -23.832  0.00  0.00     0.060 A 
ATOM     12  C   UNL d   1      31.608  18.796 -25.097  0.00  0.00     0.099 C 
ATOM     13  C   UNL d   1      32.642  19.443 -23.700  0.00  0.00     0.017 A 
ATOM     14  C   UNL d   1      32.490  18.089 -23.294  0.00  0.00    -0.002 A 
ATOM     15  C   UNL d   1      33.095  19.596 -23.023  0.00  0.00     0.002 A 
ATOM     16  C   UNL d   1      33.241  18.984 -22.486  0.00  0.00    -0.000 A 
ATOM     17  C   UNL d   1      32.941  18.237 -22.619  0.00  0.00    -0.003 A 
ATOM     18  C   UNL d   1      32.122  17.403 -23.571  0.00  0.00     0.054 A 
ATOM     19  C   UNL d   1      32.539  17.351 -22.856  0.00  0.00     0.010 C 
ATOM     20  C   UNL d   1      32.157  16.681 -23.162  0.00  0.00     0.010 C 
ENDBRANCH   8   9
ENDBRANCH   4   8
BRANCH   1  21
ATOM     21  C   UNL d   1      28.538  16.355 -24.286  0.00  0.00     0.070 A 
ATOM     22  C   UNL d   1      28.325  16.124 -23.518  0.00  0.00     0.016 A 
ATOM     23  C   UNL d   1      27.639  15.682 -23.399  0.00  0.00     0.001 A 
ATOM     24  C   UNL d   1      28.792  16.333 -22.883  0.00  0.00     0.001 A 
ATOM     25  C   UNL d   1      27.429  15.453 -22.639  0.00  0.00     0.000 A 
ATOM     26  C   UNL d   1      27.167  15.470 -24.036  0.00  0.00     0.000 A 
ATOM     27  C   UNL d   1      27.895  15.660 -21.999  0.00  0.00     0.000 A 
ATOM     28  C   UNL d   1      28.582  16.104 -22.123  0.00  0.00     0.000 A 
ATOM     29  C   UNL d   1      27.380  15.701 -24.803  0.00  0.00     0.002 A 
ATOM     30  C   UNL d   1      28.063  16.143 -24.930  0.00  0.00     0.018 A 
ENDBRANCH   1  21
TORSDOF 3
ENDMDL
