MODEL 1
REMARK VINA RESULT:      -8.6      0.000      0.000
REMARK  3 active torsions:
REMARK  status: ('A' for Active; 'I' for Inactive)
REMARK    1  A    between atoms: N_9  and  C_7 
REMARK       I    between atoms: C_10  and  N_9 
REMARK    2  A    between atoms: C_13  and  C_10 
REMARK    3  A    between atoms: O_23  and  C_18 
ROOT
ATOM      1  C   UNL d   1     -49.883  12.953  23.246  0.00  0.00     0.081 A 
ATOM      2  C   UNL d   1     -50.647  12.932  23.539  0.00  0.00     0.301 A 
ATOM      3  C   UNL d   1     -49.499  13.666  23.099  0.00  0.00     0.090 A 
ATOM      4  O   UNL d   1     -51.044  13.649  23.691  0.00  0.00    -0.273 OA
ATOM      5  N   UNL d   1     -48.727  13.675  22.804  0.00  0.00    -0.226 NA
ATOM      6  C   UNL d   1     -49.895  14.374  23.251  0.00  0.00     0.041 A 
ATOM      7  C   UNL d   1     -48.338  12.955  22.655  0.00  0.00     0.166 A 
ATOM      8  C   UNL d   1     -49.489  12.238  23.095  0.00  0.00     0.010 A 
ATOM      9  C   UNL d   1     -50.668  14.369  23.547  0.00  0.00     0.105 A 
ATOM     10  C   UNL d   1     -48.717  12.238  22.800  0.00  0.00     0.039 A 
ATOM     11  O   UNL d   1     -51.030  12.212  23.686  0.00  0.00    -0.259 OA
ATOM     12  C   UNL d   1     -49.516  15.095  23.106  0.00  0.00     0.004 A 
ATOM     13  C   UNL d   1     -49.876  11.525  23.244  0.00  0.00     0.000 C 
ATOM     14  C   UNL d   1     -51.061  15.069  23.698  0.00  0.00     0.025 A 
ATOM     15  C   UNL d   1     -49.916  15.798  23.260  0.00  0.00     0.000 A 
ATOM     16  C   UNL d   1     -50.689  15.785  23.556  0.00  0.00     0.002 A 
ENDROOT
BRANCH   7  17
ATOM     17  N   UNL d   1     -47.557  12.960  22.355  0.00  0.00    -0.189 NA
ATOM     18  C   UNL d   1     -46.920  12.963  22.877  0.00  0.00     0.281 C 
ATOM     19  O   UNL d   1     -47.055  12.960  23.698  0.00  0.00    -0.265 OA
BRANCH  18  20
ATOM     20  C   UNL d   1     -46.159  12.968  22.590  0.00  0.00     0.058 A 
ATOM     21  C   UNL d   1     -45.848  13.655  22.233  0.00  0.00     0.007 A 
ATOM     22  C   UNL d   1     -45.075  13.661  21.941  0.00  0.00     0.024 A 
ATOM     23  C   UNL d   1     -44.625  12.968  22.015  0.00  0.00     0.094 A 
ATOM     24  C   UNL d   1     -44.928  12.291  22.366  0.00  0.00     0.024 A 
ATOM     25  C   UNL d   1     -45.696  12.297  22.651  0.00  0.00     0.007 A 
BRANCH  23  26
ATOM     26  O   UNL d   1     -43.841  12.961  21.724  0.00  0.00    -0.328 OA
ATOM     27  C   UNL d   1     -43.370  12.284  21.773  0.00  0.00     0.181 C 
ENDBRANCH  23  26
ENDBRANCH  18  20
ENDBRANCH   7  17
TORSDOF 3
ENDMDL
MODEL 2
REMARK VINA RESULT:      -6.8      1.018      1.513
REMARK  3 active torsions:
REMARK  status: ('A' for Active; 'I' for Inactive)
REMARK    1  A    between atoms: N_9  and  C_7 
REMARK       I    between atoms: C_10  and  N_9 
REMARK    2  A    between atoms: C_13  and  C_10 
REMARK    3  A    between atoms: O_23  and  C_18 
ROOT
ATOM      1  C   UNL d   1     -48.579  12.807  23.319  0.00  0.00     0.081 A 
ATOM      2  C   UNL d   1     -49.388  12.796  23.447  0.00  0.00     0.301 A 
ATOM      3  C   UNL d   1     -48.193  13.489  23.070  0.00  0.00     0.090 A 
ATOM      4  O   UNL d   1     -49.828  13.492  23.321  0.00  0.00    -0.273 OA
ATOM      5  N   UNL d   1     -47.375  13.487  22.945  0.00  0.00    -0.226 NA
ATOM      6  C   UNL d   1     -48.632  14.177  22.946  0.00  0.00     0.041 A 
ATOM      7  C   UNL d   1     -46.944  12.787  23.073  0.00  0.00     0.166 A 
ATOM      8  C   UNL d   1     -48.143  12.112  23.446  0.00  0.00     0.010 A 
ATOM      9  C   UNL d   1     -49.451  14.182  23.071  0.00  0.00     0.105 A 
ATOM     10  C   UNL d   1     -47.325  12.102  23.323  0.00  0.00     0.039 A 
ATOM     11  O   UNL d   1     -49.773  12.107  23.698  0.00  0.00    -0.259 OA
ATOM     12  C   UNL d   1     -48.251  14.866  22.696  0.00  0.00     0.004 A 
ATOM     13  C   UNL d   1     -48.533  11.430  23.696  0.00  0.00     0.000 C 
ATOM     14  C   UNL d   1     -49.885  14.861  22.948  0.00  0.00     0.025 A 
ATOM     15  C   UNL d   1     -48.694  15.550  22.574  0.00  0.00     0.000 A 
ATOM     16  C   UNL d   1     -49.512  15.547  22.700  0.00  0.00     0.002 A 
ENDROOT
BRANCH   7  17
ATOM     17  N   UNL d   1     -46.117  12.782  22.948  0.00  0.00    -0.189 NA
ATOM     18  C   UNL d   1     -45.820  12.639  22.193  0.00  0.00     0.281 C 
ATOM     19  O   UNL d   1     -46.341  12.501  21.560  0.00  0.00    -0.265 OA
BRANCH  18  20
ATOM     20  C   UNL d   1     -45.016  12.633  22.067  0.00  0.00     0.058 A 
ATOM     21  C   UNL d   1     -44.537  12.053  22.429  0.00  0.00     0.007 A 
ATOM     22  C   UNL d   1     -43.720  12.046  22.301  0.00  0.00     0.024 A 
ATOM     23  C   UNL d   1     -43.399  12.630  21.806  0.00  0.00     0.094 A 
ATOM     24  C   UNL d   1     -43.867  13.201  21.449  0.00  0.00     0.024 A 
ATOM     25  C   UNL d   1     -44.675  13.197  21.584  0.00  0.00     0.007 A 
BRANCH  23  26
ATOM     26  O   UNL d   1     -42.574  12.634  21.669  0.00  0.00    -0.328 OA
ATOM     27  C   UNL d   1     -42.227  13.176  21.150  0.00  0.00     0.181 C 
ENDBRANCH  23  26
ENDBRANCH  18  20
ENDBRANCH   7  17
TORSDOF 3
ENDMDL
MODEL 3
REMARK VINA RESULT:      -6.0      9.209     10.341
REMARK  3 active torsions:
REMARK  status: ('A' for Active; 'I' for Inactive)
REMARK    1  A    between atoms: N_9  and  C_7 
REMARK       I    between atoms: C_10  and  N_9 
REMARK    2  A    between atoms: C_13  and  C_10 
REMARK    3  A    between atoms: O_23  and  C_18 
ROOT
ATOM      1  C   UNL d   1     -39.231  14.595  17.210  0.00  0.00     0.081 A 
ATOM      2  C   UNL d   1     -39.252  14.750  16.406  0.00  0.00     0.301 A 
ATOM      3  C   UNL d   1     -39.855  14.804  17.704  0.00  0.00     0.090 A 
ATOM      4  O   UNL d   1     -39.921  15.126  16.083  0.00  0.00    -0.273 OA
ATOM      5  N   UNL d   1     -39.822  14.643  18.514  0.00  0.00    -0.226 NA
ATOM      6  C   UNL d   1     -40.516  15.177  17.379  0.00  0.00     0.041 A 
ATOM      7  C   UNL d   1     -39.150  14.267  18.829  0.00  0.00     0.166 A 
ATOM      8  C   UNL d   1     -38.563  14.220  17.530  0.00  0.00     0.010 A 
ATOM      9  C   UNL d   1     -40.552  15.340  16.568  0.00  0.00     0.105 A 
ATOM     10  C   UNL d   1     -38.522  14.055  18.340  0.00  0.00     0.039 A 
ATOM     11  O   UNL d   1     -38.621  14.537  15.912  0.00  0.00    -0.259 OA
ATOM     12  C   UNL d   1     -41.147  15.391  17.869  0.00  0.00     0.004 A 
ATOM     13  C   UNL d   1     -37.940  14.012  17.033  0.00  0.00     0.000 C 
ATOM     14  C   UNL d   1     -41.205  15.709  16.247  0.00  0.00     0.025 A 
ATOM     15  C   UNL d   1     -41.804  15.763  17.540  0.00  0.00     0.000 A 
ATOM     16  C   UNL d   1     -41.833  15.922  16.728  0.00  0.00     0.002 A 
ENDROOT
BRANCH   7  17
ATOM     17  N   UNL d   1     -39.114  14.102  19.648  0.00  0.00    -0.189 NA
ATOM     18  C   UNL d   1     -38.768  14.648  20.158  0.00  0.00     0.281 C 
ATOM     19  O   UNL d   1     -38.457  15.359  19.859  0.00  0.00    -0.265 OA
BRANCH  18  20
ATOM     20  C   UNL d   1     -38.730  14.492  20.956  0.00  0.00     0.058 A 
ATOM     21  C   UNL d   1     -38.419  13.767  21.229  0.00  0.00     0.007 A 
ATOM     22  C   UNL d   1     -38.381  13.608  22.040  0.00  0.00     0.024 A 
ATOM     23  C   UNL d   1     -38.659  14.187  22.564  0.00  0.00     0.094 A 
ATOM     24  C   UNL d   1     -38.966  14.900  22.299  0.00  0.00     0.024 A 
ATOM     25  C   UNL d   1     -38.998  15.046  21.493  0.00  0.00     0.007 A 
BRANCH  23  26
ATOM     26  O   UNL d   1     -38.626  14.038  23.386  0.00  0.00    -0.328 OA
ATOM     27  C   UNL d   1     -38.415  13.295  23.680  0.00  0.00     0.181 C 
ENDBRANCH  23  26
ENDBRANCH  18  20
ENDBRANCH   7  17
TORSDOF 3
ENDMDL
