MODEL 1
REMARK VINA RESULT:       5.7      0.000      0.000
REMARK  3 active torsions:
REMARK  status: ('A' for Active; 'I' for Inactive)
REMARK       I    between atoms: C_3  and  N_1 
REMARK    1  A    between atoms: C_5  and  C_3 
REMARK    2  A    between atoms: C_9  and  C_4 
REMARK    3  A    between atoms: C_14  and  C_6 
ROOT
ATOM      1  N   UNL d   1     -41.626-122.179 -51.824  0.00  0.00    -0.193 N 
ATOM      2  N   UNL d   1     -41.483-121.472 -52.243  0.00  0.00    -0.162 NA
ATOM      3  C   UNL d   1     -41.692-122.914 -52.184  0.00  0.00     0.303 C 
ATOM      4  C   UNL d   1     -41.454-120.855 -51.688  0.00  0.00     0.109 A 
ATOM      5  C   UNL d   1     -41.681-121.977 -51.021  0.00  0.00     0.088 A 
ATOM      6  C   UNL d   1     -41.576-121.168 -50.933  0.00  0.00     0.041 A 
ATOM      7  O   UNL d   1     -41.837-123.610 -51.730  0.00  0.00    -0.263 OA
ENDROOT
BRANCH   3   8
ATOM      8  C   UNL d   1     -41.623-123.001 -52.975  0.00  0.00     0.158 A 
ATOM      9  O   UNL d   1     -41.980-122.514 -53.552  0.00  0.00    -0.296 OA
ATOM     10  C   UNL d   1     -41.764-122.799 -54.294  0.00  0.00     0.134 A 
ATOM     11 BR   UNL d   1     -42.006-122.466 -55.038  0.00  0.00    -0.022 Br
ATOM     12  C   UNL d   1     -41.288-123.442 -54.182  0.00  0.00     0.034 A 
ATOM     13  C   UNL d   1     -41.195-123.573 -53.386  0.00  0.00     0.032 A 
ENDBRANCH   3   8
BRANCH   5  14
ATOM     14  C   UNL d   1     -41.747-122.239 -50.731  0.00  0.00     0.018 A 
ATOM     15  C   UNL d   1     -41.161-122.711 -50.394  0.00  0.00     0.002 A 
ATOM     16  C   UNL d   1     -41.374-123.228 -49.802  0.00  0.00     0.000 A 
ATOM     17  C   UNL d   1     -42.134-123.302 -49.527  0.00  0.00     0.000 A 
ATOM     18  C   UNL d   1     -42.721-122.830 -49.864  0.00  0.00     0.000 A 
ATOM     19  C   UNL d   1     -42.346-123.817 -48.936  0.00  0.00     0.000 C 
ATOM     20  C   UNL d   1     -42.529-122.299 -50.466  0.00  0.00     0.002 A 
ENDBRANCH   5  14
BRANCH   4  21
ATOM     21  C   UNL d   1     -41.325-120.056 -51.849  0.00  0.00     0.049 A 
ATOM     22  S   UNL d   1     -41.252-119.494 -51.270  0.00  0.00    -0.085 SA
ATOM     23  C   UNL d   1     -41.128-118.764 -51.673  0.00  0.00     0.035 A 
ATOM     24  C   UNL d   1     -41.128-118.897 -52.487  0.00  0.00     0.007 A 
ATOM     25  C   UNL d   1     -41.252-119.707 -52.575  0.00  0.00     0.009 A 
ENDBRANCH   4  21
TORSDOF 3
ENDMDL
MODEL 2
REMARK VINA RESULT:       7.0      1.452      3.121
REMARK  3 active torsions:
REMARK  status: ('A' for Active; 'I' for Inactive)
REMARK       I    between atoms: C_3  and  N_1 
REMARK    1  A    between atoms: C_5  and  C_3 
REMARK    2  A    between atoms: C_9  and  C_4 
REMARK    3  A    between atoms: C_14  and  C_6 
ROOT
ATOM      1  N   UNL d   1     -41.667-122.312 -52.169  0.00  0.00    -0.193 N 
ATOM      2  N   UNL d   1     -41.560-121.676 -51.640  0.00  0.00    -0.162 NA
ATOM      3  C   UNL d   1     -41.796-123.086 -51.928  0.00  0.00     0.303 C 
ATOM      4  C   UNL d   1     -41.447-120.990 -52.094  0.00  0.00     0.109 A 
ATOM      5  C   UNL d   1     -41.617-121.999 -52.936  0.00  0.00     0.088 A 
ATOM      6  C   UNL d   1     -41.483-121.190 -52.895  0.00  0.00     0.041 A 
ATOM      7  O   UNL d   1     -41.900-123.706 -52.490  0.00  0.00    -0.263 OA
ENDROOT
BRANCH   3   8
ATOM      8  C   UNL d   1     -41.827-123.284 -51.154  0.00  0.00     0.158 A 
ATOM      9  O   UNL d   1     -42.421-123.053 -50.616  0.00  0.00    -0.296 OA
ATOM     10  C   UNL d   1     -42.239-123.377 -49.882  0.00  0.00     0.134 A 
ATOM     11 BR   UNL d   1     -42.698-123.281 -49.173  0.00  0.00    -0.022 Br
ATOM     12  C   UNL d   1     -41.553-123.797 -49.961  0.00  0.00     0.034 A 
ATOM     13  C   UNL d   1     -41.294-123.747 -50.729  0.00  0.00     0.032 A 
ENDBRANCH   3   8
BRANCH   5  14
ATOM     14  C   UNL d   1     -41.654-122.215 -53.266  0.00  0.00     0.018 A 
ATOM     15  C   UNL d   1     -41.152-122.839 -53.466  0.00  0.00     0.002 A 
ATOM     16  C   UNL d   1     -41.290-123.238 -54.161  0.00  0.00     0.000 A 
ATOM     17  C   UNL d   1     -41.897-123.054 -54.668  0.00  0.00     0.000 A 
ATOM     18  C   UNL d   1     -42.399-122.430 -54.468  0.00  0.00     0.000 A 
ATOM     19  C   UNL d   1     -42.035-123.453 -55.362  0.00  0.00     0.000 C 
ATOM     20  C   UNL d   1     -42.279-122.011 -53.769  0.00  0.00     0.002 A 
ENDBRANCH   5  14
BRANCH   4  21
ATOM     21  C   UNL d   1     -41.319-120.227 -51.806  0.00  0.00     0.049 A 
ATOM     22  S   UNL d   1     -41.250-119.578 -52.288  0.00  0.00    -0.085 SA
ATOM     23  C   UNL d   1     -41.126-118.923 -51.773  0.00  0.00     0.035 A 
ATOM     24  C   UNL d   1     -41.123-119.185 -50.991  0.00  0.00     0.007 A 
ATOM     25  C   UNL d   1     -41.245-119.999 -51.034  0.00  0.00     0.009 A 
ENDBRANCH   4  21
TORSDOF 3
ENDMDL
MODEL 3
REMARK VINA RESULT:       8.1      1.563      3.774
REMARK  3 active torsions:
REMARK  status: ('A' for Active; 'I' for Inactive)
REMARK       I    between atoms: C_3  and  N_1 
REMARK    1  A    between atoms: C_5  and  C_3 
REMARK    2  A    between atoms: C_9  and  C_4 
REMARK    3  A    between atoms: C_14  and  C_6 
ROOT
ATOM      1  N   UNL d   1     -41.680-121.982 -52.090  0.00  0.00    -0.193 N 
ATOM      2  N   UNL d   1     -41.841-121.987 -51.272  0.00  0.00    -0.162 NA
ATOM      3  C   UNL d   1     -41.429-121.315 -52.498  0.00  0.00     0.303 C 
ATOM      4  C   UNL d   1     -42.077-122.757 -51.070  0.00  0.00     0.109 A 
ATOM      5  C   UNL d   1     -41.822-122.750 -52.370  0.00  0.00     0.088 A 
ATOM      6  C   UNL d   1     -42.065-123.228 -51.749  0.00  0.00     0.041 A 
ATOM      7  O   UNL d   1     -41.275-121.344 -53.327  0.00  0.00    -0.263 OA
ENDROOT
BRANCH   3   8
ATOM      8  C   UNL d   1     -41.322-120.614 -52.130  0.00  0.00     0.158 A 
ATOM      9  O   UNL d   1     -41.303-119.867 -52.501  0.00  0.00    -0.296 OA
ATOM     10  C   UNL d   1     -41.180-119.297 -51.920  0.00  0.00     0.134 A 
ATOM     11 BR   UNL d   1     -41.124-118.459 -52.055  0.00  0.00    -0.022 Br
ATOM     12  C   UNL d   1     -41.124-119.678 -51.210  0.00  0.00     0.034 A 
ATOM     13  C   UNL d   1     -41.209-120.477 -51.325  0.00  0.00     0.032 A 
ENDBRANCH   3   8
BRANCH   5  14
ATOM     14  C   UNL d   1     -41.776-122.860 -52.748  0.00  0.00     0.018 A 
ATOM     15  C   UNL d   1     -42.165-122.501 -53.381  0.00  0.00     0.002 A 
ATOM     16  C   UNL d   1     -42.020-122.781 -54.132  0.00  0.00     0.000 A 
ATOM     17  C   UNL d   1     -41.513-123.395 -54.288  0.00  0.00     0.000 A 
ATOM     18  C   UNL d   1     -41.124-123.754 -53.655  0.00  0.00     0.000 A 
ATOM     19  C   UNL d   1     -41.369-123.674 -55.038  0.00  0.00     0.000 C 
ATOM     20  C   UNL d   1     -41.255-123.487 -52.886  0.00  0.00     0.002 A 
ENDBRANCH   5  14
BRANCH   4  21
ATOM     21  C   UNL d   1     -42.292-123.023 -50.318  0.00  0.00     0.049 A 
ATOM     22  S   UNL d   1     -41.753-123.276 -49.768  0.00  0.00    -0.085 SA
ATOM     23  C   UNL d   1     -42.204-123.495 -49.090  0.00  0.00     0.035 A 
ATOM     24  C   UNL d   1     -43.005-123.371 -49.242  0.00  0.00     0.007 A 
ATOM     25  C   UNL d   1     -43.038-123.078 -50.012  0.00  0.00     0.009 A 
ENDBRANCH   4  21
TORSDOF 3
ENDMDL
