MODEL 1
REMARK VINA RESULT:       1.5      0.000      0.000
REMARK  6 active torsions:
REMARK  status: ('A' for Active; 'I' for Inactive)
REMARK    1  A    between atoms: C_5  and  N_1 
REMARK    2  A    between atoms: C_8  and  C_3 
REMARK    3  A    between atoms: C_7  and  C_4 
REMARK    4  A    between atoms: N_12  and  C_5 
REMARK    5  A    between atoms: N_11  and  C_10 
REMARK    6  A    between atoms: O_22  and  C_19 
ROOT
ATOM      1  N   UNL d   1     -41.482-121.786 -51.418  0.00  0.00    -0.203 N 
ATOM      2  N   UNL d   1     -41.548-121.869 -50.609  0.00  0.00    -0.163 NA
ATOM      3  C   UNL d   1     -41.772-122.654 -50.467  0.00  0.00     0.103 A 
ATOM      4  C   UNL d   1     -41.663-122.515 -51.771  0.00  0.00     0.087 A 
ATOM      5  C   UNL d   1     -41.843-123.056 -51.193  0.00  0.00     0.040 A 
ENDROOT
BRANCH   4   6
ATOM      6  C   UNL d   1     -41.669-122.699 -52.575  0.00  0.00     0.018 A 
ATOM      7  C   UNL d   1     -41.322-123.396 -52.846  0.00  0.00     0.003 A 
ATOM      8  C   UNL d   1     -41.329-123.579 -53.651  0.00  0.00     0.018 A 
ATOM      9  C   UNL d   1     -41.683-123.067 -54.184  0.00  0.00     0.064 A 
ATOM     10  C   UNL d   1     -42.035-122.367 -53.926  0.00  0.00     0.018 A 
ATOM     11  C   UNL d   1     -42.024-122.188 -53.117  0.00  0.00     0.003 A 
BRANCH   9  12
ATOM     12  N   UNL d   1     -41.681-123.265 -54.978  0.00  0.00    -0.301 N 
ATOM     13  C   UNL d   1     -42.236-122.925 -55.495  0.00  0.00     0.100 C 
ATOM     14  C   UNL d   1     -41.129-123.801 -55.268  0.00  0.00     0.100 C 
ENDBRANCH   9  12
ENDBRANCH   4   6
BRANCH   1  15
ATOM     15  C   UNL d   1     -41.263-121.066 -51.800  0.00  0.00     0.222 C 
ATOM     16  S   UNL d   1     -41.184-121.037 -52.630  0.00  0.00    -0.037 SA
BRANCH  15  17
ATOM     17  N   UNL d   1     -41.123-120.366 -51.335  0.00  0.00    -0.214 NA
ATOM     18  C   UNL d   1     -41.128-119.609 -51.715  0.00  0.00     0.122 C 
ENDBRANCH  15  17
ENDBRANCH   1  15
BRANCH   3  19
ATOM     19  C   UNL d   1     -41.889-122.933 -49.717  0.00  0.00     0.019 A 
ATOM     20  C   UNL d   1     -41.285-122.929 -49.164  0.00  0.00     0.004 A 
ATOM     21  C   UNL d   1     -41.421-123.217 -48.403  0.00  0.00     0.024 A 
ATOM     22  C   UNL d   1     -42.163-123.513 -48.185  0.00  0.00     0.094 A 
ATOM     23  C   UNL d   1     -42.768-123.517 -48.738  0.00  0.00     0.024 A 
ATOM     24  C   UNL d   1     -42.627-123.229 -49.495  0.00  0.00     0.004 A 
BRANCH  22  25
ATOM     25  O   UNL d   1     -42.295-123.804 -47.412  0.00  0.00    -0.328 OA
ATOM     26  C   UNL d   1     -42.145-123.314 -46.757  0.00  0.00     0.181 C 
ENDBRANCH  22  25
ENDBRANCH   3  19
TORSDOF 6
ENDMDL
MODEL 2
REMARK VINA RESULT:       1.5      2.180      5.104
REMARK  6 active torsions:
REMARK  status: ('A' for Active; 'I' for Inactive)
REMARK    1  A    between atoms: C_5  and  N_1 
REMARK    2  A    between atoms: C_8  and  C_3 
REMARK    3  A    between atoms: C_7  and  C_4 
REMARK    4  A    between atoms: N_12  and  C_5 
REMARK    5  A    between atoms: N_11  and  C_10 
REMARK    6  A    between atoms: O_22  and  C_19 
ROOT
ATOM      1  N   UNL d   1     -42.964-122.526 -50.691  0.00  0.00    -0.203 N 
ATOM      2  N   UNL d   1     -42.918-122.481 -51.505  0.00  0.00    -0.163 NA
ATOM      3  C   UNL d   1     -42.124-122.606 -51.706  0.00  0.00     0.103 A 
ATOM      4  C   UNL d   1     -42.204-122.677 -50.394  0.00  0.00     0.087 A 
ATOM      5  C   UNL d   1     -41.680-122.728 -51.012  0.00  0.00     0.040 A 
ENDROOT
BRANCH   4   6
ATOM      6  C   UNL d   1     -41.978-122.767 -49.606  0.00  0.00     0.018 A 
ATOM      7  C   UNL d   1     -42.153-123.462 -49.199  0.00  0.00     0.003 A 
ATOM      8  C   UNL d   1     -41.927-123.552 -48.410  0.00  0.00     0.018 A 
ATOM      9  C   UNL d   1     -41.526-122.947 -48.028  0.00  0.00     0.064 A 
ATOM     10  C   UNL d   1     -41.345-122.246 -48.425  0.00  0.00     0.018 A 
ATOM     11  C   UNL d   1     -41.575-122.163 -49.216  0.00  0.00     0.003 A 
BRANCH   9  12
ATOM     12  N   UNL d   1     -41.310-123.053 -47.247  0.00  0.00    -0.301 N 
ATOM     13  C   UNL d   1     -41.175-123.817 -46.951  0.00  0.00     0.100 C 
ATOM     14  C   UNL d   1     -41.225-122.402 -46.751  0.00  0.00     0.100 C 
ENDBRANCH   9  12
ENDBRANCH   4   6
BRANCH   1  15
ATOM     15  C   UNL d   1     -43.681-122.429 -50.256  0.00  0.00     0.222 C 
ATOM     16  S   UNL d   1     -44.085-123.096 -49.959  0.00  0.00    -0.037 SA
BRANCH  15  17
ATOM     17  N   UNL d   1     -43.992-121.648 -50.119  0.00  0.00    -0.214 NA
ATOM     18  C   UNL d   1     -44.808-121.558 -49.912  0.00  0.00     0.122 C 
ENDBRANCH  15  17
ENDBRANCH   1  15
BRANCH   3  19
ATOM     19  C   UNL d   1     -41.875-122.599 -52.475  0.00  0.00     0.019 A 
ATOM     20  C   UNL d   1     -41.376-123.182 -52.764  0.00  0.00     0.004 A 
ATOM     21  C   UNL d   1     -41.131-123.161 -53.552  0.00  0.00     0.024 A 
ATOM     22  C   UNL d   1     -41.381-122.557 -54.061  0.00  0.00     0.094 A 
ATOM     23  C   UNL d   1     -41.880-121.975 -53.772  0.00  0.00     0.024 A 
ATOM     24  C   UNL d   1     -42.121-122.000 -52.986  0.00  0.00     0.004 A 
BRANCH  22  25
ATOM     25  O   UNL d   1     -41.130-122.541 -54.858  0.00  0.00    -0.328 OA
ATOM     26  C   UNL d   1     -41.694-122.556 -55.468  0.00  0.00     0.181 C 
ENDBRANCH  22  25
ENDBRANCH   3  19
TORSDOF 6
ENDMDL
