MODEL 1
REMARK VINA RESULT:     105.8      0.000      0.000
REMARK  5 active torsions:
REMARK  status: ('A' for Active; 'I' for Inactive)
REMARK       I    between atoms: C_2  and  N_1 
REMARK    1  A    between atoms: C_10  and  C_2 
REMARK    2  A    between atoms: C_7  and  C_3 
REMARK       I    between atoms: C_5  and  N_8 
REMARK    3  A    between atoms: C_15  and  C_5 
REMARK    4  A    between atoms: N_8  and  C_7 
REMARK    5  A    between atoms: N_9  and  C_10 
ROOT
ATOM      1  N   UNL d   1     -54.719-100.600 -42.868  0.00  0.00    -0.271 N 
ATOM      2  C   UNL d   1     -54.717-101.222 -42.314  0.00  0.00     0.282 C 
ATOM      3  C   UNL d   1     -54.717-100.793 -43.667  0.00  0.00     0.086 A 
ATOM      4  C   UNL d   1     -54.718-100.212 -44.219  0.00  0.00     0.018 A 
ATOM      5  C   UNL d   1     -54.722 -99.789 -42.635  0.00  0.00     0.083 A 
ATOM      6  C   UNL d   1     -54.721 -99.424 -43.993  0.00  0.00     0.003 A 
ATOM      7  O   UNL d   1     -54.714-102.012 -42.541  0.00  0.00    -0.265 OA
ATOM      8  C   UNL d   1     -54.724 -99.209 -43.212  0.00  0.00     0.019 A 
ATOM      9  C   UNL d   1     -54.716-100.403 -45.026  0.00  0.00     0.002 A 
ATOM     10  C   UNL d   1     -54.723 -98.819 -44.571  0.00  0.00     0.000 A 
ATOM     11  C   UNL d   1     -54.717 -99.815 -45.601  0.00  0.00     0.000 A 
ATOM     12  C   UNL d   1     -54.721 -99.004 -45.368  0.00  0.00     0.000 A 
ENDROOT
BRANCH   3  13
ATOM     13  C   UNL d   1     -54.714-101.586 -43.895  0.00  0.00     0.120 C 
BRANCH  13  14
ATOM     14  N   UNL d   1     -54.718-101.783 -44.696  0.00  0.00    -0.205 NA
ATOM     15  C   UNL d   1     -55.409-102.113 -45.041  0.00  0.00     0.279 C 
ATOM     16  O   UNL d   1     -55.428-102.313 -45.837  0.00  0.00    -0.265 OA
BRANCH  15  17
ATOM     17  C   UNL d   1     -56.062-102.230 -44.570  0.00  0.00     0.058 A 
ATOM     18  C   UNL d   1     -56.028-102.630 -43.865  0.00  0.00     0.005 A 
ATOM     19  C   UNL d   1     -56.686-102.752 -43.385  0.00  0.00     0.000 A 
ATOM     20  C   UNL d   1     -57.429-102.445 -43.641  0.00  0.00     0.000 A 
ATOM     21  C   UNL d   1     -57.472-102.033 -44.363  0.00  0.00     0.000 A 
ATOM     22  C   UNL d   1     -56.800-101.936 -44.805  0.00  0.00     0.005 A 
ENDBRANCH  15  17
ENDBRANCH  13  14
ENDBRANCH   3  13
BRANCH   2  23
ATOM     23  C   UNL d   1     -54.719-101.058 -41.488  0.00  0.00     0.142 C 
BRANCH  23  24
ATOM     24  N   UNL d   1     -54.992-101.642 -40.973  0.00  0.00    -0.295 N 
ATOM     25  C   UNL d   1     -55.462-102.253 -41.277  0.00  0.00     0.107 A 
ATOM     26  C   UNL d   1     -55.751-102.856 -40.780  0.00  0.00     0.142 A 
ATOM     27  O   UNL d   1     -55.558-102.831 -39.978  0.00  0.00    -0.300 OA
ATOM     28  C   UNL d   1     -55.083-102.219 -39.657  0.00  0.00     0.142 A 
ATOM     29  C   UNL d   1     -54.801-101.623 -40.165  0.00  0.00     0.107 A 
ENDBRANCH  23  24
ENDBRANCH   2  23
TORSDOF 5
ENDMDL
