MODEL 1
REMARK VINA RESULT:      -5.5      0.000      0.000
REMARK  4 active torsions:
REMARK  status: ('A' for Active; 'I' for Inactive)
REMARK    1  A    between atoms: N_5  and  C_1 
REMARK    2  A    between atoms: N_8  and  C_3 
REMARK    3  A    between atoms: C_14  and  N_8 
REMARK    4  A    between atoms: C_16  and  C_14 
ROOT
ATOM      1  C   UNL d   1     -39.314  14.561  18.916  0.00  0.00     0.737 A 
ATOM      2  N   UNL d   1     -38.920  14.451  19.638  0.00  0.00    -0.041 NA
ATOM      3  C   UNL d   1     -39.255  14.736  20.343  0.00  0.00     0.182 A 
ATOM      4  N   UNL d   1     -40.044  14.957  18.894  0.00  0.00    -0.060 NA
ATOM      5  C   UNL d   1     -39.984  15.131  20.325  0.00  0.00     0.055 A 
ATOM      6  C   UNL d   1     -40.378  15.243  19.609  0.00  0.00     0.103 A 
ATOM      7  C   UNL d   1     -40.318  15.416  21.029  0.00  0.00     0.005 A 
ATOM      8  C   UNL d   1     -41.114  15.642  19.586  0.00  0.00     0.020 A 
ATOM      9  C   UNL d   1     -41.041  15.809  21.013  0.00  0.00     0.000 A 
ATOM     10  C   UNL d   1     -41.440  15.922  20.290  0.00  0.00     0.002 A 
ENDROOT
BRANCH   3  11
ATOM     11  N   UNL d   1     -38.846  14.621  21.094  0.00  0.00    -0.225 NA
BRANCH  11  12
ATOM     12  C   UNL d   1     -38.490  13.977  21.287  0.00  0.00     0.101 C 
BRANCH  12  13
ATOM     13  C   UNL d   1     -38.305  13.857  22.013  0.00  0.00     0.019 A 
ATOM     14  C   UNL d   1     -38.296  13.148  22.279  0.00  0.00     0.002 A 
ATOM     15  C   UNL d   1     -38.115  13.021  22.994  0.00  0.00     0.000 A 
ATOM     16  C   UNL d   1     -37.940  13.605  23.456  0.00  0.00     0.000 A 
ATOM     17  C   UNL d   1     -37.950  14.306  23.186  0.00  0.00     0.000 A 
ATOM     18  C   UNL d   1     -38.133  14.439  22.464  0.00  0.00     0.002 A 
ENDBRANCH  12  13
ENDBRANCH  11  12
ENDBRANCH   3  11
BRANCH   1  19
ATOM     19  N   UNL d   1     -38.975  14.272  18.192  0.00  0.00    -0.134 N 
ATOM     20  C   UNL d   1     -39.024  13.441  17.999  0.00  0.00     0.117 A 
ATOM     21  C   UNL d   1     -38.681  13.157  17.269  0.00  0.00     0.100 A 
ATOM     22  N   UNL d   1     -38.293  13.691  16.738  0.00  0.00    -0.299 N 
ATOM     23  C   UNL d   1     -38.243  14.522  16.932  0.00  0.00     0.100 A 
ATOM     24  C   UNL d   1     -37.952  13.401  16.011  0.00  0.00     0.100 C 
ATOM     25  C   UNL d   1     -38.582  14.816  17.656  0.00  0.00     0.117 A 
ENDBRANCH   1  19
TORSDOF 4
ENDMDL
MODEL 2
REMARK VINA RESULT:      -4.8      1.709      2.954
REMARK  4 active torsions:
REMARK  status: ('A' for Active; 'I' for Inactive)
REMARK    1  A    between atoms: N_5  and  C_1 
REMARK    2  A    between atoms: N_8  and  C_3 
REMARK    3  A    between atoms: C_14  and  N_8 
REMARK    4  A    between atoms: C_16  and  C_14 
ROOT
ATOM      1  C   UNL d   1     -39.882  14.275  17.858  0.00  0.00     0.737 A 
ATOM      2  N   UNL d   1     -39.728  14.565  18.620  0.00  0.00    -0.041 NA
ATOM      3  C   UNL d   1     -39.203  14.161  19.122  0.00  0.00     0.182 A 
ATOM      4  N   UNL d   1     -39.512  13.580  17.593  0.00  0.00    -0.060 NA
ATOM      5  C   UNL d   1     -38.833  13.467  18.860  0.00  0.00     0.055 A 
ATOM      6  C   UNL d   1     -38.983  13.175  18.103  0.00  0.00     0.103 A 
ATOM      7  C   UNL d   1     -38.308  13.063  19.362  0.00  0.00     0.005 A 
ATOM      8  C   UNL d   1     -38.612  12.475  17.835  0.00  0.00     0.020 A 
ATOM      9  C   UNL d   1     -37.940  12.374  19.104  0.00  0.00     0.000 A 
ATOM     10  C   UNL d   1     -38.092  12.079  18.339  0.00  0.00     0.002 A 
ENDROOT
BRANCH   3  11
ATOM     11  N   UNL d   1     -39.043  14.462  19.915  0.00  0.00    -0.225 NA
BRANCH  11  12
ATOM     12  C   UNL d   1     -39.442  15.021  20.243  0.00  0.00     0.101 C 
BRANCH  12  13
ATOM     13  C   UNL d   1     -39.292  15.212  20.962  0.00  0.00     0.019 A 
ATOM     14  C   UNL d   1     -39.735  14.943  21.514  0.00  0.00     0.002 A 
ATOM     15  C   UNL d   1     -39.595  15.126  22.226  0.00  0.00     0.000 A 
ATOM     16  C   UNL d   1     -39.005  15.583  22.397  0.00  0.00     0.000 A 
ATOM     17  C   UNL d   1     -38.569  15.846  21.843  0.00  0.00     0.000 A 
ATOM     18  C   UNL d   1     -38.708  15.664  21.123  0.00  0.00     0.002 A 
ENDBRANCH  12  13
ENDBRANCH  11  12
ENDBRANCH   3  11
BRANCH   1  19
ATOM     19  N   UNL d   1     -40.418  14.685  17.342  0.00  0.00    -0.134 N 
ATOM     20  C   UNL d   1     -41.199  14.897  17.616  0.00  0.00     0.117 A 
ATOM     21  C   UNL d   1     -41.733  15.310  17.090  0.00  0.00     0.100 A 
ATOM     22  N   UNL d   1     -41.493  15.510  16.302  0.00  0.00    -0.299 N 
ATOM     23  C   UNL d   1     -40.713  15.299  16.029  0.00  0.00     0.100 A 
ATOM     24  C   UNL d   1     -42.031  15.922  15.783  0.00  0.00     0.100 C 
ATOM     25  C   UNL d   1     -40.172  14.887  16.543  0.00  0.00     0.117 A 
ENDBRANCH   1  19
TORSDOF 4
ENDMDL
MODEL 3
REMARK VINA RESULT:      -4.7      7.822      9.648
REMARK  4 active torsions:
REMARK  status: ('A' for Active; 'I' for Inactive)
REMARK    1  A    between atoms: N_5  and  C_1 
REMARK    2  A    between atoms: N_8  and  C_3 
REMARK    3  A    between atoms: C_14  and  N_8 
REMARK    4  A    between atoms: C_16  and  C_14 
ROOT
ATOM      1  C   UNL d   1     -46.732  12.551  22.640  0.00  0.00     0.737 A 
ATOM      2  N   UNL d   1     -47.292  13.160  22.579  0.00  0.00    -0.041 NA
ATOM      3  C   UNL d   1     -48.079  13.029  22.814  0.00  0.00     0.182 A 
ATOM      4  N   UNL d   1     -46.955  11.806  22.935  0.00  0.00    -0.060 NA
ATOM      5  C   UNL d   1     -48.304  12.287  23.108  0.00  0.00     0.055 A 
ATOM      6  C   UNL d   1     -47.751  11.679  23.170  0.00  0.00     0.103 A 
ATOM      7  C   UNL d   1     -49.090  12.157  23.342  0.00  0.00     0.005 A 
ATOM      8  C   UNL d   1     -47.973  10.929  23.467  0.00  0.00     0.020 A 
ATOM      9  C   UNL d   1     -49.316  11.421  23.635  0.00  0.00     0.000 A 
ATOM     10  C   UNL d   1     -48.756  10.806  23.697  0.00  0.00     0.002 A 
ENDROOT
BRANCH   3  11
ATOM     11  N   UNL d   1     -48.661  13.663  22.751  0.00  0.00    -0.225 NA
BRANCH  11  12
ATOM     12  C   UNL d   1     -48.494  14.400  22.837  0.00  0.00     0.101 C 
BRANCH  12  13
ATOM     13  C   UNL d   1     -49.058  14.906  22.878  0.00  0.00     0.019 A 
ATOM     14  C   UNL d   1     -49.505  15.009  22.276  0.00  0.00     0.002 A 
ATOM     15  C   UNL d   1     -50.064  15.505  22.307  0.00  0.00     0.000 A 
ATOM     16  C   UNL d   1     -50.184  15.910  22.945  0.00  0.00     0.000 A 
ATOM     17  C   UNL d   1     -49.736  15.803  23.540  0.00  0.00     0.000 A 
ATOM     18  C   UNL d   1     -49.170  15.302  23.512  0.00  0.00     0.002 A 
ENDBRANCH  12  13
ENDBRANCH  11  12
ENDBRANCH   3  11
BRANCH   1  19
ATOM     19  N   UNL d   1     -45.927  12.681  22.402  0.00  0.00    -0.134 N 
ATOM     20  C   UNL d   1     -45.694  13.434  22.073  0.00  0.00     0.117 A 
ATOM     21  C   UNL d   1     -44.882  13.558  21.835  0.00  0.00     0.100 A 
ATOM     22  N   UNL d   1     -44.308  12.940  21.923  0.00  0.00    -0.299 N 
ATOM     23  C   UNL d   1     -44.541  12.187  22.252  0.00  0.00     0.100 A 
ATOM     24  C   UNL d   1     -43.499  13.070  21.684  0.00  0.00     0.100 C 
ATOM     25  C   UNL d   1     -45.347  12.053  22.492  0.00  0.00     0.117 A 
ENDBRANCH   1  19
TORSDOF 4
ENDMDL
MODEL 4
REMARK VINA RESULT:      -4.6      2.397      3.541
REMARK  4 active torsions:
REMARK  status: ('A' for Active; 'I' for Inactive)
REMARK    1  A    between atoms: N_5  and  C_1 
REMARK    2  A    between atoms: N_8  and  C_3 
REMARK    3  A    between atoms: C_14  and  N_8 
REMARK    4  A    between atoms: C_16  and  C_14 
ROOT
ATOM      1  C   UNL d   1     -40.406  14.614  19.604  0.00  0.00     0.737 A 
ATOM      2  N   UNL d   1     -41.054  14.261  19.986  0.00  0.00    -0.041 NA
ATOM      3  C   UNL d   1     -40.986  14.005  20.773  0.00  0.00     0.182 A 
ATOM      4  N   UNL d   1     -39.687  14.713  20.009  0.00  0.00    -0.060 NA
ATOM      5  C   UNL d   1     -40.269  14.103  21.179  0.00  0.00     0.055 A 
ATOM      6  C   UNL d   1     -39.623  14.453  20.804  0.00  0.00     0.103 A 
ATOM      7  C   UNL d   1     -40.202  13.847  21.966  0.00  0.00     0.005 A 
ATOM      8  C   UNL d   1     -38.899  14.554  21.210  0.00  0.00     0.020 A 
ATOM      9  C   UNL d   1     -39.492  13.943  22.371  0.00  0.00     0.000 A 
ATOM     10  C   UNL d   1     -38.838  14.297  21.992  0.00  0.00     0.002 A 
ENDROOT
BRANCH   3  11
ATOM     11  N   UNL d   1     -41.659  13.639  21.169  0.00  0.00    -0.225 NA
BRANCH  11  12
ATOM     12  C   UNL d   1     -42.246  13.325  20.801  0.00  0.00     0.101 C 
BRANCH  12  13
ATOM     13  C   UNL d   1     -42.831  13.050  21.199  0.00  0.00     0.019 A 
ATOM     14  C   UNL d   1     -43.472  13.452  21.236  0.00  0.00     0.002 A 
ATOM     15  C   UNL d   1     -44.054  13.190  21.627  0.00  0.00     0.000 A 
ATOM     16  C   UNL d   1     -44.003  12.518  21.988  0.00  0.00     0.000 A 
ATOM     17  C   UNL d   1     -43.363  12.124  21.947  0.00  0.00     0.000 A 
ATOM     18  C   UNL d   1     -42.773  12.385  21.553  0.00  0.00     0.002 A 
ENDBRANCH  12  13
ENDBRANCH  11  12
ENDBRANCH   3  11
BRANCH   1  19
ATOM     19  N   UNL d   1     -40.472  14.877  18.799  0.00  0.00    -0.134 N 
ATOM     20  C   UNL d   1     -40.778  15.655  18.626  0.00  0.00     0.117 A 
ATOM     21  C   UNL d   1     -40.841  15.913  17.813  0.00  0.00     0.100 A 
ATOM     22  N   UNL d   1     -40.603  15.403  17.180  0.00  0.00    -0.299 N 
ATOM     23  C   UNL d   1     -40.297  14.624  17.352  0.00  0.00     0.100 A 
ATOM     24  C   UNL d   1     -40.668  15.666  16.370  0.00  0.00     0.100 C 
ATOM     25  C   UNL d   1     -40.229  14.357  18.159  0.00  0.00     0.117 A 
ENDBRANCH   1  19
TORSDOF 4
ENDMDL
MODEL 5
REMARK VINA RESULT:      -4.4      5.875      7.572
REMARK  4 active torsions:
REMARK  status: ('A' for Active; 'I' for Inactive)
REMARK    1  A    between atoms: N_5  and  C_1 
REMARK    2  A    between atoms: N_8  and  C_3 
REMARK    3  A    between atoms: C_14  and  N_8 
REMARK    4  A    between atoms: C_16  and  C_14 
ROOT
ATOM      1  C   UNL d   1     -45.797  12.663  22.761  0.00  0.00     0.737 A 
ATOM      2  N   UNL d   1     -45.089  12.844  22.367  0.00  0.00    -0.041 NA
ATOM      3  C   UNL d   1     -44.446  12.320  22.402  0.00  0.00     0.182 A 
ATOM      4  N   UNL d   1     -45.865  11.957  23.193  0.00  0.00    -0.060 NA
ATOM      5  C   UNL d   1     -44.510  11.614  22.833  0.00  0.00     0.055 A 
ATOM      6  C   UNL d   1     -45.212  11.430  23.226  0.00  0.00     0.103 A 
ATOM      7  C   UNL d   1     -43.867  11.091  22.868  0.00  0.00     0.005 A 
ATOM      8  C   UNL d   1     -45.281  10.719  23.662  0.00  0.00     0.020 A 
ATOM      9  C   UNL d   1     -43.929  10.390  23.295  0.00  0.00     0.000 A 
ATOM     10  C   UNL d   1     -44.638  10.204  23.693  0.00  0.00     0.002 A 
ENDROOT
BRANCH   3  11
ATOM     11  N   UNL d   1     -43.710  12.508  21.992  0.00  0.00    -0.225 NA
BRANCH  11  12
ATOM     12  C   UNL d   1     -43.646  13.059  21.470  0.00  0.00     0.101 C 
BRANCH  12  13
ATOM     13  C   UNL d   1     -42.957  13.317  21.285  0.00  0.00     0.019 A 
ATOM     14  C   UNL d   1     -42.833  14.064  21.279  0.00  0.00     0.002 A 
ATOM     15  C   UNL d   1     -42.157  14.328  21.098  0.00  0.00     0.000 A 
ATOM     16  C   UNL d   1     -41.591  13.845  20.918  0.00  0.00     0.000 A 
ATOM     17  C   UNL d   1     -41.721  13.105  20.926  0.00  0.00     0.000 A 
ATOM     18  C   UNL d   1     -42.403  12.834  21.109  0.00  0.00     0.002 A 
ENDBRANCH  12  13
ENDBRANCH  11  12
ENDBRANCH   3  11
BRANCH   1  19
ATOM     19  N   UNL d   1     -46.457  13.196  22.727  0.00  0.00    -0.134 N 
ATOM     20  C   UNL d   1     -47.219  12.918  22.460  0.00  0.00     0.117 A 
ATOM     21  C   UNL d   1     -47.880  13.461  22.428  0.00  0.00     0.100 A 
ATOM     22  N   UNL d   1     -47.783  14.270  22.659  0.00  0.00    -0.299 N 
ATOM     23  C   UNL d   1     -47.021  14.549  22.926  0.00  0.00     0.100 A 
ATOM     24  C   UNL d   1     -48.446  14.807  22.625  0.00  0.00     0.100 C 
ATOM     25  C   UNL d   1     -46.356  14.017  22.961  0.00  0.00     0.117 A 
ENDBRANCH   1  19
TORSDOF 4
ENDMDL
MODEL 6
REMARK VINA RESULT:      -3.8      8.007      9.855
REMARK  4 active torsions:
REMARK  status: ('A' for Active; 'I' for Inactive)
REMARK    1  A    between atoms: N_5  and  C_1 
REMARK    2  A    between atoms: N_8  and  C_3 
REMARK    3  A    between atoms: C_14  and  N_8 
REMARK    4  A    between atoms: C_16  and  C_14 
ROOT
ATOM      1  C   UNL d   1     -48.701  13.337  23.048  0.00  0.00     0.737 A 
ATOM      2  N   UNL d   1     -47.894  13.450  22.893  0.00  0.00    -0.041 NA
ATOM      3  C   UNL d   1     -47.360  12.819  22.978  0.00  0.00     0.182 A 
ATOM      4  N   UNL d   1     -48.980  12.592  23.288  0.00  0.00    -0.060 NA
ATOM      5  C   UNL d   1     -47.635  12.074  23.218  0.00  0.00     0.055 A 
ATOM      6  C   UNL d   1     -48.437  11.957  23.373  0.00  0.00     0.103 A 
ATOM      7  C   UNL d   1     -47.102  11.444  23.303  0.00  0.00     0.005 A 
ATOM      8  C   UNL d   1     -48.719  11.208  23.616  0.00  0.00     0.020 A 
ATOM      9  C   UNL d   1     -47.373  10.704  23.541  0.00  0.00     0.000 A 
ATOM     10  C   UNL d   1     -48.183  10.586  23.698  0.00  0.00     0.002 A 
ENDROOT
BRANCH   3  11
ATOM     11  N   UNL d   1     -46.521  12.936  22.817  0.00  0.00    -0.225 NA
BRANCH  11  12
ATOM     12  C   UNL d   1     -46.255  13.312  22.210  0.00  0.00     0.101 C 
BRANCH  12  13
ATOM     13  C   UNL d   1     -45.512  13.293  22.058  0.00  0.00     0.019 A 
ATOM     14  C   UNL d   1     -45.107  13.929  22.126  0.00  0.00     0.002 A 
ATOM     15  C   UNL d   1     -44.374  13.921  21.978  0.00  0.00     0.000 A 
ATOM     16  C   UNL d   1     -44.032  13.273  21.759  0.00  0.00     0.000 A 
ATOM     17  C   UNL d   1     -44.441  12.644  21.693  0.00  0.00     0.000 A 
ATOM     18  C   UNL d   1     -45.183  12.649  21.842  0.00  0.00     0.002 A 
ENDBRANCH  12  13
ENDBRANCH  11  12
ENDBRANCH   3  11
BRANCH   1  19
ATOM     19  N   UNL d   1     -49.250  13.980  22.962  0.00  0.00    -0.134 N 
ATOM     20  C   UNL d   1     -49.468  14.450  23.640  0.00  0.00     0.117 A 
ATOM     21  C   UNL d   1     -50.021  15.096  23.546  0.00  0.00     0.100 A 
ATOM     22  N   UNL d   1     -50.354  15.271  22.786  0.00  0.00    -0.299 N 
ATOM     23  C   UNL d   1     -50.135  14.801  22.108  0.00  0.00     0.100 A 
ATOM     24  C   UNL d   1     -50.905  15.917  22.699  0.00  0.00     0.100 C 
ATOM     25  C   UNL d   1     -49.585  14.155  22.190  0.00  0.00     0.117 A 
ENDBRANCH   1  19
TORSDOF 4
ENDMDL
MODEL 7
REMARK VINA RESULT:      -3.7      5.498      6.996
REMARK  4 active torsions:
REMARK  status: ('A' for Active; 'I' for Inactive)
REMARK    1  A    between atoms: N_5  and  C_1 
REMARK    2  A    between atoms: N_8  and  C_3 
REMARK    3  A    between atoms: C_14  and  N_8 
REMARK    4  A    between atoms: C_16  and  C_14 
ROOT
ATOM      1  C   UNL d   1     -43.428  12.407  22.019  0.00  0.00     0.737 A 
ATOM      2  N   UNL d   1     -44.199  12.704  22.101  0.00  0.00    -0.041 NA
ATOM      3  C   UNL d   1     -44.763  12.283  22.542  0.00  0.00     0.182 A 
ATOM      4  N   UNL d   1     -43.217  11.687  22.377  0.00  0.00    -0.060 NA
ATOM      5  C   UNL d   1     -44.556  11.564  22.901  0.00  0.00     0.055 A 
ATOM      6  C   UNL d   1     -43.791  11.265  22.821  0.00  0.00     0.103 A 
ATOM      7  C   UNL d   1     -45.120  11.144  23.341  0.00  0.00     0.005 A 
ATOM      8  C   UNL d   1     -43.578  10.541  23.181  0.00  0.00     0.020 A 
ATOM      9  C   UNL d   1     -44.917  10.431  23.698  0.00  0.00     0.000 A 
ATOM     10  C   UNL d   1     -44.144  10.128  23.618  0.00  0.00     0.002 A 
ENDROOT
BRANCH   3  11
ATOM     11  N   UNL d   1     -45.565  12.591  22.628  0.00  0.00    -0.225 NA
BRANCH  11  12
ATOM     12  C   UNL d   1     -45.793  13.259  22.342  0.00  0.00     0.101 C 
BRANCH  12  13
ATOM     13  C   UNL d   1     -46.505  13.491  22.464  0.00  0.00     0.019 A 
ATOM     14  C   UNL d   1     -46.623  14.115  22.876  0.00  0.00     0.002 A 
ATOM     15  C   UNL d   1     -47.322  14.352  23.002  0.00  0.00     0.000 A 
ATOM     16  C   UNL d   1     -47.917  13.965  22.715  0.00  0.00     0.000 A 
ATOM     17  C   UNL d   1     -47.792  13.346  22.306  0.00  0.00     0.000 A 
ATOM     18  C   UNL d   1     -47.087  13.104  22.177  0.00  0.00     0.002 A 
ENDBRANCH  12  13
ENDBRANCH  11  12
ENDBRANCH   3  11
BRANCH   1  19
ATOM     19  N   UNL d   1     -42.848  12.834  21.568  0.00  0.00    -0.134 N 
ATOM     20  C   UNL d   1     -42.970  12.971  20.734  0.00  0.00     0.117 A 
ATOM     21  C   UNL d   1     -42.381  13.402  20.288  0.00  0.00     0.100 A 
ATOM     22  N   UNL d   1     -41.681  13.694  20.666  0.00  0.00    -0.299 N 
ATOM     23  C   UNL d   1     -41.560  13.557  21.500  0.00  0.00     0.100 A 
ATOM     24  C   UNL d   1     -41.098  14.123  20.214  0.00  0.00     0.100 C 
ATOM     25  C   UNL d   1     -42.139  13.128  21.955  0.00  0.00     0.117 A 
ENDBRANCH   1  19
TORSDOF 4
ENDMDL
MODEL 8
REMARK VINA RESULT:      -3.7      1.814      4.512
REMARK  4 active torsions:
REMARK  status: ('A' for Active; 'I' for Inactive)
REMARK    1  A    between atoms: N_5  and  C_1 
REMARK    2  A    between atoms: N_8  and  C_3 
REMARK    3  A    between atoms: C_14  and  N_8 
REMARK    4  A    between atoms: C_16  and  C_14 
ROOT
ATOM      1  C   UNL d   1     -40.559  14.419  20.672  0.00  0.00     0.737 A 
ATOM      2  N   UNL d   1     -40.294  14.399  19.886  0.00  0.00    -0.041 NA
ATOM      3  C   UNL d   1     -39.577  14.765  19.678  0.00  0.00     0.182 A 
ATOM      4  N   UNL d   1     -40.109  14.805  21.255  0.00  0.00    -0.060 NA
ATOM      5  C   UNL d   1     -39.126  15.150  20.256  0.00  0.00     0.055 A 
ATOM      6  C   UNL d   1     -39.385  15.173  21.039  0.00  0.00     0.103 A 
ATOM      7  C   UNL d   1     -38.410  15.515  20.048  0.00  0.00     0.005 A 
ATOM      8  C   UNL d   1     -38.933  15.561  21.627  0.00  0.00     0.020 A 
ATOM      9  C   UNL d   1     -37.961  15.899  20.621  0.00  0.00     0.000 A 
ATOM     10  C   UNL d   1     -38.223  15.921  21.412  0.00  0.00     0.002 A 
ENDROOT
BRANCH   3  11
ATOM     11  N   UNL d   1     -39.302  14.744  18.860  0.00  0.00    -0.225 NA
BRANCH  11  12
ATOM     12  C   UNL d   1     -39.680  14.400  18.296  0.00  0.00     0.101 C 
BRANCH  12  13
ATOM     13  C   UNL d   1     -39.374  14.382  17.601  0.00  0.00     0.019 A 
ATOM     14  C   UNL d   1     -38.998  13.763  17.380  0.00  0.00     0.002 A 
ATOM     15  C   UNL d   1     -38.694  13.737  16.697  0.00  0.00     0.000 A 
ATOM     16  C   UNL d   1     -38.761  14.333  16.222  0.00  0.00     0.000 A 
ATOM     17  C   UNL d   1     -39.136  14.944  16.448  0.00  0.00     0.000 A 
ATOM     18  C   UNL d   1     -39.446  14.975  17.138  0.00  0.00     0.002 A 
ENDBRANCH  12  13
ENDBRANCH  11  12
ENDBRANCH   3  11
BRANCH   1  19
ATOM     19  N   UNL d   1     -41.290  14.046  20.889  0.00  0.00    -0.134 N 
ATOM     20  C   UNL d   1     -42.031  14.454  20.767  0.00  0.00     0.117 A 
ATOM     21  C   UNL d   1     -42.764  14.072  20.989  0.00  0.00     0.100 A 
ATOM     22  N   UNL d   1     -42.760  13.295  21.327  0.00  0.00    -0.299 N 
ATOM     23  C   UNL d   1     -42.020  12.888  21.449  0.00  0.00     0.100 A 
ATOM     24  C   UNL d   1     -43.495  12.920  21.545  0.00  0.00     0.100 C 
ATOM     25  C   UNL d   1     -41.284  13.258  21.232  0.00  0.00     0.117 A 
ENDBRANCH   1  19
TORSDOF 4
ENDMDL
