MODEL 1
REMARK VINA RESULT:      -6.6      0.000      0.000
REMARK  1 active torsions:
REMARK  status: ('A' for Active; 'I' for Inactive)
REMARK    1  A    between atoms: N_11  and  C_7 
ROOT
ATOM      1  C   UNL d   1      56.999  -0.760  31.428  0.00  0.00     0.201 A 
ATOM      2  C   UNL d   1      56.765  -0.014  31.698  0.00  0.00     0.141 A 
ATOM      3  N   UNL d   1      57.503  -0.824  30.779  0.00  0.00    -0.036 NA
ATOM      4  C   UNL d   1      56.266  -0.115  32.347  0.00  0.00     0.040 A 
ATOM      5  N   UNL d   1      56.643  -1.326  31.912  0.00  0.00    -0.225 NA
ATOM      6  N   UNL d   1      57.036   0.674  31.318  0.00  0.00    -0.129 NA
ATOM      7  C   UNL d   1      57.776  -0.142  30.396  0.00  0.00     0.788 A 
ATOM      8  C   UNL d   1      56.191  -0.925  32.479  0.00  0.00     0.085 A 
ATOM      9  N   UNL d   1      57.542   0.602  30.667  0.00  0.00     0.048 NA
ATOM     10  C   UNL d   1      55.873   0.420  32.832  0.00  0.00     0.003 A 
ATOM     11  C   UNL d   1      55.722  -1.208  33.098  0.00  0.00     0.019 A 
ATOM     12  C   UNL d   1      55.405   0.145  33.449  0.00  0.00     0.000 A 
ATOM     13  C   UNL d   1      55.329  -0.673  33.582  0.00  0.00     0.002 A 
ATOM     14  C   UNL d   1      55.004   0.682  33.944  0.00  0.00     0.000 C 
ENDROOT
BRANCH   7  15
ATOM     15  N   UNL d   1      58.282  -0.214  29.746  0.00  0.00     0.069 NA
ATOM     16  N   UNL d   1      59.044   0.093  29.684  0.00  0.00    -0.006 N 
ENDBRANCH   7  15
TORSDOF 1
ENDMDL
MODEL 2
REMARK VINA RESULT:      -5.7      0.813      1.565
REMARK  1 active torsions:
REMARK  status: ('A' for Active; 'I' for Inactive)
REMARK    1  A    between atoms: N_11  and  C_7 
ROOT
ATOM      1  C   UNL d   1      57.667   0.179  30.872  0.00  0.00     0.201 A 
ATOM      2  C   UNL d   1      57.391  -0.586  31.030  0.00  0.00     0.141 A 
ATOM      3  N   UNL d   1      58.163   0.313  30.229  0.00  0.00    -0.036 NA
ATOM      4  C   UNL d   1      56.910  -0.557  31.698  0.00  0.00     0.040 A 
ATOM      5  N   UNL d   1      57.355   0.682  31.447  0.00  0.00    -0.225 NA
ATOM      6  N   UNL d   1      57.613  -1.221  30.541  0.00  0.00    -0.129 NA
ATOM      7  C   UNL d   1      58.388  -0.316  29.739  0.00  0.00     0.788 A 
ATOM      8  C   UNL d   1      56.887   0.225  31.956  0.00  0.00     0.085 A 
ATOM      9  N   UNL d   1      58.112  -1.078  29.897  0.00  0.00     0.048 NA
ATOM     10  C   UNL d   1      56.491  -1.137  32.105  0.00  0.00     0.003 A 
ATOM     11  C   UNL d   1      56.446   0.435  32.623  0.00  0.00     0.019 A 
ATOM     12  C   UNL d   1      56.051  -0.934  32.768  0.00  0.00     0.000 A 
ATOM     13  C   UNL d   1      56.028  -0.144  33.028  0.00  0.00     0.002 A 
ATOM     14  C   UNL d   1      55.625  -1.517  33.184  0.00  0.00     0.000 C 
ENDROOT
BRANCH   7  15
ATOM     15  N   UNL d   1      58.887  -0.173  29.095  0.00  0.00     0.069 NA
ATOM     16  N   UNL d   1      59.709  -0.242  29.090  0.00  0.00    -0.006 N 
ENDBRANCH   7  15
TORSDOF 1
ENDMDL
MODEL 3
REMARK VINA RESULT:      -5.0      1.240      3.667
REMARK  1 active torsions:
REMARK  status: ('A' for Active; 'I' for Inactive)
REMARK    1  A    between atoms: N_11  and  C_7 
ROOT
ATOM      1  C   UNL d   1      56.867   0.108  32.002  0.00  0.00     0.201 A 
ATOM      2  C   UNL d   1      57.002  -0.619  31.632  0.00  0.00     0.141 A 
ATOM      3  N   UNL d   1      56.371   0.151  32.658  0.00  0.00    -0.036 NA
ATOM      4  C   UNL d   1      57.515  -0.499  30.998  0.00  0.00     0.040 A 
ATOM      5  N   UNL d   1      57.297   0.682  31.594  0.00  0.00    -0.225 NA
ATOM      6  N   UNL d   1      56.640  -1.310  31.920  0.00  0.00    -0.129 NA
ATOM      7  C   UNL d   1      56.006  -0.534  32.949  0.00  0.00     0.788 A 
ATOM      8  C   UNL d   1      57.697   0.304  30.974  0.00  0.00     0.085 A 
ATOM      9  N   UNL d   1      56.143  -1.259  32.580  0.00  0.00     0.048 NA
ATOM     10  C   UNL d   1      57.838  -1.011  30.441  0.00  0.00     0.003 A 
ATOM     11  C   UNL d   1      58.204   0.603  30.394  0.00  0.00     0.019 A 
ATOM     12  C   UNL d   1      58.343  -0.720  29.862  0.00  0.00     0.000 A 
ATOM     13  C   UNL d   1      58.527   0.091  29.838  0.00  0.00     0.002 A 
ATOM     14  C   UNL d   1      58.673  -1.234  29.296  0.00  0.00     0.000 C 
ENDROOT
BRANCH   7  15
ATOM     15  N   UNL d   1      55.510  -0.484  33.608  0.00  0.00     0.069 NA
ATOM     16  N   UNL d   1      54.858   0.014  33.691  0.00  0.00    -0.006 N 
ENDBRANCH   7  15
TORSDOF 1
ENDMDL
MODEL 4
REMARK VINA RESULT:      -3.7      2.131      3.756
REMARK  1 active torsions:
REMARK  status: ('A' for Active; 'I' for Inactive)
REMARK    1  A    between atoms: N_11  and  C_7 
ROOT
ATOM      1  C   UNL d   1      56.805   0.670  33.520  0.00  0.00     0.201 A 
ATOM      2  C   UNL d   1      56.459   0.675  32.768  0.00  0.00     0.141 A 
ATOM      3  N   UNL d   1      56.329   0.669  34.192  0.00  0.00    -0.036 NA
ATOM      4  C   UNL d   1      57.060   0.675  32.204  0.00  0.00     0.040 A 
ATOM      5  N   UNL d   1      57.624   0.666  33.420  0.00  0.00    -0.225 NA
ATOM      6  N   UNL d   1      55.631   0.680  32.687  0.00  0.00    -0.129 NA
ATOM      7  C   UNL d   1      55.503   0.673  34.117  0.00  0.00     0.788 A 
ATOM      8  C   UNL d   1      57.779   0.670  32.607  0.00  0.00     0.085 A 
ATOM      9  N   UNL d   1      55.160   0.679  33.367  0.00  0.00     0.048 NA
ATOM     10  C   UNL d   1      57.048   0.679  31.382  0.00  0.00     0.003 A 
ATOM     11  C   UNL d   1      58.493   0.668  32.190  0.00  0.00     0.019 A 
ATOM     12  C   UNL d   1      57.755   0.678  30.962  0.00  0.00     0.000 A 
ATOM     13  C   UNL d   1      58.481   0.672  31.369  0.00  0.00     0.002 A 
ATOM     14  C   UNL d   1      57.749   0.682  30.129  0.00  0.00     0.000 C 
ENDROOT
BRANCH   7  15
ATOM     15  N   UNL d   1      55.032   0.672  34.797  0.00  0.00     0.069 NA
ATOM     16  N   UNL d   1      55.301   0.673  35.576  0.00  0.00    -0.006 N 
ENDBRANCH   7  15
TORSDOF 1
ENDMDL
