MODEL 1
REMARK VINA RESULT:      13.4      0.000      0.000
REMARK  1 active torsions:
REMARK  status: ('A' for Active; 'I' for Inactive)
REMARK    1  A    between atoms: C_7  and  N_1 
ROOT
ATOM      1  N   UNL d   1      44.200 -15.456  36.703  0.00  0.00    -0.226 N 
ATOM      2  C   UNL d   1      43.653 -14.851  36.829  0.00  0.00     0.359 A 
ATOM      3  C   UNL d   1      43.944 -16.202  36.456  0.00  0.00     0.273 A 
ATOM      4  N   UNL d   1      42.850 -14.993  36.708  0.00  0.00    -0.153 NA
ATOM      5  C   UNL d   1      42.593 -15.738  36.461  0.00  0.00     0.288 A 
ATOM      6  C   UNL d   1      43.140 -16.344  36.335  0.00  0.00     0.124 A 
ATOM      7  O   UNL d   1      43.907 -14.104  37.076  0.00  0.00    -0.244 OA
ATOM      8  O   UNL d   1      44.490 -16.807  36.330  0.00  0.00    -0.266 OA
ATOM      9  O   UNL d   1      41.789 -15.880  36.340  0.00  0.00    -0.265 OA
ENDROOT
BRANCH   1  10
ATOM     10  C   UNL d   1      45.004 -15.315  36.824  0.00  0.00     0.071 A 
ATOM     11  C   UNL d   1      45.401 -15.698  37.453  0.00  0.00     0.016 A 
ATOM     12  C   UNL d   1      44.985 -16.214  37.946  0.00  0.00     0.002 C 
ATOM     13  C   UNL d   1      46.203 -15.559  37.577  0.00  0.00     0.001 A 
ATOM     14  C   UNL d   1      46.615 -15.041  37.081  0.00  0.00     0.000 A 
ATOM     15  C   UNL d   1      46.221 -14.665  36.462  0.00  0.00     0.002 A 
ATOM     16  C   UNL d   1      45.409 -14.802  36.332  0.00  0.00     0.018 A 
ENDBRANCH   1  10
TORSDOF 1
ENDMDL
MODEL 2
REMARK VINA RESULT:      13.7      0.432      1.249
REMARK  1 active torsions:
REMARK  status: ('A' for Active; 'I' for Inactive)
REMARK    1  A    between atoms: C_7  and  N_1 
ROOT
ATOM      1  N   UNL d   1      44.229 -15.391  36.807  0.00  0.00    -0.226 N 
ATOM      2  C   UNL d   1      43.984 -16.125  36.520  0.00  0.00     0.359 A 
ATOM      3  C   UNL d   1      43.670 -14.813  36.996  0.00  0.00     0.273 A 
ATOM      4  N   UNL d   1      43.180 -16.280  36.421  0.00  0.00    -0.153 NA
ATOM      5  C   UNL d   1      42.621 -15.701  36.610  0.00  0.00     0.288 A 
ATOM      6  C   UNL d   1      42.865 -14.967  36.897  0.00  0.00     0.124 A 
ATOM      7  O   UNL d   1      44.541 -16.706  36.330  0.00  0.00    -0.244 OA
ATOM      8  O   UNL d   1      43.914 -14.079  37.283  0.00  0.00    -0.266 OA
ATOM      9  O   UNL d   1      41.816 -15.856  36.511  0.00  0.00    -0.265 OA
ENDROOT
BRANCH   1  10
ATOM     10  C   UNL d   1      45.033 -15.236  36.906  0.00  0.00     0.071 A 
ATOM     11  C   UNL d   1      45.431 -15.533  37.579  0.00  0.00     0.016 A 
ATOM     12  C   UNL d   1      45.016 -15.978  38.139  0.00  0.00     0.002 C 
ATOM     13  C   UNL d   1      46.234 -15.381  37.681  0.00  0.00     0.001 A 
ATOM     14  C   UNL d   1      46.646 -14.936  37.119  0.00  0.00     0.000 A 
ATOM     15  C   UNL d   1      46.250 -14.645  36.457  0.00  0.00     0.002 A 
ATOM     16  C   UNL d   1      45.438 -14.796  36.348  0.00  0.00     0.018 A 
ENDBRANCH   1  10
TORSDOF 1
ENDMDL
