MODEL 1
REMARK VINA RESULT:      -9.0      0.000      0.000
REMARK  2 active torsions:
REMARK  status: ('A' for Active; 'I' for Inactive)
REMARK    1  A    between atoms: C_9  and  C_4 
REMARK    2  A    between atoms: N_6  and  C_8 
ROOT
ATOM      1  N   UNL d   1     -49.200  13.537  22.397  0.00  0.00    -0.211 NA
ATOM      2  C   UNL d   1     -49.960  13.857  22.372  0.00  0.00     0.140 A 
ATOM      3  C   UNL d   1     -50.127  14.534  22.805  0.00  0.00     0.051 A 
ATOM      4  C   UNL d   1     -48.613  13.892  22.852  0.00  0.00     0.183 A 
ATOM      5  C   UNL d   1     -49.543  14.898  23.265  0.00  0.00     0.104 A 
ATOM      6  O   UNL d   1     -48.776  14.573  23.289  0.00  0.00    -0.289 OA
ATOM      7  S   UNL d   1     -50.544  13.501  21.917  0.00  0.00    -0.057 SA
ATOM      8  C   UNL d   1     -50.885  14.856  22.782  0.00  0.00     0.004 A 
ATOM      9  C   UNL d   1     -49.710  15.574  23.697  0.00  0.00     0.025 A 
ATOM     10  C   UNL d   1     -51.063  15.539  23.216  0.00  0.00     0.000 A 
ATOM     11  C   UNL d   1     -50.475  15.893  23.670  0.00  0.00     0.002 A 
ENDROOT
BRANCH   4  12
ATOM     12  C   UNL d   1     -47.852  13.564  22.871  0.00  0.00     0.041 A 
ATOM     13  C   UNL d   1     -47.750  12.805  23.187  0.00  0.00     0.005 A 
ATOM     14  C   UNL d   1     -46.995  12.478  23.207  0.00  0.00     0.024 A 
ATOM     15  C   UNL d   1     -46.344  12.898  22.915  0.00  0.00     0.127 A 
ATOM     16  C   UNL d   1     -46.459  13.660  22.599  0.00  0.00     0.024 A 
ATOM     17  C   UNL d   1     -47.214  13.988  22.579  0.00  0.00     0.005 A 
BRANCH  15  18
ATOM     18  N   UNL d   1     -45.591  12.563  22.938  0.00  0.00    -0.114 N 
ATOM     19  O   UNL d   1     -45.434  11.923  23.431  0.00  0.00    -0.532 OA
ATOM     20  O   UNL d   1     -44.985  12.869  22.464  0.00  0.00    -0.532 OA
ENDBRANCH  15  18
ENDBRANCH   4  12
TORSDOF 2
ENDMDL
MODEL 2
REMARK VINA RESULT:      -8.5      1.392      1.953
REMARK  2 active torsions:
REMARK  status: ('A' for Active; 'I' for Inactive)
REMARK    1  A    between atoms: C_9  and  C_4 
REMARK    2  A    between atoms: N_6  and  C_8 
ROOT
ATOM      1  N   UNL d   1     -48.701  13.952  22.969  0.00  0.00    -0.211 NA
ATOM      2  C   UNL d   1     -49.506  13.950  23.150  0.00  0.00     0.140 A 
ATOM      3  C   UNL d   1     -49.877  13.242  23.330  0.00  0.00     0.051 A 
ATOM      4  C   UNL d   1     -48.272  13.249  22.968  0.00  0.00     0.183 A 
ATOM      5  C   UNL d   1     -49.455  12.530  23.331  0.00  0.00     0.104 A 
ATOM      6  O   UNL d   1     -48.642  12.533  23.148  0.00  0.00    -0.289 OA
ATOM      7  S   UNL d   1     -49.931  14.654  23.151  0.00  0.00    -0.057 SA
ATOM      8  C   UNL d   1     -50.681  13.236  23.511  0.00  0.00     0.004 A 
ATOM      9  C   UNL d   1     -49.826  11.821  23.510  0.00  0.00     0.025 A 
ATOM     10  C   UNL d   1     -51.064  12.525  23.693  0.00  0.00     0.000 A 
ATOM     11  C   UNL d   1     -50.635  11.823  23.692  0.00  0.00     0.002 A 
ENDROOT
BRANCH   4  12
ATOM     12  C   UNL d   1     -47.465  13.261  22.785  0.00  0.00     0.041 A 
ATOM     13  C   UNL d   1     -47.232  13.222  21.990  0.00  0.00     0.005 A 
ATOM     14  C   UNL d   1     -46.429  13.233  21.807  0.00  0.00     0.024 A 
ATOM     15  C   UNL d   1     -45.860  13.282  22.406  0.00  0.00     0.127 A 
ATOM     16  C   UNL d   1     -46.105  13.321  23.200  0.00  0.00     0.024 A 
ATOM     17  C   UNL d   1     -46.908  13.309  23.384  0.00  0.00     0.005 A 
BRANCH  15  18
ATOM     18  N   UNL d   1     -45.057  13.293  22.214  0.00  0.00    -0.114 N 
ATOM     19  O   UNL d   1     -44.680  14.004  22.042  0.00  0.00    -0.532 OA
ATOM     20  O   UNL d   1     -44.626  12.587  22.194  0.00  0.00    -0.532 OA
ENDBRANCH  15  18
ENDBRANCH   4  12
TORSDOF 2
ENDMDL
MODEL 3
REMARK VINA RESULT:      -7.8      1.600      4.332
REMARK  2 active torsions:
REMARK  status: ('A' for Active; 'I' for Inactive)
REMARK    1  A    between atoms: C_9  and  C_4 
REMARK    2  A    between atoms: N_6  and  C_8 
ROOT
ATOM      1  N   UNL d   1     -47.874  12.842  23.323  0.00  0.00    -0.211 NA
ATOM      2  C   UNL d   1     -47.185  12.390  23.323  0.00  0.00     0.140 A 
ATOM      3  C   UNL d   1     -46.514  12.676  22.947  0.00  0.00     0.051 A 
ATOM      4  C   UNL d   1     -47.892  13.575  22.949  0.00  0.00     0.183 A 
ATOM      5  C   UNL d   1     -46.522  13.412  22.568  0.00  0.00     0.104 A 
ATOM      6  O   UNL d   1     -47.220  13.868  22.569  0.00  0.00    -0.289 OA
ATOM      7  S   UNL d   1     -47.170  11.658  23.698  0.00  0.00    -0.057 SA
ATOM      8  C   UNL d   1     -45.823  12.226  22.946  0.00  0.00     0.004 A 
ATOM      9  C   UNL d   1     -45.853  13.698  22.193  0.00  0.00     0.025 A 
ATOM     10  C   UNL d   1     -45.142  12.507  22.569  0.00  0.00     0.000 A 
ATOM     11  C   UNL d   1     -45.160  13.241  22.195  0.00  0.00     0.002 A 
ENDROOT
BRANCH   4  12
ATOM     12  C   UNL d   1     -48.589  14.022  22.954  0.00  0.00     0.041 A 
ATOM     13  C   UNL d   1     -48.536  14.849  22.952  0.00  0.00     0.005 A 
ATOM     14  C   UNL d   1     -49.229  15.295  22.956  0.00  0.00     0.024 A 
ATOM     15  C   UNL d   1     -49.969  14.925  22.963  0.00  0.00     0.127 A 
ATOM     16  C   UNL d   1     -50.010  14.094  22.965  0.00  0.00     0.024 A 
ATOM     17  C   UNL d   1     -49.318  13.648  22.960  0.00  0.00     0.005 A 
BRANCH  15  18
ATOM     18  N   UNL d   1     -50.658  15.379  22.968  0.00  0.00    -0.114 N 
ATOM     19  O   UNL d   1     -50.947  15.691  23.672  0.00  0.00    -0.532 OA
ATOM     20  O   UNL d   1     -51.064  15.524  22.261  0.00  0.00    -0.532 OA
ENDBRANCH  15  18
ENDBRANCH   4  12
TORSDOF 2
ENDMDL
MODEL 4
REMARK VINA RESULT:      -6.5      1.355      1.770
REMARK  2 active torsions:
REMARK  status: ('A' for Active; 'I' for Inactive)
REMARK    1  A    between atoms: C_9  and  C_4 
REMARK    2  A    between atoms: N_6  and  C_8 
ROOT
ATOM      1  N   UNL d   1     -47.713  13.948  22.693  0.00  0.00    -0.211 NA
ATOM      2  C   UNL d   1     -48.237  14.566  22.538  0.00  0.00     0.140 A 
ATOM      3  C   UNL d   1     -49.044  14.440  22.613  0.00  0.00     0.051 A 
ATOM      4  C   UNL d   1     -47.996  13.210  22.921  0.00  0.00     0.183 A 
ATOM      5  C   UNL d   1     -49.338  13.700  22.841  0.00  0.00     0.104 A 
ATOM      6  O   UNL d   1     -48.807  13.077  22.998  0.00  0.00    -0.289 OA
ATOM      7  S   UNL d   1     -47.952  15.303  22.310  0.00  0.00    -0.057 SA
ATOM      8  C   UNL d   1     -49.571  15.055  22.459  0.00  0.00     0.004 A 
ATOM      9  C   UNL d   1     -50.144  13.573  22.917  0.00  0.00     0.025 A 
ATOM     10  C   UNL d   1     -50.386  14.936  22.532  0.00  0.00     0.000 A 
ATOM     11  C   UNL d   1     -50.668  14.197  22.760  0.00  0.00     0.002 A 
ENDROOT
BRANCH   4  12
ATOM     12  C   UNL d   1     -47.462  12.595  23.074  0.00  0.00     0.041 A 
ATOM     13  C   UNL d   1     -47.627  11.837  22.780  0.00  0.00     0.005 A 
ATOM     14  C   UNL d   1     -47.097  11.226  22.932  0.00  0.00     0.024 A 
ATOM     15  C   UNL d   1     -46.409  11.362  23.372  0.00  0.00     0.127 A 
ATOM     16  C   UNL d   1     -46.254  12.126  23.661  0.00  0.00     0.024 A 
ATOM     17  C   UNL d   1     -46.784  12.739  23.510  0.00  0.00     0.005 A 
BRANCH  15  18
ATOM     18  N   UNL d   1     -45.883  10.743  23.520  0.00  0.00    -0.114 N 
ATOM     19  O   UNL d   1     -45.070  10.873  23.499  0.00  0.00    -0.532 OA
ATOM     20  O   UNL d   1     -46.170   9.986  23.690  0.00  0.00    -0.532 OA
ENDBRANCH  15  18
ENDBRANCH   4  12
TORSDOF 2
ENDMDL
MODEL 5
REMARK VINA RESULT:      -6.2      1.514      2.105
REMARK  2 active torsions:
REMARK  status: ('A' for Active; 'I' for Inactive)
REMARK    1  A    between atoms: C_9  and  C_4 
REMARK    2  A    between atoms: N_6  and  C_8 
ROOT
ATOM      1  N   UNL d   1     -47.897  12.542  22.084  0.00  0.00    -0.211 NA
ATOM      2  C   UNL d   1     -48.460  13.102  21.860  0.00  0.00     0.140 A 
ATOM      3  C   UNL d   1     -48.490  13.822  22.250  0.00  0.00     0.051 A 
ATOM      4  C   UNL d   1     -47.369  12.703  22.694  0.00  0.00     0.183 A 
ATOM      5  C   UNL d   1     -47.963  13.994  22.865  0.00  0.00     0.104 A 
ATOM      6  O   UNL d   1     -47.394  13.427  23.091  0.00  0.00    -0.289 OA
ATOM      7  S   UNL d   1     -48.986  12.938  21.250  0.00  0.00    -0.057 SA
ATOM      8  C   UNL d   1     -49.051  14.384  22.029  0.00  0.00     0.004 A 
ATOM      9  C   UNL d   1     -47.992  14.713  23.256  0.00  0.00     0.025 A 
ATOM     10  C   UNL d   1     -49.088  15.114  22.418  0.00  0.00     0.000 A 
ATOM     11  C   UNL d   1     -48.560  15.274  23.028  0.00  0.00     0.002 A 
ENDROOT
BRANCH   4  12
ATOM     12  C   UNL d   1     -46.807  12.135  22.912  0.00  0.00     0.041 A 
ATOM     13  C   UNL d   1     -46.034  12.202  22.622  0.00  0.00     0.005 A 
ATOM     14  C   UNL d   1     -45.474  11.637  22.838  0.00  0.00     0.024 A 
ATOM     15  C   UNL d   1     -45.678  11.010  23.339  0.00  0.00     0.127 A 
ATOM     16  C   UNL d   1     -46.458  10.953  23.624  0.00  0.00     0.024 A 
ATOM     17  C   UNL d   1     -47.018  11.518  23.408  0.00  0.00     0.005 A 
BRANCH  15  18
ATOM     18  N   UNL d   1     -45.112  10.449  23.551  0.00  0.00    -0.114 N 
ATOM     19  O   UNL d   1     -44.320  10.661  23.618  0.00  0.00    -0.532 OA
ATOM     20  O   UNL d   1     -45.338   9.667  23.697  0.00  0.00    -0.532 OA
ENDBRANCH  15  18
ENDBRANCH   4  12
TORSDOF 2
ENDMDL
MODEL 6
REMARK VINA RESULT:      -6.2      9.182      9.686
REMARK  2 active torsions:
REMARK  status: ('A' for Active; 'I' for Inactive)
REMARK    1  A    between atoms: C_9  and  C_4 
REMARK    2  A    between atoms: N_6  and  C_8 
ROOT
ATOM      1  N   UNL d   1     -39.426  14.436  18.887  0.00  0.00    -0.211 NA
ATOM      2  C   UNL d   1     -39.601  14.367  18.084  0.00  0.00     0.140 A 
ATOM      3  C   UNL d   1     -40.164  14.862  17.750  0.00  0.00     0.051 A 
ATOM      4  C   UNL d   1     -39.811  14.996  19.351  0.00  0.00     0.183 A 
ATOM      5  C   UNL d   1     -40.557  15.428  18.209  0.00  0.00     0.104 A 
ATOM      6  O   UNL d   1     -40.378  15.496  19.020  0.00  0.00    -0.289 OA
ATOM      7  S   UNL d   1     -39.215  13.807  17.623  0.00  0.00    -0.057 SA
ATOM      8  C   UNL d   1     -40.342  14.796  16.948  0.00  0.00     0.004 A 
ATOM      9  C   UNL d   1     -41.119  15.922  17.876  0.00  0.00     0.025 A 
ATOM     10  C   UNL d   1     -40.908  15.291  16.603  0.00  0.00     0.000 A 
ATOM     11  C   UNL d   1     -41.293  15.850  17.068  0.00  0.00     0.002 A 
ENDROOT
BRANCH   4  12
ATOM     12  C   UNL d   1     -39.628  15.058  20.157  0.00  0.00     0.041 A 
ATOM     13  C   UNL d   1     -39.051  15.602  20.398  0.00  0.00     0.005 A 
ATOM     14  C   UNL d   1     -38.869  15.664  21.199  0.00  0.00     0.024 A 
ATOM     15  C   UNL d   1     -39.255  15.191  21.758  0.00  0.00     0.127 A 
ATOM     16  C   UNL d   1     -39.833  14.649  21.504  0.00  0.00     0.024 A 
ATOM     17  C   UNL d   1     -40.016  14.586  20.704  0.00  0.00     0.005 A 
BRANCH  15  18
ATOM     18  N   UNL d   1     -39.067  15.260  22.558  0.00  0.00    -0.114 N 
ATOM     19  O   UNL d   1     -39.303  15.922  22.987  0.00  0.00    -0.532 OA
ATOM     20  O   UNL d   1     -38.638  14.662  22.937  0.00  0.00    -0.532 OA
ENDBRANCH  15  18
ENDBRANCH   4  12
TORSDOF 2
ENDMDL
