MODEL 1
REMARK VINA RESULT:      56.5      0.000      0.000
REMARK  7 active torsions:
REMARK  status: ('A' for Active; 'I' for Inactive)
REMARK    1  A    between atoms: N_2  and  C_1 
REMARK    2  A    between atoms: S_4  and  C_3 
REMARK    3  A    between atoms: C_6  and  S_4 
REMARK    4  A    between atoms: C_5  and  C_8 
REMARK    5  A    between atoms: C_9  and  C_6 
REMARK    6  A    between atoms: O_14  and  C_9 
REMARK    7  A    between atoms: C_12  and  O_14 
ROOT
ATOM      1  S   UNL d   1      60.054  49.117  50.989  0.00  0.00     0.096 S 
ATOM      2  O   UNL d   1      60.307  49.654  51.552  0.00  0.00    -0.247 OA
ENDROOT
BRANCH   1   3
ATOM      3  C   UNL d   1      60.299  48.328  51.035  0.00  0.00     0.082 A 
ATOM      4  C   UNL d   1      61.059  48.103  50.761  0.00  0.00     0.135 A 
ATOM      5  C   UNL d   1      61.291  47.313  50.811  0.00  0.00     0.028 A 
ATOM      6  C   UNL d   1      60.788  46.742  51.127  0.00  0.00     0.073 A 
ATOM      7  C   UNL d   1      60.036  46.965  51.398  0.00  0.00     0.005 A 
ATOM      8  C   UNL d   1      59.791  47.757  51.352  0.00  0.00     0.011 A 
BRANCH   4   9
ATOM      9  N   UNL d   1      61.562  48.675  50.445  0.00  0.00    -0.113 N 
ATOM     10  O   UNL d   1      61.996  49.168  50.958  0.00  0.00    -0.532 OA
ATOM     11  O   UNL d   1      61.636  48.759  49.622  0.00  0.00    -0.532 OA
ENDBRANCH   4   9
BRANCH   6  12
ATOM     12  C   UNL d   1      61.020  45.952  51.178  0.00  0.00     0.419 C 
ATOM     13  F   UNL d   1      61.809  45.608  51.034  0.00  0.00    -0.166 F 
ATOM     14  F   UNL d   1      61.245  45.233  51.221  0.00  0.00    -0.166 F 
ATOM     15  F   UNL d   1      60.559  45.246  51.385  0.00  0.00    -0.166 F 
ENDBRANCH   6  12
ENDBRANCH   1   3
BRANCH   1  16
ATOM     16  C   UNL d   1      59.557  49.358  50.377  0.00  0.00     0.137 C 
BRANCH  16  17
ATOM     17  C   UNL d   1      58.764  49.535  50.535  0.00  0.00     0.309 C 
ATOM     18  O   UNL d   1      58.491  49.538  51.314  0.00  0.00    -0.258 OA
BRANCH  17  19
ATOM     19  O   UNL d   1      58.247  49.708  49.916  0.00  0.00    -0.273 OA
BRANCH  19  20
ATOM     20  C   UNL d   1      57.561  49.609  49.993  0.00  0.00     0.103 A 
ATOM     21  C   UNL d   1      57.166  49.418  49.451  0.00  0.00     0.025 A 
ATOM     22  C   UNL d   1      56.473  49.317  49.525  0.00  0.00     0.002 A 
ATOM     23  C   UNL d   1      56.077  49.126  48.983  0.00  0.00     0.000 C 
ATOM     24  C   UNL d   1      56.182  49.412  50.157  0.00  0.00     0.000 A 
ATOM     25  C   UNL d   1      56.583  49.608  50.713  0.00  0.00     0.002 A 
ATOM     26  C   UNL d   1      57.270  49.704  50.625  0.00  0.00     0.025 A 
ATOM     27  C   UNL d   1      56.286  49.705  51.356  0.00  0.00     0.000 C 
ENDBRANCH  19  20
ENDBRANCH  17  19
ENDBRANCH  16  17
ENDBRANCH   1  16
TORSDOF 7
ENDMDL
