MODEL 1
REMARK VINA RESULT:      51.9      0.000      0.000
REMARK  3 active torsions:
REMARK  status: ('A' for Active; 'I' for Inactive)
REMARK    1  A    between atoms: C_11  and  N_2 
REMARK    2  A    between atoms: N_7  and  C_4 
REMARK    3  A    between atoms: C_14  and  C_11 
ROOT
ATOM      1  C   UNL d   1      13.645  13.305  -3.450  0.00  0.00     0.091 A 
ATOM      2  N   UNL d   1      13.437  14.263  -4.486  0.00  0.00    -0.211 N 
ATOM      3  C   UNL d   1      13.410  13.487  -4.218  0.00  0.00     0.170 A 
ATOM      4  C   UNL d   1      13.616  12.527  -3.189  0.00  0.00     0.154 A 
ATOM      5  N   UNL d   1      13.700  14.860  -3.984  0.00  0.00    -0.162 NA
ATOM      6  C   UNL d   1      13.936  14.676  -3.213  0.00  0.00     0.127 A 
ATOM      7  N   UNL d   1      13.147  12.891  -4.721  0.00  0.00    -0.205 NA
ATOM      8  N   UNL d   1      13.356  11.931  -3.681  0.00  0.00    -0.206 NA
ATOM      9  C   UNL d   1      13.119  12.115  -4.455  0.00  0.00     0.202 A 
ENDROOT
BRANCH   2  10
ATOM     10  C   UNL d   1      13.202  14.446  -5.255  0.00  0.00     0.102 C 
BRANCH  10  11
ATOM     11  C   UNL d   1      13.280  15.211  -5.538  0.00  0.00     0.019 A 
ATOM     12  C   UNL d   1      13.861  15.390  -6.093  0.00  0.00     0.002 A 
ATOM     13  C   UNL d   1      13.937  16.159  -6.377  0.00  0.00     0.011 A 
ATOM     14  C   UNL d   1      13.432  16.750  -6.105  0.00  0.00     0.058 A 
ATOM     15  C   UNL d   1      12.843  16.569  -5.543  0.00  0.00     0.011 A 
ATOM     16 CL   UNL d   1      13.506  17.526  -6.389  0.00  0.00    -0.082 Cl
ATOM     17  C   UNL d   1      12.771  15.801  -5.264  0.00  0.00     0.002 A 
ENDBRANCH  10  11
ENDBRANCH   2  10
BRANCH   4  18
ATOM     18  N   UNL d   1      13.859  12.337  -2.393  0.00  0.00    -0.289 N 
ATOM     19  C   UNL d   1      14.663  12.524  -2.149  0.00  0.00     0.082 A 
ATOM     20  C   UNL d   1      14.916  12.337  -1.352  0.00  0.00     0.019 A 
ATOM     21  C   UNL d   1      14.364  11.967  -0.808  0.00  0.00     0.003 A 
ATOM     22  C   UNL d   1      13.570  11.783  -1.050  0.00  0.00     0.019 A 
ATOM     23  C   UNL d   1      14.616  11.781  -0.014  0.00  0.00     0.000 C 
ATOM     24  C   UNL d   1      13.318  11.969  -1.844  0.00  0.00     0.082 A 
ENDBRANCH   4  18
TORSDOF 3
ENDMDL
MODEL 2
REMARK VINA RESULT:      52.7      2.544      4.268
REMARK  3 active torsions:
REMARK  status: ('A' for Active; 'I' for Inactive)
REMARK    1  A    between atoms: C_11  and  N_2 
REMARK    2  A    between atoms: N_7  and  C_4 
REMARK    3  A    between atoms: C_14  and  C_11 
ROOT
ATOM      1  C   UNL d   1      14.195  13.234  -2.402  0.00  0.00     0.091 A 
ATOM      2  N   UNL d   1      14.554  14.174  -1.391  0.00  0.00    -0.211 N 
ATOM      3  C   UNL d   1      14.472  13.397  -1.644  0.00  0.00     0.170 A 
ATOM      4  C   UNL d   1      14.115  12.455  -2.648  0.00  0.00     0.154 A 
ATOM      5  N   UNL d   1      14.359  14.792  -1.898  0.00  0.00    -0.162 NA
ATOM      6  C   UNL d   1      14.080  14.628  -2.659  0.00  0.00     0.127 A 
ATOM      7  N   UNL d   1      14.668  12.780  -1.136  0.00  0.00    -0.205 NA
ATOM      8  N   UNL d   1      14.308  11.838  -2.151  0.00  0.00    -0.206 NA
ATOM      9  C   UNL d   1      14.587  12.003  -1.386  0.00  0.00     0.202 A 
ENDROOT
BRANCH   2  10
ATOM     10  C   UNL d   1      14.832  14.337  -0.632  0.00  0.00     0.102 C 
BRANCH  10  11
ATOM     11  C   UNL d   1      15.236  15.035  -0.482  0.00  0.00     0.019 A 
ATOM     12  C   UNL d   1      14.857  15.760  -0.571  0.00  0.00     0.002 A 
ATOM     13  C   UNL d   1      15.265  16.459  -0.420  0.00  0.00     0.011 A 
ATOM     14  C   UNL d   1      16.052  16.432  -0.180  0.00  0.00     0.058 A 
ATOM     15  C   UNL d   1      16.437  15.698  -0.090  0.00  0.00     0.011 A 
ATOM     16 CL   UNL d   1      16.466  17.135  -0.027  0.00  0.00    -0.082 Cl
ATOM     17  C   UNL d   1      16.025  15.004  -0.242  0.00  0.00     0.002 A 
ENDBRANCH  10  11
ENDBRANCH   2  10
BRANCH   4  18
ATOM     18  N   UNL d   1      13.828  12.286  -3.435  0.00  0.00    -0.289 N 
ATOM     19  C   UNL d   1      14.336  12.456  -4.107  0.00  0.00     0.082 A 
ATOM     20  C   UNL d   1      14.056  12.290  -4.900  0.00  0.00     0.019 A 
ATOM     21  C   UNL d   1      13.272  11.955  -5.011  0.00  0.00     0.003 A 
ATOM     22  C   UNL d   1      12.771  11.788  -4.345  0.00  0.00     0.019 A 
ATOM     23  C   UNL d   1      12.993  11.790  -5.800  0.00  0.00     0.000 C 
ATOM     24  C   UNL d   1      13.050  11.954  -3.556  0.00  0.00     0.082 A 
ENDBRANCH   4  18
TORSDOF 3
ENDMDL
