MODEL 1
REMARK VINA RESULT:      31.7      0.000      0.000
REMARK  4 active torsions:
REMARK  status: ('A' for Active; 'I' for Inactive)
REMARK       I    between atoms: N_2  and  C_1 
REMARK    1  A    between atoms: C_5  and  C_1 
REMARK    2  A    between atoms: C_8  and  N_2 
REMARK    3  A    between atoms: O_9  and  C_5 
REMARK    4  A    between atoms: C_11  and  O_9 
ROOT
ATOM      1  C   UNL d   1     -57.532 -98.774 -45.098  0.00  0.00     0.290 C 
ATOM      2  N   UNL d   1     -58.338 -98.770 -44.925  0.00  0.00    -0.270 N 
ATOM      3  O   UNL d   1     -57.279 -98.774 -45.887  0.00  0.00    -0.264 OA
ATOM      4  C   UNL d   1     -58.895 -98.766 -45.550  0.00  0.00     0.102 C 
ENDROOT
BRANCH   1   5
ATOM      5  C   UNL d   1     -56.981 -98.778 -44.490  0.00  0.00     0.184 C 
BRANCH   5   6
ATOM      6  O   UNL d   1     -56.180 -98.910 -44.656  0.00  0.00    -0.300 OA
BRANCH   6   7
ATOM      7  C   UNL d   1     -55.810 -99.619 -44.420  0.00  0.00     0.100 A 
ATOM      8  C   UNL d   1     -55.775-100.266 -44.933  0.00  0.00     0.025 A 
ATOM      9  C   UNL d   1     -55.409-100.962 -44.697  0.00  0.00     0.013 A 
ATOM     10  C   UNL d   1     -55.374-101.602 -45.205  0.00  0.00     0.001 C 
ATOM     11  C   UNL d   1     -55.077-101.013 -43.945  0.00  0.00     0.058 A 
ATOM     12  C   UNL d   1     -55.112-100.368 -43.433  0.00  0.00     0.013 A 
ATOM     13 CL   UNL d   1     -54.711-101.709 -43.708  0.00  0.00    -0.082 Cl
ATOM     14  C   UNL d   1     -55.480 -99.668 -43.670  0.00  0.00     0.026 A 
ENDBRANCH   6   7
ENDBRANCH   5   6
ENDBRANCH   1   5
BRANCH   2  15
ATOM     15  C   UNL d   1     -58.587 -98.770 -44.149  0.00  0.00     0.067 A 
ATOM     16  C   UNL d   1     -59.405 -98.776 -43.986  0.00  0.00     0.018 A 
ATOM     17  C   UNL d   1     -59.655 -98.776 -43.207  0.00  0.00     0.002 A 
ATOM     18  C   UNL d   1     -59.101 -98.769 -42.583  0.00  0.00     0.000 A 
ATOM     19  C   UNL d   1     -58.290 -98.763 -42.737  0.00  0.00     0.002 A 
ATOM     20  C   UNL d   1     -58.034 -98.763 -43.535  0.00  0.00     0.018 A 
ENDBRANCH   2  15
TORSDOF 4
ENDMDL
