MODEL 1
REMARK VINA RESULT:      -8.8      0.000      0.000
REMARK  4 active torsions:
REMARK  status: ('A' for Active; 'I' for Inactive)
REMARK    1  A    between atoms: C_9  and  C_3 
REMARK    2  A    between atoms: C_11  and  C_8 
REMARK    3  A    between atoms: N_10  and  C_11 
REMARK    4  A    between atoms: C_18  and  N_10 
ROOT
ATOM      1  N   UNL d   1      52.718  33.673  53.546  0.00  0.00    -0.267 N 
ATOM      2  C   UNL d   1      53.391  33.910  53.960  0.00  0.00     0.201 A 
ATOM      3  C   UNL d   1      52.297  34.355  53.335  0.00  0.00     0.171 A 
ATOM      4  N   UNL d   1      52.712  35.002  53.620  0.00  0.00    -0.128 NA
ATOM      5  N   UNL d   1      53.387  34.728  54.005  0.00  0.00    -0.121 NA
ATOM      6  S   UNL d   1      53.813  33.229  54.170  0.00  0.00    -0.045 SA
ATOM      7  C   UNL d   1      52.720  32.849  53.498  0.00  0.00     0.091 A 
ATOM      8  C   UNL d   1      53.395  32.575  53.883  0.00  0.00     0.069 A 
ENDROOT
BRANCH   3   9
ATOM      9  C   UNL d   1      51.583  34.370  52.912  0.00  0.00     0.036 A 
ATOM     10  C   UNL d   1      50.874  34.475  53.318  0.00  0.00     0.004 A 
ATOM     11  C   UNL d   1      50.159  34.491  52.904  0.00  0.00     0.007 A 
ATOM     12  C   UNL d   1      50.162  34.401  52.084  0.00  0.00     0.035 A 
ATOM     13  C   UNL d   1      50.865  34.295  51.677  0.00  0.00     0.007 A 
ATOM     14 BR   UNL d   1      49.458  34.415  51.663  0.00  0.00    -0.049 Br
ATOM     15  C   UNL d   1      51.577  34.281  52.099  0.00  0.00     0.004 A 
ENDBRANCH   3   9
BRANCH   8  16
ATOM     16  C   UNL d   1      53.621  31.789  53.971  0.00  0.00     0.107 C 
BRANCH  16  17
ATOM     17  N   UNL d   1      53.306  31.213  53.466  0.00  0.00    -0.243 NA
BRANCH  17  18
ATOM     18  C   UNL d   1      53.300  30.417  53.696  0.00  0.00     0.081 A 
ATOM     19  C   UNL d   1      52.866  29.938  53.184  0.00  0.00     0.019 A 
ATOM     20  C   UNL d   1      52.910  29.165  53.483  0.00  0.00     0.002 A 
ATOM     21  C   UNL d   1      53.368  29.179  54.173  0.00  0.00     0.002 A 
ATOM     22  C   UNL d   1      53.609  29.953  54.305  0.00  0.00     0.019 A 
ENDBRANCH  17  18
ENDBRANCH  16  17
ENDBRANCH   8  16
TORSDOF 4
ENDMDL
MODEL 2
REMARK VINA RESULT:      -8.3      1.742      4.424
REMARK  4 active torsions:
REMARK  status: ('A' for Active; 'I' for Inactive)
REMARK    1  A    between atoms: C_9  and  C_3 
REMARK    2  A    between atoms: C_11  and  C_8 
REMARK    3  A    between atoms: N_10  and  C_11 
REMARK    4  A    between atoms: C_18  and  N_10 
ROOT
ATOM      1  N   UNL d   1      52.881  33.115  53.402  0.00  0.00    -0.267 N 
ATOM      2  C   UNL d   1      53.238  33.859  53.399  0.00  0.00     0.201 A 
ATOM      3  C   UNL d   1      53.480  32.547  53.477  0.00  0.00     0.171 A 
ATOM      4  N   UNL d   1      54.196  32.944  53.518  0.00  0.00    -0.128 NA
ATOM      5  N   UNL d   1      54.047  33.753  53.470  0.00  0.00    -0.121 NA
ATOM      6  S   UNL d   1      52.640  34.426  53.324  0.00  0.00    -0.045 SA
ATOM      7  C   UNL d   1      52.065  33.219  53.330  0.00  0.00     0.091 A 
ATOM      8  C   UNL d   1      51.916  34.028  53.281  0.00  0.00     0.069 A 
ENDROOT
BRANCH   3   9
ATOM      9  C   UNL d   1      53.365  31.726  53.503  0.00  0.00     0.036 A 
ATOM     10  C   UNL d   1      53.518  31.318  54.203  0.00  0.00     0.004 A 
ATOM     11  C   UNL d   1      53.406  30.500  54.238  0.00  0.00     0.007 A 
ATOM     12  C   UNL d   1      53.142  30.097  53.568  0.00  0.00     0.035 A 
ATOM     13  C   UNL d   1      52.989  30.498  52.871  0.00  0.00     0.007 A 
ATOM     14 BR   UNL d   1      53.028  29.285  53.592  0.00  0.00    -0.049 Br
ATOM     15  C   UNL d   1      53.104  31.318  52.844  0.00  0.00     0.004 A 
ENDBRANCH   3   9
BRANCH   8  16
ATOM     16  C   UNL d   1      51.179  34.384  53.205  0.00  0.00     0.107 C 
BRANCH  16  17
ATOM     17  N   UNL d   1      50.676  34.155  52.587  0.00  0.00    -0.243 NA
BRANCH  17  18
ATOM     18  C   UNL d   1      49.941  34.526  52.492  0.00  0.00     0.081 A 
ATOM     19  C   UNL d   1      49.612  34.400  51.747  0.00  0.00     0.019 A 
ATOM     20  C   UNL d   1      48.885  34.801  51.734  0.00  0.00     0.002 A 
ATOM     21  C   UNL d   1      48.777  35.166  52.470  0.00  0.00     0.002 A 
ATOM     22  C   UNL d   1      49.430  34.996  52.938  0.00  0.00     0.019 A 
ENDBRANCH  17  18
ENDBRANCH  16  17
ENDBRANCH   8  16
TORSDOF 4
ENDMDL
MODEL 3
REMARK VINA RESULT:      -8.0      2.341      4.700
REMARK  4 active torsions:
REMARK  status: ('A' for Active; 'I' for Inactive)
REMARK    1  A    between atoms: C_9  and  C_3 
REMARK    2  A    between atoms: C_11  and  C_8 
REMARK    3  A    between atoms: N_10  and  C_11 
REMARK    4  A    between atoms: C_18  and  N_10 
ROOT
ATOM      1  N   UNL d   1      52.547  32.701  53.402  0.00  0.00    -0.267 N 
ATOM      2  C   UNL d   1      52.170  32.163  52.903  0.00  0.00     0.201 A 
ATOM      3  C   UNL d   1      53.311  32.418  53.551  0.00  0.00     0.171 A 
ATOM      4  N   UNL d   1      53.397  31.711  53.144  0.00  0.00    -0.128 NA
ATOM      5  N   UNL d   1      52.694  31.554  52.745  0.00  0.00    -0.121 NA
ATOM      6  S   UNL d   1      51.406  32.447  52.755  0.00  0.00    -0.045 SA
ATOM      7  C   UNL d   1      52.020  33.317  53.564  0.00  0.00     0.091 A 
ATOM      8  C   UNL d   1      51.317  33.160  53.164  0.00  0.00     0.069 A 
ENDROOT
BRANCH   3   9
ATOM      9  C   UNL d   1      53.879  32.789  54.027  0.00  0.00     0.036 A 
ATOM     10  C   UNL d   1      54.482  33.225  53.673  0.00  0.00     0.004 A 
ATOM     11  C   UNL d   1      55.053  33.598  54.140  0.00  0.00     0.007 A 
ATOM     12  C   UNL d   1      55.013  33.530  54.962  0.00  0.00     0.035 A 
ATOM     13  C   UNL d   1      54.415  33.099  55.318  0.00  0.00     0.007 A 
ATOM     14 BR   UNL d   1      55.574  33.897  55.435  0.00  0.00    -0.049 Br
ATOM     15  C   UNL d   1      53.847  32.728  54.842  0.00  0.00     0.004 A 
ENDBRANCH   3   9
BRANCH   8  16
ATOM     16  C   UNL d   1      50.640  33.626  53.168  0.00  0.00     0.107 C 
BRANCH  16  17
ATOM     17  N   UNL d   1      50.489  34.134  52.531  0.00  0.00    -0.243 NA
BRANCH  17  18
ATOM     18  C   UNL d   1      49.802  34.598  52.523  0.00  0.00     0.081 A 
ATOM     19  C   UNL d   1      49.431  34.612  51.788  0.00  0.00     0.019 A 
ATOM     20  C   UNL d   1      48.759  35.094  51.865  0.00  0.00     0.002 A 
ATOM     21  C   UNL d   1      48.727  35.369  52.646  0.00  0.00     0.002 A 
ATOM     22  C   UNL d   1      49.372  35.063  53.053  0.00  0.00     0.019 A 
ENDBRANCH  17  18
ENDBRANCH  16  17
ENDBRANCH   8  16
TORSDOF 4
ENDMDL
MODEL 4
REMARK VINA RESULT:      -5.9      1.850      2.382
REMARK  4 active torsions:
REMARK  status: ('A' for Active; 'I' for Inactive)
REMARK    1  A    between atoms: C_9  and  C_3 
REMARK    2  A    between atoms: C_11  and  C_8 
REMARK    3  A    between atoms: N_10  and  C_11 
REMARK    4  A    between atoms: C_18  and  N_10 
ROOT
ATOM      1  N   UNL d   1      52.580  32.805  53.177  0.00  0.00    -0.267 N 
ATOM      2  C   UNL d   1      52.170  32.358  52.617  0.00  0.00     0.201 A 
ATOM      3  C   UNL d   1      52.335  33.593  53.101  0.00  0.00     0.171 A 
ATOM      4  N   UNL d   1      51.780  33.624  52.499  0.00  0.00    -0.128 NA
ATOM      5  N   UNL d   1      51.678  32.862  52.200  0.00  0.00    -0.121 NA
ATOM      6  S   UNL d   1      52.415  31.571  52.694  0.00  0.00    -0.045 SA
ATOM      7  C   UNL d   1      53.077  32.298  53.599  0.00  0.00     0.091 A 
ATOM      8  C   UNL d   1      52.976  31.537  53.301  0.00  0.00     0.069 A 
ENDROOT
BRANCH   3   9
ATOM      9  C   UNL d   1      52.609  34.229  53.557  0.00  0.00     0.036 A 
ATOM     10  C   UNL d   1      53.112  34.786  53.215  0.00  0.00     0.004 A 
ATOM     11  C   UNL d   1      53.389  35.423  53.663  0.00  0.00     0.007 A 
ATOM     12  C   UNL d   1      53.158  35.496  54.452  0.00  0.00     0.035 A 
ATOM     13  C   UNL d   1      52.658  34.946  54.795  0.00  0.00     0.007 A 
ATOM     14 BR   UNL d   1      53.427  36.125  54.905  0.00  0.00    -0.049 Br
ATOM     15  C   UNL d   1      52.385  34.310  54.339  0.00  0.00     0.004 A 
ENDBRANCH   3   9
BRANCH   8  16
ATOM     16  C   UNL d   1      53.361  30.858  53.558  0.00  0.00     0.107 C 
BRANCH  16  17
ATOM     17  N   UNL d   1      53.066  30.442  54.211  0.00  0.00    -0.243 NA
BRANCH  17  18
ATOM     18  C   UNL d   1      53.313  29.664  54.354  0.00  0.00     0.081 A 
ATOM     19  C   UNL d   1      53.108  29.394  55.105  0.00  0.00     0.019 A 
ATOM     20  C   UNL d   1      53.388  28.615  55.166  0.00  0.00     0.002 A 
ATOM     21  C   UNL d   1      53.762  28.417  54.454  0.00  0.00     0.002 A 
ATOM     22  C   UNL d   1      53.715  29.065  53.951  0.00  0.00     0.019 A 
ENDBRANCH  17  18
ENDBRANCH  16  17
ENDBRANCH   8  16
TORSDOF 4
ENDMDL
