MODEL 1
REMARK VINA RESULT:      -7.4      0.000      0.000
REMARK  3 active torsions:
REMARK  status: ('A' for Active; 'I' for Inactive)
REMARK    1  A    between atoms: N_2  and  S_1 
REMARK    2  A    between atoms: N_3  and  S_1 
REMARK    3  A    between atoms: C_4  and  N_2 
ROOT
ATOM      1  S   UNL d   1     -48.395  11.787  23.298  0.00  0.00     0.351 S 
ATOM      2  O   UNL d   1     -48.403  12.506  23.698  0.00  0.00    -0.180 OA
ATOM      3  O   UNL d   1     -48.392  11.064  22.896  0.00  0.00    -0.180 OA
ENDROOT
BRANCH   1   4
ATOM      4  N   UNL d   1     -49.213  11.700  23.291  0.00  0.00    -0.144 NA
BRANCH   4   5
ATOM      5  C   UNL d   1     -49.679  12.133  22.747  0.00  0.00     0.095 A 
ATOM      6  C   UNL d   1     -50.423  12.434  22.978  0.00  0.00     0.018 A 
ATOM      7  C   UNL d   1     -50.878  12.873  22.443  0.00  0.00     0.002 A 
ATOM      8  C   UNL d   1     -50.756  12.183  23.698  0.00  0.00     0.002 C 
ATOM      9  C   UNL d   1     -50.593  13.006  21.671  0.00  0.00     0.000 A 
ATOM     10  C   UNL d   1     -49.849  12.711  21.427  0.00  0.00     0.002 A 
ATOM     11  C   UNL d   1     -51.061  13.429  21.139  0.00  0.00     0.000 C 
ATOM     12  C   UNL d   1     -49.391  12.274  21.973  0.00  0.00     0.020 A 
ENDBRANCH   4   5
ENDBRANCH   1   4
BRANCH   1  13
ATOM     13  N   UNL d   1     -47.572  11.813  23.271  0.00  0.00    -0.215 N 
ATOM     14  C   UNL d   1     -47.134  11.142  23.492  0.00  0.00     0.093 C 
ATOM     15  C   UNL d   1     -46.318  11.171  23.464  0.00  0.00     0.020 C 
ATOM     16  C   UNL d   1     -45.924  11.883  23.327  0.00  0.00     0.003 C 
ATOM     17  C   UNL d   1     -46.360  12.573  23.217  0.00  0.00     0.020 C 
ATOM     18  C   UNL d   1     -47.188  12.551  23.244  0.00  0.00     0.093 C 
ENDBRANCH   1  13
TORSDOF 3
ENDMDL
MODEL 2
REMARK VINA RESULT:      -7.4      1.307      3.851
REMARK  3 active torsions:
REMARK  status: ('A' for Active; 'I' for Inactive)
REMARK    1  A    between atoms: N_2  and  S_1 
REMARK    2  A    between atoms: N_3  and  S_1 
REMARK    3  A    between atoms: C_4  and  N_2 
ROOT
ATOM      1  S   UNL d   1     -49.180  13.259  22.892  0.00  0.00     0.351 S 
ATOM      2  O   UNL d   1     -49.085  12.795  22.219  0.00  0.00    -0.180 OA
ATOM      3  O   UNL d   1     -49.272  13.723  23.571  0.00  0.00    -0.180 OA
ENDROOT
BRANCH   1   4
ATOM      4  N   UNL d   1     -48.588  12.882  23.323  0.00  0.00    -0.144 NA
BRANCH   4   5
ATOM      5  C   UNL d   1     -47.784  12.995  23.123  0.00  0.00     0.095 A 
ATOM      6  C   UNL d   1     -47.231  12.382  23.247  0.00  0.00     0.018 A 
ATOM      7  C   UNL d   1     -46.437  12.490  23.037  0.00  0.00     0.002 A 
ATOM      8  C   UNL d   1     -47.454  11.719  23.697  0.00  0.00     0.002 C 
ATOM      9  C   UNL d   1     -46.192  13.215  22.708  0.00  0.00     0.000 A 
ATOM     10  C   UNL d   1     -46.736  13.837  22.576  0.00  0.00     0.002 A 
ATOM     11  C   UNL d   1     -45.395  13.321  22.518  0.00  0.00     0.000 C 
ATOM     12  C   UNL d   1     -47.537  13.720  22.784  0.00  0.00     0.020 A 
ENDBRANCH   4   5
ENDBRANCH   1   4
BRANCH   1  13
ATOM     13  N   UNL d   1     -49.783  13.677  22.518  0.00  0.00    -0.215 N 
ATOM     14  C   UNL d   1     -50.129  14.328  22.902  0.00  0.00     0.093 C 
ATOM     15  C   UNL d   1     -50.727  14.740  22.528  0.00  0.00     0.020 C 
ATOM     16  C   UNL d   1     -51.064  14.457  21.830  0.00  0.00     0.003 C 
ATOM     17  C   UNL d   1     -50.794  13.750  21.506  0.00  0.00     0.020 C 
ATOM     18  C   UNL d   1     -50.187  13.325  21.880  0.00  0.00     0.093 C 
ENDBRANCH   1  13
TORSDOF 3
ENDMDL
MODEL 3
REMARK VINA RESULT:      -7.3      1.747      2.089
REMARK  3 active torsions:
REMARK  status: ('A' for Active; 'I' for Inactive)
REMARK    1  A    between atoms: N_2  and  S_1 
REMARK    2  A    between atoms: N_3  and  S_1 
REMARK    3  A    between atoms: C_4  and  N_2 
ROOT
ATOM      1  S   UNL d   1     -48.503  13.038  22.582  0.00  0.00     0.351 S 
ATOM      2  O   UNL d   1     -49.041  12.739  23.128  0.00  0.00    -0.180 OA
ATOM      3  O   UNL d   1     -47.966  13.341  22.030  0.00  0.00    -0.180 OA
ENDROOT
BRANCH   1   4
ATOM      4  N   UNL d   1     -49.066  13.452  22.147  0.00  0.00    -0.144 NA
BRANCH   4   5
ATOM      5  C   UNL d   1     -49.498  14.075  22.501  0.00  0.00     0.095 A 
ATOM      6  C   UNL d   1     -50.300  14.195  22.301  0.00  0.00     0.018 A 
ATOM      7  C   UNL d   1     -50.731  14.804  22.661  0.00  0.00     0.002 A 
ATOM      8  C   UNL d   1     -50.622  13.788  21.651  0.00  0.00     0.002 C 
ATOM      9  C   UNL d   1     -50.359  15.300  23.218  0.00  0.00     0.000 A 
ATOM     10  C   UNL d   1     -49.557  15.189  23.428  0.00  0.00     0.002 A 
ATOM     11  C   UNL d   1     -50.791  15.915  23.558  0.00  0.00     0.000 C 
ATOM     12  C   UNL d   1     -49.128  14.569  23.067  0.00  0.00     0.020 A 
ENDBRANCH   4   5
ENDBRANCH   1   4
BRANCH   1  13
ATOM     13  N   UNL d   1     -47.891  12.648  22.972  0.00  0.00    -0.215 N 
ATOM     14  C   UNL d   1     -47.112  12.923  22.890  0.00  0.00     0.093 C 
ATOM     15  C   UNL d   1     -46.508  12.533  23.277  0.00  0.00     0.020 C 
ATOM     16  C   UNL d   1     -46.643  11.813  23.656  0.00  0.00     0.003 C 
ATOM     17  C   UNL d   1     -47.397  11.483  23.642  0.00  0.00     0.020 C 
ATOM     18  C   UNL d   1     -48.016  11.873  23.251  0.00  0.00     0.093 C 
ENDBRANCH   1  13
TORSDOF 3
ENDMDL
MODEL 4
REMARK VINA RESULT:      -5.9      8.941     10.542
REMARK  3 active torsions:
REMARK  status: ('A' for Active; 'I' for Inactive)
REMARK    1  A    between atoms: N_2  and  S_1 
REMARK    2  A    between atoms: N_3  and  S_1 
REMARK    3  A    between atoms: C_4  and  N_2 
ROOT
ATOM      1  S   UNL d   1     -40.400  14.721  18.873  0.00  0.00     0.351 S 
ATOM      2  O   UNL d   1     -39.949  15.403  18.785  0.00  0.00    -0.180 OA
ATOM      3  O   UNL d   1     -40.854  14.034  18.957  0.00  0.00    -0.180 OA
ENDROOT
BRANCH   1   4
ATOM      4  N   UNL d   1     -40.485  14.587  18.066  0.00  0.00    -0.144 NA
BRANCH   4   5
ATOM      5  C   UNL d   1     -39.846  14.285  17.618  0.00  0.00     0.095 A 
ATOM      6  C   UNL d   1     -39.649  14.628  16.883  0.00  0.00     0.018 A 
ATOM      7  C   UNL d   1     -39.009  14.337  16.447  0.00  0.00     0.002 A 
ATOM      8  C   UNL d   1     -40.174  15.173  16.536  0.00  0.00     0.002 C 
ATOM      9  C   UNL d   1     -38.566  13.695  16.741  0.00  0.00     0.000 A 
ATOM     10  C   UNL d   1     -38.752  13.343  17.478  0.00  0.00     0.002 A 
ATOM     11  C   UNL d   1     -37.940  13.399  16.292  0.00  0.00     0.000 C 
ATOM     12  C   UNL d   1     -39.395  13.645  17.917  0.00  0.00     0.020 A 
ENDBRANCH   4   5
ENDBRANCH   1   4
BRANCH   1  13
ATOM     13  N   UNL d   1     -40.354  14.796  19.693  0.00  0.00    -0.215 N 
ATOM     14  C   UNL d   1     -40.820  14.307  20.176  0.00  0.00     0.093 C 
ATOM     15  C   UNL d   1     -40.772  14.386  20.988  0.00  0.00     0.020 C 
ATOM     16  C   UNL d   1     -40.355  15.011  21.329  0.00  0.00     0.003 C 
ATOM     17  C   UNL d   1     -39.983  15.562  20.844  0.00  0.00     0.020 C 
ATOM     18  C   UNL d   1     -40.027  15.489  20.019  0.00  0.00     0.093 C 
ENDBRANCH   1  13
TORSDOF 3
ENDMDL
MODEL 5
REMARK VINA RESULT:      -5.2      1.994      4.061
REMARK  3 active torsions:
REMARK  status: ('A' for Active; 'I' for Inactive)
REMARK    1  A    between atoms: N_2  and  S_1 
REMARK    2  A    between atoms: N_3  and  S_1 
REMARK    3  A    between atoms: C_4  and  N_2 
ROOT
ATOM      1  S   UNL d   1     -48.685  14.416  22.581  0.00  0.00     0.351 S 
ATOM      2  O   UNL d   1     -48.460  14.689  23.324  0.00  0.00    -0.180 OA
ATOM      3  O   UNL d   1     -48.906  14.139  21.833  0.00  0.00    -0.180 OA
ENDROOT
BRANCH   1   4
ATOM      4  N   UNL d   1     -47.930  14.173  22.363  0.00  0.00    -0.144 NA
BRANCH   4   5
ATOM      5  C   UNL d   1     -47.595  13.482  22.696  0.00  0.00     0.095 A 
ATOM      6  C   UNL d   1     -46.780  13.454  22.874  0.00  0.00     0.018 A 
ATOM      7  C   UNL d   1     -46.452  12.775  23.216  0.00  0.00     0.002 A 
ATOM      8  C   UNL d   1     -46.282  14.057  22.590  0.00  0.00     0.002 C 
ATOM      9  C   UNL d   1     -46.938  12.117  23.374  0.00  0.00     0.000 A 
ATOM     10  C   UNL d   1     -47.758  12.132  23.202  0.00  0.00     0.002 A 
ATOM     11  C   UNL d   1     -46.600  11.437  23.698  0.00  0.00     0.000 C 
ATOM     12  C   UNL d   1     -48.084  12.823  22.863  0.00  0.00     0.020 A 
ENDBRANCH   4   5
ENDBRANCH   1   4
BRANCH   1  13
ATOM     13  N   UNL d   1     -49.464  14.636  22.737  0.00  0.00    -0.215 N 
ATOM     14  C   UNL d   1     -50.056  14.465  22.180  0.00  0.00     0.093 C 
ATOM     15  C   UNL d   1     -50.827  14.686  22.338  0.00  0.00     0.020 C 
ATOM     16  C   UNL d   1     -51.007  15.168  22.982  0.00  0.00     0.003 C 
ATOM     17  C   UNL d   1     -50.400  15.431  23.473  0.00  0.00     0.020 C 
ATOM     18  C   UNL d   1     -49.615  15.211  23.320  0.00  0.00     0.093 C 
ENDBRANCH   1  13
TORSDOF 3
ENDMDL
