MODEL 1
REMARK VINA RESULT:      -2.9      0.000      0.000
REMARK  5 active torsions:
REMARK  status: ('A' for Active; 'I' for Inactive)
REMARK    1  A    between atoms: C_10  and  C_4 
REMARK    2  A    between atoms: C_19  and  N_5 
REMARK       I    between atoms: N_11  and  C_10 
REMARK    3  A    between atoms: C_22  and  C_19 
REMARK    4  A    between atoms: C_26  and  C_22 
REMARK    5  A    between atoms: O_23  and  C_26 
ROOT
ATOM      1  C   UNL d   1      57.493  -0.516  31.126  0.00  0.00     0.154 A 
ATOM      2  C   UNL d   1      57.639   0.083  31.674  0.00  0.00     0.093 A 
ATOM      3  N   UNL d   1      56.988  -1.120  31.309  0.00  0.00    -0.210 NA
ATOM      4  C   UNL d   1      58.342   0.090  30.236  0.00  0.00     0.122 A 
ATOM      5  N   UNL d   1      57.842  -0.511  30.414  0.00  0.00    -0.286 N 
ATOM      6  C   UNL d   1      57.286   0.082  32.399  0.00  0.00     0.269 A 
ATOM      7  N   UNL d   1      56.782  -0.528  32.572  0.00  0.00    -0.258 N 
ATOM      8  C   UNL d   1      56.635  -1.127  32.024  0.00  0.00     0.152 A 
ATOM      9  C   UNL d   1      58.486   0.679  30.775  0.00  0.00     0.030 A 
ATOM     10  C   UNL d   1      56.432  -0.523  33.297  0.00  0.00     0.084 A 
ATOM     11  O   UNL d   1      57.432   0.682  32.947  0.00  0.00    -0.266 OA
ATOM     12  C   UNL d   1      56.139  -1.722  32.202  0.00  0.00     0.038 A 
ATOM     13  C   UNL d   1      55.933  -1.133  33.461  0.00  0.00     0.019 A 
ATOM     14  C   UNL d   1      55.786  -1.732  32.913  0.00  0.00     0.005 A 
ENDROOT
BRANCH   4  15
ATOM     15  C   UNL d   1      58.700   0.093  29.505  0.00  0.00     0.281 C 
ATOM     16  N   UNL d   1      59.511   0.290  29.453  0.00  0.00    -0.267 N 
ATOM     17  C   UNL d   1      59.881   0.295  28.703  0.00  0.00     0.110 A 
ATOM     18  C   UNL d   1      59.942   0.479  30.145  0.00  0.00     0.110 A 
ATOM     19  C   UNL d   1      60.694   0.491  28.645  0.00  0.00     0.142 A 
ATOM     20  O   UNL d   1      61.133   0.681  29.333  0.00  0.00    -0.300 OA
ATOM     21  C   UNL d   1      60.756   0.675  30.081  0.00  0.00     0.142 A 
ATOM     22  O   UNL d   1      58.266  -0.094  28.834  0.00  0.00    -0.265 OA
ENDBRANCH   4  15
BRANCH   5  23
ATOM     23  C   UNL d   1      57.689  -1.120  29.867  0.00  0.00     0.084 C 
BRANCH  23  24
ATOM     24  C   UNL d   1      58.151  -1.811  29.868  0.00  0.00     0.045 C 
BRANCH  24  25
ATOM     25  C   UNL d   1      58.050  -2.376  29.264  0.00  0.00     0.118 C 
BRANCH  25  26
ATOM     26  O   UNL d   1      58.547  -3.041  29.238  0.00  0.00    -0.326 OA
ATOM     27  C   UNL d   1      58.622  -3.479  28.528  0.00  0.00     0.181 C 
ENDBRANCH  25  26
ENDBRANCH  24  25
ENDBRANCH  23  24
ENDBRANCH   5  23
TORSDOF 5
ENDMDL
