MODEL 1
REMARK VINA RESULT:      -6.9      0.000      0.000
REMARK  5 active torsions:
REMARK  status: ('A' for Active; 'I' for Inactive)
REMARK    1  A    between atoms: C_7  and  N_1 
REMARK       I    between atoms: C_4  and  N_8 
REMARK       I    between atoms: N_10  and  C_4 
REMARK    2  A    between atoms: N_8  and  C_5 
REMARK    3  A    between atoms: C_15  and  N_10 
REMARK    4  A    between atoms: O_18  and  C_14 
REMARK    5  A    between atoms: C_19  and  C_15 
ROOT
ATOM      1  N   UNL d   1     -47.490  13.485  22.741  0.00  0.00    -0.272 N 
ATOM      2  C   UNL d   1     -46.931  14.070  22.918  0.00  0.00     0.266 A 
ATOM      3  C   UNL d   1     -46.217  13.680  23.085  0.00  0.00     0.082 A 
ATOM      4  C   UNL d   1     -46.340  12.868  23.010  0.00  0.00     0.108 A 
ATOM      5  C   UNL d   1     -47.131  12.753  22.797  0.00  0.00     0.102 A 
ATOM      6  O   UNL d   1     -47.058  14.879  22.927  0.00  0.00    -0.267 OA
ENDROOT
BRANCH   1   7
ATOM      7  C   UNL d   1     -48.278  13.623  22.542  0.00  0.00     0.067 A 
ATOM      8  C   UNL d   1     -48.827  13.803  23.133  0.00  0.00     0.020 A 
ATOM      9  C   UNL d   1     -49.616  13.941  22.934  0.00  0.00     0.026 A 
ATOM     10  C   UNL d   1     -49.856  13.900  22.146  0.00  0.00     0.094 A 
ATOM     11  C   UNL d   1     -49.314  13.721  21.554  0.00  0.00     0.026 A 
ATOM     12  C   UNL d   1     -48.518  13.582  21.756  0.00  0.00     0.020 A 
BRANCH  10  13
ATOM     13  O   UNL d   1     -50.647  14.039  21.956  0.00  0.00    -0.328 OA
ATOM     14  C   UNL d   1     -51.000  14.747  22.186  0.00  0.00     0.181 C 
ENDBRANCH  10  13
ENDBRANCH   1   7
BRANCH   4  15
ATOM     15  N   UNL d   1     -45.771  12.279  23.128  0.00  0.00    -0.189 NA
ATOM     16  C   UNL d   1     -45.111  12.248  22.641  0.00  0.00     0.369 C 
ATOM     17  N   UNL d   1     -44.540  11.662  22.755  0.00  0.00    -0.189 NA
ATOM     18  O   UNL d   1     -45.014  12.798  22.037  0.00  0.00    -0.242 OA
BRANCH  17  19
ATOM     19  C   UNL d   1     -44.640  11.118  23.354  0.00  0.00     0.104 C 
BRANCH  19  20
ATOM     20  C   UNL d   1     -44.098  10.504  23.455  0.00  0.00     0.019 C 
ATOM     21  C   UNL d   1     -43.296  10.625  23.316  0.00  0.00     0.002 C 
ATOM     22  C   UNL d   1     -44.360   9.757  23.698  0.00  0.00     0.002 C 
ENDBRANCH  19  20
ENDBRANCH  17  19
ENDBRANCH   4  15
TORSDOF 5
ENDMDL
MODEL 2
REMARK VINA RESULT:      -6.3      1.383      1.899
REMARK  5 active torsions:
REMARK  status: ('A' for Active; 'I' for Inactive)
REMARK    1  A    between atoms: C_7  and  N_1 
REMARK       I    between atoms: C_4  and  N_8 
REMARK       I    between atoms: N_10  and  C_4 
REMARK    2  A    between atoms: N_8  and  C_5 
REMARK    3  A    between atoms: C_15  and  N_10 
REMARK    4  A    between atoms: O_18  and  C_14 
REMARK    5  A    between atoms: C_19  and  C_15 
ROOT
ATOM      1  N   UNL d   1     -48.113  13.513  22.754  0.00  0.00    -0.272 N 
ATOM      2  C   UNL d   1     -48.074  12.787  23.149  0.00  0.00     0.266 A 
ATOM      3  C   UNL d   1     -47.313  12.480  23.019  0.00  0.00     0.082 A 
ATOM      4  C   UNL d   1     -46.895  13.013  22.549  0.00  0.00     0.108 A 
ATOM      5  C   UNL d   1     -47.396  13.651  22.388  0.00  0.00     0.102 A 
ATOM      6  O   UNL d   1     -48.672  12.436  23.587  0.00  0.00    -0.267 OA
ENDROOT
BRANCH   1   7
ATOM      7  C   UNL d   1     -48.770  14.011  22.734  0.00  0.00     0.067 A 
ATOM      8  C   UNL d   1     -49.255  14.028  22.064  0.00  0.00     0.020 A 
ATOM      9  C   UNL d   1     -49.912  14.526  22.045  0.00  0.00     0.026 A 
ATOM     10  C   UNL d   1     -50.085  15.007  22.691  0.00  0.00     0.094 A 
ATOM     11  C   UNL d   1     -49.606  14.994  23.360  0.00  0.00     0.026 A 
ATOM     12  C   UNL d   1     -48.943  14.491  23.380  0.00  0.00     0.020 A 
BRANCH  10  13
ATOM     13  O   UNL d   1     -50.744  15.502  22.664  0.00  0.00    -0.328 OA
ATOM     14  C   UNL d   1     -51.056  15.800  23.365  0.00  0.00     0.181 C 
ENDBRANCH  10  13
ENDBRANCH   1   7
BRANCH   4  15
ATOM     15  N   UNL d   1     -46.115  12.921  22.289  0.00  0.00    -0.189 NA
ATOM     16  C   UNL d   1     -45.532  13.430  22.564  0.00  0.00     0.369 C 
ATOM     17  N   UNL d   1     -44.752  13.342  22.308  0.00  0.00    -0.189 NA
ATOM     18  O   UNL d   1     -45.720  14.029  23.095  0.00  0.00    -0.242 OA
BRANCH  17  19
ATOM     19  C   UNL d   1     -44.569  12.746  21.781  0.00  0.00     0.104 C 
BRANCH  19  20
ATOM     20  C   UNL d   1     -43.782  12.578  21.598  0.00  0.00     0.019 C 
ATOM     21  C   UNL d   1     -43.370  11.998  22.011  0.00  0.00     0.002 C 
ATOM     22  C   UNL d   1     -43.400  12.996  20.993  0.00  0.00     0.002 C 
ENDBRANCH  19  20
ENDBRANCH  17  19
ENDBRANCH   4  15
TORSDOF 5
ENDMDL
MODEL 3
REMARK VINA RESULT:      -6.2      1.499      1.876
REMARK  5 active torsions:
REMARK  status: ('A' for Active; 'I' for Inactive)
REMARK    1  A    between atoms: C_7  and  N_1 
REMARK       I    between atoms: C_4  and  N_8 
REMARK       I    between atoms: N_10  and  C_4 
REMARK    2  A    between atoms: N_8  and  C_5 
REMARK    3  A    between atoms: C_15  and  N_10 
REMARK    4  A    between atoms: O_18  and  C_14 
REMARK    5  A    between atoms: C_19  and  C_15 
ROOT
ATOM      1  N   UNL d   1     -47.809  13.482  22.632  0.00  0.00    -0.272 N 
ATOM      2  C   UNL d   1     -47.584  14.269  22.754  0.00  0.00     0.266 A 
ATOM      3  C   UNL d   1     -46.771  14.317  22.594  0.00  0.00     0.082 A 
ATOM      4  C   UNL d   1     -46.504  13.567  22.377  0.00  0.00     0.108 A 
ATOM      5  C   UNL d   1     -47.152  13.054  22.402  0.00  0.00     0.102 A 
ATOM      6  O   UNL d   1     -48.071  14.885  22.989  0.00  0.00    -0.267 OA
ENDROOT
BRANCH   1   7
ATOM      7  C   UNL d   1     -48.571  13.182  22.728  0.00  0.00     0.067 A 
ATOM      8  C   UNL d   1     -49.001  12.931  22.068  0.00  0.00     0.020 A 
ATOM      9  C   UNL d   1     -49.764  12.631  22.164  0.00  0.00     0.026 A 
ATOM     10  C   UNL d   1     -50.097  12.583  22.916  0.00  0.00     0.094 A 
ATOM     11  C   UNL d   1     -49.674  12.832  23.575  0.00  0.00     0.026 A 
ATOM     12  C   UNL d   1     -48.904  13.134  23.479  0.00  0.00     0.020 A 
BRANCH  10  13
ATOM     13  O   UNL d   1     -50.861  12.282  23.002  0.00  0.00    -0.328 OA
ATOM     14  C   UNL d   1     -51.064  11.891  23.698  0.00  0.00     0.181 C 
ENDBRANCH  10  13
ENDBRANCH   1   7
BRANCH   4  15
ATOM     15  N   UNL d   1     -45.727  13.371  22.171  0.00  0.00    -0.189 NA
ATOM     16  C   UNL d   1     -45.336  12.778  22.583  0.00  0.00     0.369 C 
ATOM     17  N   UNL d   1     -44.559  12.578  22.382  0.00  0.00    -0.189 NA
ATOM     18  O   UNL d   1     -45.711  12.380  23.197  0.00  0.00    -0.242 OA
BRANCH  17  19
ATOM     19  C   UNL d   1     -44.190  12.975  21.773  0.00  0.00     0.104 C 
BRANCH  19  20
ATOM     20  C   UNL d   1     -43.416  12.783  21.558  0.00  0.00     0.019 C 
ATOM     21  C   UNL d   1     -43.019  13.220  20.987  0.00  0.00     0.002 C 
ATOM     22  C   UNL d   1     -43.033  12.144  21.920  0.00  0.00     0.002 C 
ENDBRANCH  19  20
ENDBRANCH  17  19
ENDBRANCH   4  15
TORSDOF 5
ENDMDL
MODEL 4
REMARK VINA RESULT:      -5.3      8.111      9.662
REMARK  5 active torsions:
REMARK  status: ('A' for Active; 'I' for Inactive)
REMARK    1  A    between atoms: C_7  and  N_1 
REMARK       I    between atoms: C_4  and  N_8 
REMARK       I    between atoms: N_10  and  C_4 
REMARK    2  A    between atoms: N_8  and  C_5 
REMARK    3  A    between atoms: C_15  and  N_10 
REMARK    4  A    between atoms: O_18  and  C_14 
REMARK    5  A    between atoms: C_19  and  C_15 
ROOT
ATOM      1  N   UNL d   1     -39.419  14.212  18.056  0.00  0.00    -0.272 N 
ATOM      2  C   UNL d   1     -40.237  14.191  18.182  0.00  0.00     0.266 A 
ATOM      3  C   UNL d   1     -40.356  14.190  19.003  0.00  0.00     0.082 A 
ATOM      4  C   UNL d   1     -39.619  14.211  19.373  0.00  0.00     0.108 A 
ATOM      5  C   UNL d   1     -39.042  14.224  18.781  0.00  0.00     0.102 A 
ATOM      6  O   UNL d   1     -40.819  14.173  17.605  0.00  0.00    -0.267 OA
ENDROOT
BRANCH   1   7
ATOM      7  C   UNL d   1     -39.050  14.219  17.318  0.00  0.00     0.067 A 
ATOM      8  C   UNL d   1     -39.064  14.906  16.857  0.00  0.00     0.020 A 
ATOM      9  C   UNL d   1     -38.694  14.913  16.120  0.00  0.00     0.026 A 
ATOM     10  C   UNL d   1     -38.311  14.238  15.843  0.00  0.00     0.094 A 
ATOM     11  C   UNL d   1     -38.294  13.553  16.298  0.00  0.00     0.026 A 
ATOM     12  C   UNL d   1     -38.668  13.545  17.042  0.00  0.00     0.020 A 
BRANCH  10  13
ATOM     13  O   UNL d   1     -37.944  14.254  15.104  0.00  0.00    -0.328 OA
ATOM     14  C   UNL d   1     -37.963  13.582  14.629  0.00  0.00     0.181 C 
ENDBRANCH  10  13
ENDBRANCH   1   7
BRANCH   4  15
ATOM     15  N   UNL d   1     -39.487  14.217  20.190  0.00  0.00    -0.189 NA
ATOM     16  C   UNL d   1     -39.478  14.931  20.595  0.00  0.00     0.369 C 
ATOM     17  N   UNL d   1     -39.347  14.942  21.410  0.00  0.00    -0.189 NA
ATOM     18  O   UNL d   1     -39.599  15.639  20.193  0.00  0.00    -0.242 OA
BRANCH  17  19
ATOM     19  C   UNL d   1     -39.227  14.239  21.806  0.00  0.00     0.104 C 
BRANCH  19  20
ATOM     20  C   UNL d   1     -38.957  14.240  22.586  0.00  0.00     0.019 C 
ATOM     21  C   UNL d   1     -38.863  14.946  22.997  0.00  0.00     0.002 C 
ATOM     22  C   UNL d   1     -38.778  13.524  22.961  0.00  0.00     0.002 C 
ENDBRANCH  19  20
ENDBRANCH  17  19
ENDBRANCH   4  15
TORSDOF 5
ENDMDL
MODEL 5
REMARK VINA RESULT:      -5.0      1.436      5.138
REMARK  5 active torsions:
REMARK  status: ('A' for Active; 'I' for Inactive)
REMARK    1  A    between atoms: C_7  and  N_1 
REMARK       I    between atoms: C_4  and  N_8 
REMARK       I    between atoms: N_10  and  C_4 
REMARK    2  A    between atoms: N_8  and  C_5 
REMARK    3  A    between atoms: C_15  and  N_10 
REMARK    4  A    between atoms: O_18  and  C_14 
REMARK    5  A    between atoms: C_19  and  C_15 
ROOT
ATOM      1  N   UNL d   1     -46.370  12.666  22.947  0.00  0.00    -0.272 N 
ATOM      2  C   UNL d   1     -46.752  12.061  23.364  0.00  0.00     0.266 A 
ATOM      3  C   UNL d   1     -47.508  12.342  23.560  0.00  0.00     0.082 A 
ATOM      4  C   UNL d   1     -47.585  13.109  23.265  0.00  0.00     0.108 A 
ATOM      5  C   UNL d   1     -46.877  13.304  22.886  0.00  0.00     0.102 A 
ATOM      6  O   UNL d   1     -46.443  11.325  23.550  0.00  0.00    -0.267 OA
ENDROOT
BRANCH   1   7
ATOM      7  C   UNL d   1     -45.604  12.626  22.644  0.00  0.00     0.067 A 
ATOM      8  C   UNL d   1     -45.113  11.992  22.846  0.00  0.00     0.020 A 
ATOM      9  C   UNL d   1     -44.347  11.953  22.543  0.00  0.00     0.026 A 
ATOM     10  C   UNL d   1     -44.071  12.544  22.040  0.00  0.00     0.094 A 
ATOM     11  C   UNL d   1     -44.555  13.177  21.836  0.00  0.00     0.026 A 
ATOM     12  C   UNL d   1     -45.328  13.217  22.142  0.00  0.00     0.020 A 
BRANCH  10  13
ATOM     13  O   UNL d   1     -43.303  12.497  21.741  0.00  0.00    -0.328 OA
ATOM     14  C   UNL d   1     -43.113  12.902  21.050  0.00  0.00     0.181 C 
ENDBRANCH  10  13
ENDBRANCH   1   7
BRANCH   4  15
ATOM     15  N   UNL d   1     -48.254  13.591  23.339  0.00  0.00    -0.189 NA
ATOM     16  C   UNL d   1     -48.882  13.495  22.819  0.00  0.00     0.369 C 
ATOM     17  N   UNL d   1     -49.552  13.974  22.888  0.00  0.00    -0.189 NA
ATOM     18  O   UNL d   1     -48.851  12.925  22.228  0.00  0.00    -0.242 OA
BRANCH  17  19
ATOM     19  C   UNL d   1     -49.581  14.539  23.476  0.00  0.00     0.104 C 
BRANCH  19  20
ATOM     20  C   UNL d   1     -50.192  15.094  23.492  0.00  0.00     0.019 C 
ATOM     21  C   UNL d   1     -50.048  15.881  23.306  0.00  0.00     0.002 C 
ATOM     22  C   UNL d   1     -50.959  14.858  23.698  0.00  0.00     0.002 C 
ENDBRANCH  19  20
ENDBRANCH  17  19
ENDBRANCH   4  15
TORSDOF 5
ENDMDL
MODEL 6
REMARK VINA RESULT:      -4.5      8.256      9.885
REMARK  5 active torsions:
REMARK  status: ('A' for Active; 'I' for Inactive)
REMARK    1  A    between atoms: C_7  and  N_1 
REMARK       I    between atoms: C_4  and  N_8 
REMARK       I    between atoms: N_10  and  C_4 
REMARK    2  A    between atoms: N_8  and  C_5 
REMARK    3  A    between atoms: C_15  and  N_10 
REMARK    4  A    between atoms: O_18  and  C_14 
REMARK    5  A    between atoms: C_19  and  C_15 
ROOT
ATOM      1  N   UNL d   1     -39.962  15.090  18.279  0.00  0.00    -0.272 N 
ATOM      2  C   UNL d   1     -40.495  15.458  17.765  0.00  0.00     0.266 A 
ATOM      3  C   UNL d   1     -40.246  15.284  16.992  0.00  0.00     0.082 A 
ATOM      4  C   UNL d   1     -39.568  14.816  17.037  0.00  0.00     0.108 A 
ATOM      5  C   UNL d   1     -39.397  14.699  17.837  0.00  0.00     0.102 A 
ATOM      6  O   UNL d   1     -41.146  15.909  17.976  0.00  0.00    -0.267 OA
ENDROOT
BRANCH   1   7
ATOM      7  C   UNL d   1     -39.998  15.116  19.103  0.00  0.00     0.067 A 
ATOM      8  C   UNL d   1     -39.815  15.818  19.501  0.00  0.00     0.020 A 
ATOM      9  C   UNL d   1     -39.851  15.844  20.325  0.00  0.00     0.026 A 
ATOM     10  C   UNL d   1     -40.068  15.173  20.751  0.00  0.00     0.094 A 
ATOM     11  C   UNL d   1     -40.251  14.473  20.360  0.00  0.00     0.026 A 
ATOM     12  C   UNL d   1     -40.215  14.446  19.528  0.00  0.00     0.020 A 
BRANCH  10  13
ATOM     13  O   UNL d   1     -40.102  15.208  21.574  0.00  0.00    -0.328 OA
ATOM     14  C   UNL d   1     -39.509  15.604  21.986  0.00  0.00     0.181 C 
ENDBRANCH  10  13
ENDBRANCH   1   7
BRANCH   4  15
ATOM     15  N   UNL d   1     -39.142  14.519  16.393  0.00  0.00    -0.189 NA
ATOM     16  C   UNL d   1     -38.597  15.000  16.011  0.00  0.00     0.369 C 
ATOM     17  N   UNL d   1     -38.168  14.709  15.367  0.00  0.00    -0.189 NA
ATOM     18  O   UNL d   1     -38.474  15.773  16.264  0.00  0.00    -0.242 OA
BRANCH  17  19
ATOM     19  C   UNL d   1     -38.293  13.943  15.118  0.00  0.00     0.104 C 
BRANCH  19  20
ATOM     20  C   UNL d   1     -38.061  13.707  14.362  0.00  0.00     0.019 C 
ATOM     21  C   UNL d   1     -37.940  12.912  14.189  0.00  0.00     0.002 C 
ATOM     22  C   UNL d   1     -37.949  14.273  13.768  0.00  0.00     0.002 C 
ENDBRANCH  19  20
ENDBRANCH  17  19
ENDBRANCH   4  15
TORSDOF 5
ENDMDL
MODEL 7
REMARK VINA RESULT:      -4.3      8.119      8.722
REMARK  5 active torsions:
REMARK  status: ('A' for Active; 'I' for Inactive)
REMARK    1  A    between atoms: C_7  and  N_1 
REMARK       I    between atoms: C_4  and  N_8 
REMARK       I    between atoms: N_10  and  C_4 
REMARK    2  A    between atoms: N_8  and  C_5 
REMARK    3  A    between atoms: C_15  and  N_10 
REMARK    4  A    between atoms: O_18  and  C_14 
REMARK    5  A    between atoms: C_19  and  C_15 
ROOT
ATOM      1  N   UNL d   1     -39.657  14.709  18.706  0.00  0.00    -0.272 N 
ATOM      2  C   UNL d   1     -39.204  14.016  18.712  0.00  0.00     0.266 A 
ATOM      3  C   UNL d   1     -38.905  13.928  19.482  0.00  0.00     0.082 A 
ATOM      4  C   UNL d   1     -39.173  14.560  19.939  0.00  0.00     0.108 A 
ATOM      5  C   UNL d   1     -39.638  15.040  19.453  0.00  0.00     0.102 A 
ATOM      6  O   UNL d   1     -39.075  13.512  18.079  0.00  0.00    -0.267 OA
ENDROOT
BRANCH   1   7
ATOM      7  C   UNL d   1     -40.059  15.011  18.053  0.00  0.00     0.067 A 
ATOM      8  C   UNL d   1     -40.814  15.334  18.146  0.00  0.00     0.020 A 
ATOM      9  C   UNL d   1     -41.216  15.636  17.493  0.00  0.00     0.026 A 
ATOM     10  C   UNL d   1     -40.866  15.617  16.747  0.00  0.00     0.094 A 
ATOM     11  C   UNL d   1     -40.114  15.297  16.648  0.00  0.00     0.026 A 
ATOM     12  C   UNL d   1     -39.708  14.992  17.309  0.00  0.00     0.020 A 
BRANCH  10  13
ATOM     13  O   UNL d   1     -41.275  15.922  16.099  0.00  0.00    -0.328 OA
ATOM     14  C   UNL d   1     -42.098  15.912  16.099  0.00  0.00     0.181 C 
ENDBRANCH  10  13
ENDBRANCH   1   7
BRANCH   4  15
ATOM     15  N   UNL d   1     -39.004  14.685  20.739  0.00  0.00    -0.189 NA
ATOM     16  C   UNL d   1     -39.303  14.169  21.303  0.00  0.00     0.369 C 
ATOM     17  N   UNL d   1     -39.136  14.289  22.103  0.00  0.00    -0.189 NA
ATOM     18  O   UNL d   1     -39.769  13.529  21.077  0.00  0.00    -0.242 OA
BRANCH  17  19
ATOM     19  C   UNL d   1     -38.674  14.923  22.324  0.00  0.00     0.104 C 
BRANCH  19  20
ATOM     20  C   UNL d   1     -38.601  15.130  23.120  0.00  0.00     0.019 C 
ATOM     21  C   UNL d   1     -38.447  14.557  23.690  0.00  0.00     0.002 C 
ATOM     22  C   UNL d   1     -38.684  15.921  23.351  0.00  0.00     0.002 C 
ENDBRANCH  19  20
ENDBRANCH  17  19
ENDBRANCH   4  15
TORSDOF 5
ENDMDL
