MODEL 1
REMARK VINA RESULT:     117.4      0.000      0.000
REMARK  8 active torsions:
REMARK  status: ('A' for Active; 'I' for Inactive)
REMARK    1  A    between atoms: O_4  and  C_1 
REMARK    2  A    between atoms: C_15  and  C_2 
REMARK    3  A    between atoms: C_5  and  O_4 
REMARK    4  A    between atoms: C_7  and  C_5 
REMARK    5  A    between atoms: O_21  and  C_8 
REMARK    6  A    between atoms: O_22  and  C_10 
REMARK    7  A    between atoms: O_23  and  C_11 
REMARK    8  A    between atoms: N_16  and  C_15 
ROOT
ATOM      1  C   UNL d   1      60.088  48.540  50.901  0.00  0.00     0.122 A 
ATOM      2  C   UNL d   1      60.784  48.353  50.500  0.00  0.00     0.043 A 
ATOM      3  C   UNL d   1      60.123  48.930  51.627  0.00  0.00     0.105 A 
ATOM      4  C   UNL d   1      60.853  49.132  51.952  0.00  0.00     0.030 A 
ATOM      5  C   UNL d   1      61.541  48.942  51.547  0.00  0.00     0.059 A 
ATOM      6  C   UNL d   1      61.514  48.555  50.825  0.00  0.00     0.015 A 
ATOM      7  N   UNL d   1      59.431  49.114  52.021  0.00  0.00    -0.242 NA
ATOM      8 CL   UNL d   1      62.269  49.156  51.896  0.00  0.00    -0.082 Cl
ATOM      9  C   UNL d   1      60.884  49.516  52.668  0.00  0.00     0.004 A 
ATOM     10  C   UNL d   1      59.467  49.504  52.748  0.00  0.00     0.099 A 
ATOM     11  C   UNL d   1      60.197  49.706  53.072  0.00  0.00     0.021 A 
ENDROOT
BRANCH   1  12
ATOM     12  O   UNL d   1      59.421  48.362  50.615  0.00  0.00    -0.271 OA
BRANCH  12  13
ATOM     13  C   UNL d   1      58.534  48.723  50.504  0.00  0.00     0.300 C 
ATOM     14  O   UNL d   1      58.457  49.699  50.728  0.00  0.00    -0.259 OA
BRANCH  13  15
ATOM     15  C   UNL d   1      57.909  48.253  50.246  0.00  0.00     0.068 A 
ATOM     16  C   UNL d   1      57.803  47.491  50.557  0.00  0.00     0.032 A 
ATOM     17  C   UNL d   1      57.172  47.012  50.298  0.00  0.00     0.118 A 
ATOM     18  C   UNL d   1      56.645  47.297  49.725  0.00  0.00     0.138 A 
ATOM     19  C   UNL d   1      56.751  48.064  49.412  0.00  0.00     0.118 A 
ATOM     20  C   UNL d   1      57.383  48.543  49.671  0.00  0.00     0.032 A 
BRANCH  17  21
ATOM     21  O   UNL d   1      57.283  46.236  50.791  0.00  0.00    -0.326 OA
ATOM     22  C   UNL d   1      57.104  45.769  50.336  0.00  0.00     0.181 C 
ENDBRANCH  17  21
BRANCH  18  23
ATOM     23  O   UNL d   1      56.183  46.978  49.519  0.00  0.00    -0.324 OA
ATOM     24  C   UNL d   1      56.134  46.517  48.929  0.00  0.00     0.182 C 
ENDBRANCH  18  23
BRANCH  19  25
ATOM     25  O   UNL d   1      56.272  48.435  48.833  0.00  0.00    -0.326 OA
ATOM     26  C   UNL d   1      56.095  49.159  49.233  0.00  0.00     0.181 C 
ENDBRANCH  19  25
ENDBRANCH  13  15
ENDBRANCH  12  13
ENDBRANCH   1  12
BRANCH   2  27
ATOM     27  C   UNL d   1      60.943  47.935  49.707  0.00  0.00     0.082 C 
BRANCH  27  28
ATOM     28  N   UNL d   1      61.193  47.153  49.706  0.00  0.00    -0.299 N 
ATOM     29  C   UNL d   1      61.513  46.831  49.027  0.00  0.00     0.107 A 
ATOM     30  C   UNL d   1      61.769  46.045  49.011  0.00  0.00     0.142 A 
ATOM     31  O   UNL d   1      61.698  45.592  49.686  0.00  0.00    -0.300 OA
ATOM     32  C   UNL d   1      61.374  45.916  50.377  0.00  0.00     0.142 A 
ATOM     33  C   UNL d   1      61.125  46.697  50.376  0.00  0.00     0.107 A 
ENDBRANCH  27  28
ENDBRANCH   2  27
TORSDOF 8
ENDMDL
