MODEL 1
REMARK VINA RESULT:      -1.1      0.000      0.000
REMARK  2 active torsions:
REMARK  status: ('A' for Active; 'I' for Inactive)
REMARK    1  A    between atoms: C_3  and  C_1 
REMARK       I    between atoms: C_2  and  N_4 
REMARK    2  A    between atoms: N_4  and  C_7 
ROOT
ATOM      1  C   UNL d   1      23.543  12.773  -0.559  0.00  0.00     0.073 A 
ATOM      2  C   UNL d   1      23.594  12.545  -1.352  0.00  0.00     0.024 A 
ATOM      3  C   UNL d   1      24.207  12.051  -1.598  0.00  0.00     0.100 A 
ATOM      4  C   UNL d   1      24.102  12.508  -0.016  0.00  0.00     0.004 A 
ATOM      5  C   UNL d   1      24.715  12.014  -0.262  0.00  0.00     0.002 A 
ATOM      6  C   UNL d   1      24.768  11.785  -1.052  0.00  0.00     0.020 A 
ENDROOT
BRANCH   1   7
ATOM      7  C   UNL d   1      22.924  13.273  -0.310  0.00  0.00     0.419 C 
ATOM      8  F   UNL d   1      22.367  13.722  -0.086  0.00  0.00    -0.166 F 
ATOM      9  F   UNL d   1      22.113  13.067  -0.101  0.00  0.00    -0.166 F 
ATOM     10  F   UNL d   1      22.928  14.124  -0.195  0.00  0.00    -0.166 F 
ENDBRANCH   1   7
BRANCH   3  11
ATOM     11  N   UNL d   1      24.264  11.819  -2.388  0.00  0.00    -0.056 NA
ATOM     12  C   UNL d   1      24.527  12.350  -2.954  0.00  0.00     0.787 C 
ATOM     13  N   UNL d   1      24.585  12.123  -3.743  0.00  0.00     0.064 N 
ATOM     14  N   UNL d   1      24.735  13.116  -2.729  0.00  0.00     0.064 N 
ENDBRANCH   3  11
TORSDOF 2
ENDMDL
