MODEL 1
REMARK VINA RESULT:      -4.7      0.000      0.000
REMARK  6 active torsions:
REMARK  status: ('A' for Active; 'I' for Inactive)
REMARK    1  A    between atoms: N_2  and  C_1 
REMARK    2  A    between atoms: N_7  and  C_1 
REMARK    3  A    between atoms: C_5  and  C_3 
REMARK    4  A    between atoms: C_6  and  C_5 
REMARK       I    between atoms: N_8  and  C_6 
REMARK    5  A    between atoms: C_18  and  N_7 
REMARK    6  A    between atoms: C_9  and  N_8 
ROOT
ATOM      1  N   UNL d   1      58.697  -0.624  29.412  0.00  0.00    -0.278 N 
ATOM      2  C   UNL d   1      58.230  -0.296  30.000  0.00  0.00     0.127 A 
ATOM      3  C   UNL d   1      57.703   0.331  29.811  0.00  0.00     0.274 A 
ATOM      4  N   UNL d   1      57.650   0.619  29.041  0.00  0.00    -0.318 N 
ATOM      5  O   UNL d   1      57.235   0.659  30.400  0.00  0.00    -0.266 OA
ATOM      6  C   UNL d   1      58.653  -0.344  28.638  0.00  0.00     0.101 A 
ATOM      7  C   UNL d   1      58.133   0.274  28.456  0.00  0.00     0.094 A 
ATOM      8  H   UNL d   1      57.136   1.233  28.847  0.00  0.00     0.169 HD
ENDROOT
BRANCH   2   9
ATOM      9  C   UNL d   1      58.276  -0.575  30.764  0.00  0.00     0.083 C 
BRANCH   9  10
ATOM     10  C   UNL d   1      57.625  -0.526  31.261  0.00  0.00     0.259 C 
ATOM     11  N   UNL d   1      57.705  -0.184  32.011  0.00  0.00    -0.321 N 
ATOM     12  H   UNL d   1      58.439   0.107  32.260  0.00  0.00     0.169 HD
ATOM     13  O   UNL d   1      56.891  -0.817  31.012  0.00  0.00    -0.267 OA
BRANCH  11  14
ATOM     14  C   UNL d   1      57.045  -0.139  32.501  0.00  0.00     0.059 A 
ATOM     15  C   UNL d   1      57.103   0.301  33.213  0.00  0.00     0.016 A 
ATOM     16  C   UNL d   1      56.449   0.350  33.708  0.00  0.00     0.001 A 
ATOM     17  C   UNL d   1      57.809   0.681  33.417  0.00  0.00     0.002 C 
ATOM     18  C   UNL d   1      55.732  -0.037  33.500  0.00  0.00     0.000 A 
ATOM     19  C   UNL d   1      55.674  -0.474  32.792  0.00  0.00     0.002 A 
ATOM     20  C   UNL d   1      55.075   0.016  34.002  0.00  0.00     0.000 C 
ATOM     21  C   UNL d   1      56.342  -0.521  32.293  0.00  0.00     0.017 A 
ENDBRANCH  11  14
ENDBRANCH   9  10
ENDBRANCH   2   9
BRANCH   1  22
ATOM     22  C   UNL d   1      59.213  -1.237  29.596  0.00  0.00     0.184 C 
ATOM     23  S   UNL d   1      60.020  -1.080  29.619  0.00  0.00    -0.040 SA
BRANCH  22  24
ATOM     24  N   UNL d   1      58.919  -1.989  29.753  0.00  0.00    -0.331 N 
ATOM     25  H   UNL d   1      58.326  -2.071  30.315  0.00  0.00     0.168 HD
BRANCH  24  26
ATOM     26  C   UNL d   1      59.208  -2.648  29.360  0.00  0.00     0.058 A 
ATOM     27  C   UNL d   1      59.985  -2.887  29.471  0.00  0.00     0.017 A 
ATOM     28  C   UNL d   1      60.275  -3.546  29.078  0.00  0.00     0.002 A 
ATOM     29  C   UNL d   1      59.779  -3.966  28.571  0.00  0.00     0.000 A 
ATOM     30  C   UNL d   1      58.997  -3.728  28.457  0.00  0.00     0.002 A 
ATOM     31  C   UNL d   1      58.715  -3.065  28.856  0.00  0.00     0.017 A 
ENDBRANCH  24  26
ENDBRANCH  22  24
ENDBRANCH   1  22
TORSDOF 6
ENDMDL
MODEL 2
REMARK VINA RESULT:      -2.2      1.319      4.691
REMARK  6 active torsions:
REMARK  status: ('A' for Active; 'I' for Inactive)
REMARK    1  A    between atoms: N_2  and  C_1 
REMARK    2  A    between atoms: N_7  and  C_1 
REMARK    3  A    between atoms: C_5  and  C_3 
REMARK    4  A    between atoms: C_6  and  C_5 
REMARK       I    between atoms: N_8  and  C_6 
REMARK    5  A    between atoms: C_18  and  N_7 
REMARK    6  A    between atoms: C_9  and  N_8 
ROOT
ATOM      1  N   UNL d   1      57.729   0.127  30.053  0.00  0.00    -0.278 N 
ATOM      2  C   UNL d   1      58.448  -0.107  29.737  0.00  0.00     0.127 A 
ATOM      3  C   UNL d   1      58.622   0.057  28.932  0.00  0.00     0.274 A 
ATOM      4  N   UNL d   1      58.077   0.450  28.455  0.00  0.00    -0.318 N 
ATOM      5  O   UNL d   1      59.342  -0.177  28.616  0.00  0.00    -0.266 OA
ATOM      6  C   UNL d   1      57.176   0.521  29.585  0.00  0.00     0.101 A 
ATOM      7  C   UNL d   1      57.351   0.681  28.792  0.00  0.00     0.094 A 
ATOM      8  H   UNL d   1      58.240   0.615  27.664  0.00  0.00     0.169 HD
ENDROOT
BRANCH   2   9
ATOM      9  C   UNL d   1      58.993  -0.497  30.202  0.00  0.00     0.083 C 
BRANCH   9  10
ATOM     10  C   UNL d   1      59.470  -1.079  29.877  0.00  0.00     0.259 C 
ATOM     11  N   UNL d   1      59.189  -1.856  29.817  0.00  0.00    -0.321 N 
ATOM     12  H   UNL d   1      58.429  -2.045  30.085  0.00  0.00     0.169 HD
ATOM     13  O   UNL d   1      60.230  -0.890  29.610  0.00  0.00    -0.267 OA
BRANCH  11  14
ATOM     14  C   UNL d   1      59.676  -2.432  29.489  0.00  0.00     0.059 A 
ATOM     15  C   UNL d   1      59.320  -3.091  29.110  0.00  0.00     0.016 A 
ATOM     16  C   UNL d   1      59.800  -3.670  28.780  0.00  0.00     0.001 A 
ATOM     17  C   UNL d   1      58.497  -3.158  29.068  0.00  0.00     0.002 C 
ATOM     18  C   UNL d   1      60.637  -3.601  28.823  0.00  0.00     0.000 A 
ATOM     19  C   UNL d   1      60.991  -2.947  29.200  0.00  0.00     0.002 A 
ATOM     20  C   UNL d   1      61.116  -4.189  28.489  0.00  0.00     0.000 C 
ATOM     21  C   UNL d   1      60.499  -2.361  29.534  0.00  0.00     0.017 A 
ENDBRANCH  11  14
ENDBRANCH   9  10
ENDBRANCH   2   9
BRANCH   1  22
ATOM     22  C   UNL d   1      57.557  -0.034  30.841  0.00  0.00     0.184 C 
ATOM     23  S   UNL d   1      57.994   0.347  31.425  0.00  0.00    -0.040 SA
BRANCH  22  24
ATOM     24  N   UNL d   1      56.960  -0.565  31.032  0.00  0.00    -0.331 N 
ATOM     25  H   UNL d   1      56.652  -1.043  30.439  0.00  0.00     0.168 HD
BRANCH  24  26
ATOM     26  C   UNL d   1      56.673  -0.623  31.798  0.00  0.00     0.058 A 
ATOM     27  C   UNL d   1      56.301   0.020  32.149  0.00  0.00     0.017 A 
ATOM     28  C   UNL d   1      56.014  -0.037  32.915  0.00  0.00     0.002 A 
ATOM     29  C   UNL d   1      56.101  -0.745  33.329  0.00  0.00     0.000 A 
ATOM     30  C   UNL d   1      56.474  -1.392  32.979  0.00  0.00     0.002 A 
ATOM     31  C   UNL d   1      56.760  -1.326  32.209  0.00  0.00     0.017 A 
ENDBRANCH  24  26
ENDBRANCH  22  24
ENDBRANCH   1  22
TORSDOF 6
ENDMDL
