MODEL 1
REMARK VINA RESULT:      -7.2      0.000      0.000
REMARK  6 active torsions:
REMARK  status: ('A' for Active; 'I' for Inactive)
REMARK    1  A    between atoms: N_2  and  S_1 
REMARK    2  A    between atoms: C_3  and  S_1 
REMARK    3  A    between atoms: C_8  and  N_2 
REMARK    4  A    between atoms: C_6  and  O_7 
REMARK    5  A    between atoms: O_7  and  C_13 
REMARK    6  A    between atoms: O_16  and  C_10 
ROOT
ATOM      1  C   UNL d   1     -47.756  14.061  22.527  0.00  0.00     0.105 A 
ATOM      2  C   UNL d   1     -47.744  13.288  22.258  0.00  0.00     0.015 A 
ATOM      3  C   UNL d   1     -47.151  14.339  23.020  0.00  0.00     0.015 A 
ATOM      4  C   UNL d   1     -46.529  13.068  22.972  0.00  0.00     0.100 A 
ATOM      5  C   UNL d   1     -46.541  13.840  23.239  0.00  0.00     0.025 A 
ATOM      6  C   UNL d   1     -47.133  12.790  22.479  0.00  0.00     0.025 A 
ENDROOT
BRANCH   1   7
ATOM      7  S   UNL d   1     -48.377  14.559  22.299  0.00  0.00     0.285 S 
ATOM      8  O   UNL d   1     -48.256  15.375  22.251  0.00  0.00    -0.198 OA
ATOM      9  O   UNL d   1     -49.115  14.238  22.121  0.00  0.00    -0.198 OA
BRANCH   7  10
ATOM     10  N   UNL d   1     -49.104  14.876  22.060  0.00  0.00    -0.157 NA
BRANCH  10  11
ATOM     11  C   UNL d   1     -49.732  14.925  22.606  0.00  0.00     0.113 A 
ATOM     12  C   UNL d   1     -50.288  14.317  22.648  0.00  0.00     0.119 A 
ATOM     13  N   UNL d   1     -50.916  14.365  23.194  0.00  0.00    -0.241 NA
ATOM     14  C   UNL d   1     -50.977  15.027  23.694  0.00  0.00     0.099 A 
ATOM     15  C   UNL d   1     -50.414  15.638  23.648  0.00  0.00     0.022 A 
ATOM     16  C   UNL d   1     -49.794  15.581  23.102  0.00  0.00     0.023 A 
ENDBRANCH  10  11
ENDBRANCH   7  10
ENDBRANCH   1   7
BRANCH   4  17
ATOM     17  O   UNL d   1     -45.910  12.560  23.194  0.00  0.00    -0.305 OA
BRANCH  17  18
ATOM     18  C   UNL d   1     -45.224  12.507  22.732  0.00  0.00     0.122 A 
ATOM     19  C   UNL d   1     -44.706  11.878  22.842  0.00  0.00     0.117 A 
ATOM     20  C   UNL d   1     -44.023  11.827  22.381  0.00  0.00     0.026 A 
ATOM     21  C   UNL d   1     -43.865  12.399  21.816  0.00  0.00     0.002 A 
ATOM     22  C   UNL d   1     -44.387  13.030  21.707  0.00  0.00     0.002 A 
ATOM     23  C   UNL d   1     -45.069  13.081  22.168  0.00  0.00     0.027 A 
BRANCH  19  24
ATOM     24  O   UNL d   1     -44.871  11.310  23.409  0.00  0.00    -0.326 OA
ATOM     25  C   UNL d   1     -44.398  10.654  23.486  0.00  0.00     0.181 C 
ENDBRANCH  19  24
ENDBRANCH  17  18
ENDBRANCH   4  17
TORSDOF 6
ENDMDL
MODEL 2
REMARK VINA RESULT:      -6.3      7.860      9.234
REMARK  6 active torsions:
REMARK  status: ('A' for Active; 'I' for Inactive)
REMARK    1  A    between atoms: N_2  and  S_1 
REMARK    2  A    between atoms: C_3  and  S_1 
REMARK    3  A    between atoms: C_8  and  N_2 
REMARK    4  A    between atoms: C_6  and  O_7 
REMARK    5  A    between atoms: O_7  and  C_13 
REMARK    6  A    between atoms: O_16  and  C_10 
ROOT
ATOM      1  C   UNL d   1     -40.159  14.641  19.299  0.00  0.00     0.105 A 
ATOM      2  C   UNL d   1     -40.665  14.299  19.843  0.00  0.00     0.015 A 
ATOM      3  C   UNL d   1     -39.528  15.111  19.557  0.00  0.00     0.015 A 
ATOM      4  C   UNL d   1     -39.915  14.892  20.902  0.00  0.00     0.100 A 
ATOM      5  C   UNL d   1     -39.409  15.234  20.357  0.00  0.00     0.025 A 
ATOM      6  C   UNL d   1     -40.546  14.422  20.643  0.00  0.00     0.025 A 
ENDROOT
BRANCH   1   7
ATOM      7  S   UNL d   1     -40.286  14.512  18.492  0.00  0.00     0.285 S 
ATOM      8  O   UNL d   1     -40.563  15.126  18.014  0.00  0.00    -0.198 OA
ATOM      9  O   UNL d   1     -40.135  13.770  18.167  0.00  0.00    -0.198 OA
BRANCH   7  10
ATOM     10  N   UNL d   1     -40.347  14.189  17.731  0.00  0.00    -0.157 NA
BRANCH  10  11
ATOM     11  C   UNL d   1     -39.656  14.062  17.281  0.00  0.00     0.113 A 
ATOM     12  C   UNL d   1     -39.385  14.650  16.769  0.00  0.00     0.119 A 
ATOM     13  N   UNL d   1     -38.696  14.524  16.319  0.00  0.00    -0.241 NA
ATOM     14  C   UNL d   1     -38.284  13.804  16.389  0.00  0.00     0.099 A 
ATOM     15  C   UNL d   1     -38.561  13.214  16.906  0.00  0.00     0.022 A 
ATOM     16  C   UNL d   1     -39.248  13.349  17.349  0.00  0.00     0.023 A 
ENDBRANCH  10  11
ENDBRANCH   7  10
ENDBRANCH   1   7
BRANCH   4  17
ATOM     17  O   UNL d   1     -39.796  15.015  21.714  0.00  0.00    -0.305 OA
BRANCH  17  18
ATOM     18  C   UNL d   1     -39.265  14.541  22.138  0.00  0.00     0.122 A 
ATOM     19  C   UNL d   1     -38.848  14.859  22.771  0.00  0.00     0.117 A 
ATOM     20  C   UNL d   1     -38.320  14.384  23.192  0.00  0.00     0.026 A 
ATOM     21  C   UNL d   1     -38.213  13.600  22.978  0.00  0.00     0.002 A 
ATOM     22  C   UNL d   1     -38.632  13.282  22.342  0.00  0.00     0.002 A 
ATOM     23  C   UNL d   1     -39.160  13.757  21.921  0.00  0.00     0.027 A 
BRANCH  19  24
ATOM     24  O   UNL d   1     -38.962  15.643  22.978  0.00  0.00    -0.326 OA
ATOM     25  C   UNL d   1     -38.706  15.922  23.698  0.00  0.00     0.181 C 
ENDBRANCH  19  24
ENDBRANCH  17  18
ENDBRANCH   4  17
TORSDOF 6
ENDMDL
MODEL 3
REMARK VINA RESULT:      -6.0      7.868      9.465
REMARK  6 active torsions:
REMARK  status: ('A' for Active; 'I' for Inactive)
REMARK    1  A    between atoms: N_2  and  S_1 
REMARK    2  A    between atoms: C_3  and  S_1 
REMARK    3  A    between atoms: C_8  and  N_2 
REMARK    4  A    between atoms: C_6  and  O_7 
REMARK    5  A    between atoms: O_7  and  C_13 
REMARK    6  A    between atoms: O_16  and  C_10 
ROOT
ATOM      1  C   UNL d   1     -40.199  15.209  19.432  0.00  0.00     0.105 A 
ATOM      2  C   UNL d   1     -40.572  14.692  18.918  0.00  0.00     0.015 A 
ATOM      3  C   UNL d   1     -39.608  15.718  19.153  0.00  0.00     0.015 A 
ATOM      4  C   UNL d   1     -39.768  15.189  17.849  0.00  0.00     0.100 A 
ATOM      5  C   UNL d   1     -39.396  15.704  18.363  0.00  0.00     0.025 A 
ATOM      6  C   UNL d   1     -40.359  14.680  18.128  0.00  0.00     0.025 A 
ENDROOT
BRANCH   1   7
ATOM      7  S   UNL d   1     -40.420  15.215  20.229  0.00  0.00     0.285 S 
ATOM      8  O   UNL d   1     -40.696  15.913  20.575  0.00  0.00    -0.198 OA
ATOM      9  O   UNL d   1     -40.364  14.525  20.676  0.00  0.00    -0.198 OA
BRANCH   7  10
ATOM     10  N   UNL d   1     -40.586  15.020  21.017  0.00  0.00    -0.157 NA
BRANCH  10  11
ATOM     11  C   UNL d   1     -39.959  14.890  21.550  0.00  0.00     0.113 A 
ATOM     12  C   UNL d   1     -39.613  15.529  21.941  0.00  0.00     0.119 A 
ATOM     13  N   UNL d   1     -38.985  15.400  22.474  0.00  0.00    -0.241 NA
ATOM     14  C   UNL d   1     -38.712  14.625  22.609  0.00  0.00     0.099 A 
ATOM     15  C   UNL d   1     -39.064  13.984  22.212  0.00  0.00     0.022 A 
ATOM     16  C   UNL d   1     -39.687  14.123  21.685  0.00  0.00     0.023 A 
ENDBRANCH  10  11
ENDBRANCH   7  10
ENDBRANCH   1   7
BRANCH   4  17
ATOM     17  O   UNL d   1     -39.553  15.174  17.047  0.00  0.00    -0.305 OA
BRANCH  17  18
ATOM     18  C   UNL d   1     -39.012  14.612  16.767  0.00  0.00     0.122 A 
ATOM     19  C   UNL d   1     -38.499  14.809  16.155  0.00  0.00     0.117 A 
ATOM     20  C   UNL d   1     -37.961  14.248  15.878  0.00  0.00     0.026 A 
ATOM     21  C   UNL d   1     -37.940  13.499  16.212  0.00  0.00     0.002 A 
ATOM     22  C   UNL d   1     -38.456  13.304  16.826  0.00  0.00     0.002 A 
ATOM     23  C   UNL d   1     -38.994  13.865  17.103  0.00  0.00     0.027 A 
BRANCH  19  24
ATOM     24  O   UNL d   1     -38.528  15.559  15.828  0.00  0.00    -0.326 OA
ATOM     25  C   UNL d   1     -37.985  15.785  15.266  0.00  0.00     0.181 C 
ENDBRANCH  19  24
ENDBRANCH  17  18
ENDBRANCH   4  17
TORSDOF 6
ENDMDL
MODEL 4
REMARK VINA RESULT:      -5.7      2.100      5.224
REMARK  6 active torsions:
REMARK  status: ('A' for Active; 'I' for Inactive)
REMARK    1  A    between atoms: N_2  and  S_1 
REMARK    2  A    between atoms: C_3  and  S_1 
REMARK    3  A    between atoms: C_8  and  N_2 
REMARK    4  A    between atoms: C_6  and  O_7 
REMARK    5  A    between atoms: O_7  and  C_13 
REMARK    6  A    between atoms: O_16  and  C_10 
ROOT
ATOM      1  C   UNL d   1     -47.337  12.098  23.563  0.00  0.00     0.105 A 
ATOM      2  C   UNL d   1     -47.553  12.882  23.647  0.00  0.00     0.015 A 
ATOM      3  C   UNL d   1     -47.919  11.514  23.482  0.00  0.00     0.015 A 
ATOM      4  C   UNL d   1     -48.926  12.505  23.570  0.00  0.00     0.100 A 
ATOM      5  C   UNL d   1     -48.710  11.721  23.486  0.00  0.00     0.025 A 
ATOM      6  C   UNL d   1     -48.345  13.089  23.651  0.00  0.00     0.025 A 
ENDROOT
BRANCH   1   7
ATOM      7  S   UNL d   1     -46.534  11.897  23.559  0.00  0.00     0.285 S 
ATOM      8  O   UNL d   1     -46.305  11.116  23.417  0.00  0.00    -0.198 OA
ATOM      9  O   UNL d   1     -45.966  12.477  23.698  0.00  0.00    -0.198 OA
BRANCH   7  10
ATOM     10  N   UNL d   1     -45.707  11.900  23.597  0.00  0.00    -0.157 NA
BRANCH  10  11
ATOM     11  C   UNL d   1     -45.267  12.232  22.971  0.00  0.00     0.113 A 
ATOM     12  C   UNL d   1     -44.616  11.826  22.666  0.00  0.00     0.119 A 
ATOM     13  N   UNL d   1     -44.176  12.157  22.040  0.00  0.00    -0.241 NA
ATOM     14  C   UNL d   1     -44.398  12.896  21.727  0.00  0.00     0.099 A 
ATOM     15  C   UNL d   1     -45.054  13.301  22.037  0.00  0.00     0.022 A 
ATOM     16  C   UNL d   1     -45.485  12.963  22.659  0.00  0.00     0.023 A 
ENDBRANCH  10  11
ENDBRANCH   7  10
ENDBRANCH   1   7
BRANCH   4  17
ATOM     17  O   UNL d   1     -49.729  12.717  23.575  0.00  0.00    -0.305 OA
BRANCH  17  18
ATOM     18  C   UNL d   1     -50.114  12.921  22.870  0.00  0.00     0.122 A 
ATOM     19  C   UNL d   1     -50.595  13.587  22.845  0.00  0.00     0.117 A 
ATOM     20  C   UNL d   1     -50.977  13.789  22.142  0.00  0.00     0.026 A 
ATOM     21  C   UNL d   1     -50.876  13.326  21.473  0.00  0.00     0.002 A 
ATOM     22  C   UNL d   1     -50.393  12.658  21.500  0.00  0.00     0.002 A 
ATOM     23  C   UNL d   1     -50.011  12.456  22.203  0.00  0.00     0.027 A 
BRANCH  19  24
ATOM     24  O   UNL d   1     -50.689  14.044  23.519  0.00  0.00    -0.326 OA
ATOM     25  C   UNL d   1     -51.064  14.765  23.480  0.00  0.00     0.181 C 
ENDBRANCH  19  24
ENDBRANCH  17  18
ENDBRANCH   4  17
TORSDOF 6
ENDMDL
MODEL 5
REMARK VINA RESULT:      -4.9      8.211      9.311
REMARK  6 active torsions:
REMARK  status: ('A' for Active; 'I' for Inactive)
REMARK    1  A    between atoms: N_2  and  S_1 
REMARK    2  A    between atoms: C_3  and  S_1 
REMARK    3  A    between atoms: C_8  and  N_2 
REMARK    4  A    between atoms: C_6  and  O_7 
REMARK    5  A    between atoms: O_7  and  C_13 
REMARK    6  A    between atoms: O_16  and  C_10 
ROOT
ATOM      1  C   UNL d   1     -39.444  15.497  20.909  0.00  0.00     0.105 A 
ATOM      2  C   UNL d   1     -40.166  15.148  20.750  0.00  0.00     0.015 A 
ATOM      3  C   UNL d   1     -39.025  15.877  20.304  0.00  0.00     0.015 A 
ATOM      4  C   UNL d   1     -40.055  15.555  19.388  0.00  0.00     0.100 A 
ATOM      5  C   UNL d   1     -39.333  15.904  19.548  0.00  0.00     0.025 A 
ATOM      6  C   UNL d   1     -40.474  15.175  19.993  0.00  0.00     0.025 A 
ENDROOT
BRANCH   1   7
ATOM      7  S   UNL d   1     -39.139  15.465  21.678  0.00  0.00     0.285 S 
ATOM      8  O   UNL d   1     -39.547  15.827  22.299  0.00  0.00    -0.198 OA
ATOM      9  O   UNL d   1     -38.429  15.072  21.821  0.00  0.00    -0.198 OA
BRANCH   7  10
ATOM     10  N   UNL d   1     -38.681  15.324  22.354  0.00  0.00    -0.157 NA
BRANCH  10  11
ATOM     11  C   UNL d   1     -38.567  14.542  22.618  0.00  0.00     0.113 A 
ATOM     12  C   UNL d   1     -38.960  14.274  23.293  0.00  0.00     0.119 A 
ATOM     13  N   UNL d   1     -38.846  13.493  23.558  0.00  0.00    -0.241 NA
ATOM     14  C   UNL d   1     -38.335  12.986  23.139  0.00  0.00     0.099 A 
ATOM     15  C   UNL d   1     -37.941  13.261  22.460  0.00  0.00     0.022 A 
ATOM     16  C   UNL d   1     -38.061  14.039  22.205  0.00  0.00     0.023 A 
ENDBRANCH  10  11
ENDBRANCH   7  10
ENDBRANCH   1   7
BRANCH   4  17
ATOM     17  O   UNL d   1     -40.370  15.582  18.620  0.00  0.00    -0.305 OA
BRANCH  17  18
ATOM     18  C   UNL d   1     -40.110  15.048  18.041  0.00  0.00     0.122 A 
ATOM     19  C   UNL d   1     -40.541  14.958  17.347  0.00  0.00     0.117 A 
ATOM     20  C   UNL d   1     -40.281  14.426  16.772  0.00  0.00     0.026 A 
ATOM     21  C   UNL d   1     -39.596  13.991  16.894  0.00  0.00     0.002 A 
ATOM     22  C   UNL d   1     -39.165  14.084  17.592  0.00  0.00     0.002 A 
ATOM     23  C   UNL d   1     -39.425  14.615  18.167  0.00  0.00     0.027 A 
BRANCH  19  24
ATOM     24  O   UNL d   1     -41.223  15.396  17.233  0.00  0.00    -0.326 OA
ATOM     25  C   UNL d   1     -41.559  15.454  16.494  0.00  0.00     0.181 C 
ENDBRANCH  19  24
ENDBRANCH  17  18
ENDBRANCH   4  17
TORSDOF 6
ENDMDL
