MODEL 1
REMARK VINA RESULT:      -6.6      0.000      0.000
REMARK  6 active torsions:
REMARK  status: ('A' for Active; 'I' for Inactive)
REMARK    1  A    between atoms: S_2  and  C_1 
REMARK    2  A    between atoms: C_7  and  S_2 
REMARK    3  A    between atoms: N_10  and  C_6 
REMARK    4  A    between atoms: C_18  and  N_10 
REMARK    5  A    between atoms: N_14  and  C_19 
REMARK    6  A    between atoms: C_19  and  C_18 
ROOT
ATOM      1  C   UNL d   1     -47.387  12.986  22.784  0.00  0.00     0.187 A 
ATOM      2  N   UNL d   1     -47.189  12.297  23.122  0.00  0.00    -0.208 NA
ATOM      3  C   UNL d   1     -46.742  13.453  22.781  0.00  0.00     0.118 A 
ATOM      4  S   UNL d   1     -46.145  13.048  23.118  0.00  0.00    -0.035 SA
ATOM      5  C   UNL d   1     -46.422  12.330  23.330  0.00  0.00     0.196 A 
ATOM      6 CL   UNL d   1     -46.699  14.217  22.482  0.00  0.00    -0.073 Cl
ENDROOT
BRANCH   1   7
ATOM      7  S   UNL d   1     -48.124  13.186  22.489  0.00  0.00     0.228 S 
ATOM      8  O   UNL d   1     -48.524  13.314  23.344  0.00  0.00    -0.216 OA
ATOM      9  O   UNL d   1     -47.775  13.073  21.627  0.00  0.00    -0.216 OA
BRANCH   7  10
ATOM     10  C   UNL d   1     -48.856  13.385  22.177  0.00  0.00     0.089 A 
ATOM     11  C   UNL d   1     -49.302  13.987  22.520  0.00  0.00     0.011 A 
ATOM     12  C   UNL d   1     -50.037  14.189  22.211  0.00  0.00     0.001 A 
ATOM     13  C   UNL d   1     -50.327  13.785  21.551  0.00  0.00     0.000 A 
ATOM     14  C   UNL d   1     -49.882  13.179  21.202  0.00  0.00     0.001 A 
ATOM     15  C   UNL d   1     -51.064  13.987  21.238  0.00  0.00     0.000 C 
ATOM     16  C   UNL d   1     -49.144  12.984  21.522  0.00  0.00     0.011 A 
ENDBRANCH   7  10
ENDBRANCH   1   7
BRANCH   5  17
ATOM     17  N   UNL d   1     -45.988  11.735  23.698  0.00  0.00    -0.218 NA
BRANCH  17  18
ATOM     18  C   UNL d   1     -45.379  11.372  23.302  0.00  0.00     0.120 C 
BRANCH  18  19
ATOM     19  C   UNL d   1     -45.000  10.710  23.635  0.00  0.00     0.101 C 
BRANCH  19  20
ATOM     20  N   UNL d   1     -44.258  10.476  23.360  0.00  0.00    -0.299 N 
ATOM     21  C   UNL d   1     -43.993   9.712  23.485  0.00  0.00     0.100 C 
ATOM     22  C   UNL d   1     -43.781  11.014  22.957  0.00  0.00     0.100 C 
ENDBRANCH  19  20
ENDBRANCH  18  19
ENDBRANCH  17  18
ENDBRANCH   5  17
TORSDOF 6
ENDMDL
MODEL 2
REMARK VINA RESULT:      -5.5      8.448      9.738
REMARK  6 active torsions:
REMARK  status: ('A' for Active; 'I' for Inactive)
REMARK    1  A    between atoms: S_2  and  C_1 
REMARK    2  A    between atoms: C_7  and  S_2 
REMARK    3  A    between atoms: N_10  and  C_6 
REMARK    4  A    between atoms: C_18  and  N_10 
REMARK    5  A    between atoms: N_14  and  C_19 
REMARK    6  A    between atoms: C_19  and  C_18 
ROOT
ATOM      1  C   UNL d   1     -39.621  14.457  18.754  0.00  0.00     0.187 A 
ATOM      2  N   UNL d   1     -39.227  14.628  19.419  0.00  0.00    -0.208 NA
ATOM      3  C   UNL d   1     -40.400  14.491  18.914  0.00  0.00     0.118 A 
ATOM      4  S   UNL d   1     -40.484  14.684  19.682  0.00  0.00    -0.035 SA
ATOM      5  C   UNL d   1     -39.756  14.770  19.996  0.00  0.00     0.196 A 
ATOM      6 CL   UNL d   1     -41.010  14.351  18.382  0.00  0.00    -0.073 Cl
ENDROOT
BRANCH   1   7
ATOM      7  S   UNL d   1     -39.289  14.276  18.028  0.00  0.00     0.228 S 
ATOM      8  O   UNL d   1     -39.403  13.334  18.115  0.00  0.00    -0.216 OA
ATOM      9  O   UNL d   1     -39.155  15.194  17.896  0.00  0.00    -0.216 OA
BRANCH   7  10
ATOM     10  C   UNL d   1     -38.953  14.113  17.297  0.00  0.00     0.089 A 
ATOM     11  C   UNL d   1     -38.549  13.404  17.177  0.00  0.00     0.011 A 
ATOM     12  C   UNL d   1     -38.211  13.236  16.447  0.00  0.00     0.001 A 
ATOM     13  C   UNL d   1     -38.278  13.783  15.831  0.00  0.00     0.000 A 
ATOM     14  C   UNL d   1     -38.684  14.496  15.946  0.00  0.00     0.001 A 
ATOM     15  C   UNL d   1     -37.940  13.616  15.096  0.00  0.00     0.000 C 
ATOM     16  C   UNL d   1     -39.020  14.655  16.686  0.00  0.00     0.011 A 
ENDBRANCH   7  10
ENDBRANCH   1   7
BRANCH   5  17
ATOM     17  N   UNL d   1     -39.587  14.968  20.777  0.00  0.00    -0.218 NA
BRANCH  17  18
ATOM     18  C   UNL d   1     -39.334  14.397  21.296  0.00  0.00     0.120 C 
BRANCH  18  19
ATOM     19  C   UNL d   1     -39.209  14.586  22.097  0.00  0.00     0.101 C 
BRANCH  19  20
ATOM     20  N   UNL d   1     -38.656  14.164  22.541  0.00  0.00    -0.299 N 
ATOM     21  C   UNL d   1     -38.027  14.551  22.894  0.00  0.00     0.100 C 
ATOM     22  C   UNL d   1     -38.736  13.349  22.628  0.00  0.00     0.100 C 
ENDBRANCH  19  20
ENDBRANCH  18  19
ENDBRANCH  17  18
ENDBRANCH   5  17
TORSDOF 6
ENDMDL
MODEL 3
REMARK VINA RESULT:      -5.5      1.417      4.764
REMARK  6 active torsions:
REMARK  status: ('A' for Active; 'I' for Inactive)
REMARK    1  A    between atoms: S_2  and  C_1 
REMARK    2  A    between atoms: C_7  and  S_2 
REMARK    3  A    between atoms: N_10  and  C_6 
REMARK    4  A    between atoms: C_18  and  N_10 
REMARK    5  A    between atoms: N_14  and  C_19 
REMARK    6  A    between atoms: C_19  and  C_18 
ROOT
ATOM      1  C   UNL d   1     -46.941  13.084  22.923  0.00  0.00     0.187 A 
ATOM      2  N   UNL d   1     -47.695  13.139  23.161  0.00  0.00    -0.208 NA
ATOM      3  C   UNL d   1     -46.765  13.741  22.510  0.00  0.00     0.118 A 
ATOM      4  S   UNL d   1     -47.415  14.201  22.494  0.00  0.00    -0.035 SA
ATOM      5  C   UNL d   1     -47.992  13.828  22.898  0.00  0.00     0.196 A 
ATOM      6 CL   UNL d   1     -46.042  13.914  22.161  0.00  0.00    -0.073 Cl
ENDROOT
BRANCH   1   7
ATOM      7  S   UNL d   1     -46.431  12.462  23.075  0.00  0.00     0.228 S 
ATOM      8  O   UNL d   1     -45.894  12.944  23.697  0.00  0.00    -0.216 OA
ATOM      9  O   UNL d   1     -46.928  11.948  22.470  0.00  0.00    -0.216 OA
BRANCH   7  10
ATOM     10  C   UNL d   1     -45.928  11.828  23.215  0.00  0.00     0.089 A 
ATOM     11  C   UNL d   1     -45.129  11.884  23.017  0.00  0.00     0.011 A 
ATOM     12  C   UNL d   1     -44.622  11.251  23.155  0.00  0.00     0.001 A 
ATOM     13  C   UNL d   1     -44.917  10.558  23.494  0.00  0.00     0.000 A 
ATOM     14  C   UNL d   1     -45.719  10.498  23.694  0.00  0.00     0.001 A 
ATOM     15  C   UNL d   1     -44.409   9.922  23.634  0.00  0.00     0.000 C 
ATOM     16  C   UNL d   1     -46.221  11.141  23.551  0.00  0.00     0.011 A 
ENDBRANCH   7  10
ENDBRANCH   1   7
BRANCH   5  17
ATOM     17  N   UNL d   1     -48.757  14.109  23.018  0.00  0.00    -0.218 NA
BRANCH  17  18
ATOM     18  C   UNL d   1     -49.367  13.840  22.555  0.00  0.00     0.120 C 
BRANCH  18  19
ATOM     19  C   UNL d   1     -50.130  13.754  22.876  0.00  0.00     0.101 C 
BRANCH  19  20
ATOM     20  N   UNL d   1     -50.738  13.436  22.419  0.00  0.00    -0.299 N 
ATOM     21  C   UNL d   1     -51.027  12.687  22.579  0.00  0.00     0.100 C 
ATOM     22  C   UNL d   1     -51.057  13.873  21.797  0.00  0.00     0.100 C 
ENDBRANCH  19  20
ENDBRANCH  18  19
ENDBRANCH  17  18
ENDBRANCH   5  17
TORSDOF 6
ENDMDL
MODEL 4
REMARK VINA RESULT:      -5.1      8.434      9.179
REMARK  6 active torsions:
REMARK  status: ('A' for Active; 'I' for Inactive)
REMARK    1  A    between atoms: S_2  and  C_1 
REMARK    2  A    between atoms: C_7  and  S_2 
REMARK    3  A    between atoms: N_10  and  C_6 
REMARK    4  A    between atoms: C_18  and  N_10 
REMARK    5  A    between atoms: N_14  and  C_19 
REMARK    6  A    between atoms: C_19  and  C_18 
ROOT
ATOM      1  C   UNL d   1     -39.004  14.253  18.837  0.00  0.00     0.187 A 
ATOM      2  N   UNL d   1     -38.874  14.481  19.584  0.00  0.00    -0.208 NA
ATOM      3  C   UNL d   1     -38.535  13.628  18.685  0.00  0.00     0.118 A 
ATOM      4  S   UNL d   1     -38.115  13.473  19.343  0.00  0.00    -0.035 SA
ATOM      5  C   UNL d   1     -38.324  14.002  19.902  0.00  0.00     0.196 A 
ATOM      6 CL   UNL d   1     -38.492  13.216  17.976  0.00  0.00    -0.073 Cl
ENDROOT
BRANCH   1   7
ATOM      7  S   UNL d   1     -39.529  14.597  18.311  0.00  0.00     0.228 S 
ATOM      8  O   UNL d   1     -39.003  15.377  18.166  0.00  0.00    -0.216 OA
ATOM      9  O   UNL d   1     -40.081  13.848  18.421  0.00  0.00    -0.216 OA
BRANCH   7  10
ATOM     10  C   UNL d   1     -40.066  14.927  17.785  0.00  0.00     0.089 A 
ATOM     11  C   UNL d   1     -39.844  15.069  17.004  0.00  0.00     0.011 A 
ATOM     12  C   UNL d   1     -40.379  15.400  16.474  0.00  0.00     0.001 A 
ATOM     13  C   UNL d   1     -41.142  15.590  16.728  0.00  0.00     0.000 A 
ATOM     14  C   UNL d   1     -41.369  15.449  17.513  0.00  0.00     0.001 A 
ATOM     15  C   UNL d   1     -41.680  15.922  16.197  0.00  0.00     0.000 C 
ATOM     16  C   UNL d   1     -40.822  15.115  18.038  0.00  0.00     0.011 A 
ENDBRANCH   7  10
ENDBRANCH   1   7
BRANCH   5  17
ATOM     17  N   UNL d   1     -38.023  14.041  20.667  0.00  0.00    -0.218 NA
BRANCH  17  18
ATOM     18  C   UNL d   1     -38.414  13.675  21.277  0.00  0.00     0.120 C 
BRANCH  18  19
ATOM     19  C   UNL d   1     -38.253  13.888  22.065  0.00  0.00     0.101 C 
BRANCH  19  20
ATOM     20  N   UNL d   1     -38.499  13.401  22.684  0.00  0.00    -0.299 N 
ATOM     21  C   UNL d   1     -39.296  13.303  22.843  0.00  0.00     0.100 C 
ATOM     22  C   UNL d   1     -37.940  13.009  23.145  0.00  0.00     0.100 C 
ENDBRANCH  19  20
ENDBRANCH  18  19
ENDBRANCH  17  18
ENDBRANCH   5  17
TORSDOF 6
ENDMDL
MODEL 5
REMARK VINA RESULT:      -5.1      8.138      9.534
REMARK  6 active torsions:
REMARK  status: ('A' for Active; 'I' for Inactive)
REMARK    1  A    between atoms: S_2  and  C_1 
REMARK    2  A    between atoms: C_7  and  S_2 
REMARK    3  A    between atoms: N_10  and  C_6 
REMARK    4  A    between atoms: C_18  and  N_10 
REMARK    5  A    between atoms: N_14  and  C_19 
REMARK    6  A    between atoms: C_19  and  C_18 
ROOT
ATOM      1  C   UNL d   1     -39.923  15.192  20.261  0.00  0.00     0.187 A 
ATOM      2  N   UNL d   1     -39.513  15.362  19.605  0.00  0.00    -0.208 NA
ATOM      3  C   UNL d   1     -40.683  15.391  20.136  0.00  0.00     0.118 A 
ATOM      4  S   UNL d   1     -40.740  15.686  19.398  0.00  0.00    -0.035 SA
ATOM      5  C   UNL d   1     -40.014  15.668  19.068  0.00  0.00     0.196 A 
ATOM      6 CL   UNL d   1     -41.300  15.308  20.671  0.00  0.00    -0.073 Cl
ENDROOT
BRANCH   1   7
ATOM      7  S   UNL d   1     -39.620  14.867  20.949  0.00  0.00     0.228 S 
ATOM      8  O   UNL d   1     -39.202  15.670  21.244  0.00  0.00    -0.216 OA
ATOM      9  O   UNL d   1     -40.014  14.054  20.702  0.00  0.00    -0.216 OA
BRANCH   7  10
ATOM     10  C   UNL d   1     -39.325  14.526  21.635  0.00  0.00     0.089 A 
ATOM     11  C   UNL d   1     -39.217  13.709  21.676  0.00  0.00     0.011 A 
ATOM     12  C   UNL d   1     -38.921  13.363  22.360  0.00  0.00     0.001 A 
ATOM     13  C   UNL d   1     -38.732  13.837  23.009  0.00  0.00     0.000 A 
ATOM     14  C   UNL d   1     -38.839  14.658  22.973  0.00  0.00     0.001 A 
ATOM     15  C   UNL d   1     -38.435  13.491  23.698  0.00  0.00     0.000 C 
ATOM     16  C   UNL d   1     -39.138  14.997  22.279  0.00  0.00     0.011 A 
ENDBRANCH   7  10
ENDBRANCH   1   7
BRANCH   5  17
ATOM     17  N   UNL d   1     -39.822  15.922  18.308  0.00  0.00    -0.218 NA
BRANCH  17  18
ATOM     18  C   UNL d   1     -39.484  15.405  17.781  0.00  0.00     0.120 C 
BRANCH  18  19
ATOM     19  C   UNL d   1     -39.365  15.635  16.989  0.00  0.00     0.101 C 
BRANCH  19  20
ATOM     20  N   UNL d   1     -38.861  15.198  16.504  0.00  0.00    -0.299 N 
ATOM     21  C   UNL d   1     -39.063  14.438  16.276  0.00  0.00     0.100 C 
ATOM     22  C   UNL d   1     -38.152  15.528  16.245  0.00  0.00     0.100 C 
ENDBRANCH  19  20
ENDBRANCH  18  19
ENDBRANCH  17  18
ENDBRANCH   5  17
TORSDOF 6
ENDMDL
MODEL 6
REMARK VINA RESULT:      -4.6      8.300      9.572
REMARK  6 active torsions:
REMARK  status: ('A' for Active; 'I' for Inactive)
REMARK    1  A    between atoms: S_2  and  C_1 
REMARK    2  A    between atoms: C_7  and  S_2 
REMARK    3  A    between atoms: N_10  and  C_6 
REMARK    4  A    between atoms: C_18  and  N_10 
REMARK    5  A    between atoms: N_14  and  C_19 
REMARK    6  A    between atoms: C_19  and  C_18 
ROOT
ATOM      1  C   UNL d   1     -39.813  14.785  19.800  0.00  0.00     0.187 A 
ATOM      2  N   UNL d   1     -39.389  14.947  19.151  0.00  0.00    -0.208 NA
ATOM      3  C   UNL d   1     -40.508  14.474  19.568  0.00  0.00     0.118 A 
ATOM      4  S   UNL d   1     -40.510  14.446  18.773  0.00  0.00    -0.035 SA
ATOM      5  C   UNL d   1     -39.816  14.739  18.513  0.00  0.00     0.196 A 
ATOM      6 CL   UNL d   1     -41.116  14.227  20.062  0.00  0.00    -0.073 Cl
ENDROOT
BRANCH   1   7
ATOM      7  S   UNL d   1     -39.580  14.913  20.574  0.00  0.00     0.228 S 
ATOM      8  O   UNL d   1     -40.338  15.442  20.804  0.00  0.00    -0.216 OA
ATOM      9  O   UNL d   1     -38.816  14.400  20.396  0.00  0.00    -0.216 OA
BRANCH   7  10
ATOM     10  C   UNL d   1     -39.331  15.032  21.347  0.00  0.00     0.089 A 
ATOM     11  C   UNL d   1     -39.239  15.798  21.638  0.00  0.00     0.011 A 
ATOM     12  C   UNL d   1     -38.990  15.921  22.412  0.00  0.00     0.001 A 
ATOM     13  C   UNL d   1     -38.832  15.273  22.899  0.00  0.00     0.000 A 
ATOM     14  C   UNL d   1     -38.922  14.501  22.610  0.00  0.00     0.001 A 
ATOM     15  C   UNL d   1     -38.582  15.395  23.676  0.00  0.00     0.000 C 
ATOM     16  C   UNL d   1     -39.174  14.388  21.830  0.00  0.00     0.011 A 
ENDBRANCH   7  10
ENDBRANCH   1   7
BRANCH   5  17
ATOM     17  N   UNL d   1     -39.587  14.811  17.725  0.00  0.00    -0.218 NA
BRANCH  17  18
ATOM     18  C   UNL d   1     -39.071  14.275  17.401  0.00  0.00     0.120 C 
BRANCH  18  19
ATOM     19  C   UNL d   1     -38.747  14.409  16.646  0.00  0.00     0.101 C 
BRANCH  19  20
ATOM     20  N   UNL d   1     -38.336  13.808  16.259  0.00  0.00    -0.299 N 
ATOM     21  C   UNL d   1     -38.245  13.826  15.446  0.00  0.00     0.100 C 
ATOM     22  C   UNL d   1     -38.015  13.185  16.692  0.00  0.00     0.100 C 
ENDBRANCH  19  20
ENDBRANCH  18  19
ENDBRANCH  17  18
ENDBRANCH   5  17
TORSDOF 6
ENDMDL
