MODEL 1
REMARK VINA RESULT:      -3.2      0.000      0.000
REMARK  5 active torsions:
REMARK  status: ('A' for Active; 'I' for Inactive)
REMARK    1  A    between atoms: N_5  and  C_1 
REMARK    2  A    between atoms: C_8  and  C_3 
REMARK       I    between atoms: C_7  and  N_5 
REMARK    3  A    between atoms: C_11  and  C_7 
REMARK    4  A    between atoms: C_21  and  C_20 
REMARK    5  A    between atoms: C_24  and  C_21 
ROOT
ATOM      1  N   UNL d   1      57.419  -0.439  30.626  0.00  0.00    -0.165 NA
ATOM      2  C   UNL d   1      57.156  -0.857  31.274  0.00  0.00     0.282 C 
ATOM      3  O   UNL d   1      57.300  -1.669  31.337  0.00  0.00    -0.265 OA
ENDROOT
BRANCH   1   4
ATOM      4  C   UNL d   1      57.833  -0.821  30.025  0.00  0.00     0.297 A 
ATOM      5  O   UNL d   1      58.449  -1.357  30.137  0.00  0.00    -0.253 OA
ATOM      6  C   UNL d   1      58.707  -1.607  29.392  0.00  0.00     0.206 A 
ATOM      7  N   UNL d   1      58.249  -1.224  28.830  0.00  0.00    -0.119 NA
ATOM      8  N   UNL d   1      57.711  -0.740  29.220  0.00  0.00    -0.101 NA
BRANCH   6   9
ATOM      9  C   UNL d   1      59.317  -2.147  29.249  0.00  0.00     0.045 A 
ATOM     10  C   UNL d   1      59.146  -2.956  29.153  0.00  0.00     0.030 A 
ATOM     11  C   UNL d   1      59.745  -3.474  29.015  0.00  0.00     0.123 A 
ATOM     12  O   UNL d   1      59.564  -4.278  28.921  0.00  0.00    -0.301 OA
ATOM     13  C   UNL d   1      60.522  -3.218  28.966  0.00  0.00     0.123 A 
ATOM     14  C   UNL d   1      60.161  -4.818  28.779  0.00  0.00     0.149 A 
ATOM     15  C   UNL d   1      60.944  -4.563  28.730  0.00  0.00     0.149 A 
ATOM     16  O   UNL d   1      61.133  -3.766  28.822  0.00  0.00    -0.301 OA
ATOM     17  C   UNL d   1      60.705  -2.435  29.057  0.00  0.00     0.027 A 
ATOM     18  C   UNL d   1      60.100  -1.882  29.201  0.00  0.00     0.006 A 
ENDBRANCH   6   9
ENDBRANCH   1   4
BRANCH   2  19
ATOM     19  C   UNL d   1      56.741  -0.475  31.875  0.00  0.00     0.058 A 
ATOM     20  C   UNL d   1      56.111  -0.869  32.231  0.00  0.00     0.005 A 
ATOM     21  C   UNL d   1      55.694  -0.486  32.835  0.00  0.00     0.000 A 
ATOM     22  C   UNL d   1      55.905   0.274  33.075  0.00  0.00     0.000 A 
ATOM     23  C   UNL d   1      56.538   0.655  32.708  0.00  0.00     0.000 A 
ATOM     24  C   UNL d   1      56.954   0.277  32.108  0.00  0.00     0.005 A 
BRANCH  22  25
ATOM     25  C   UNL d   1      55.487   0.649  33.675  0.00  0.00     0.000 C 
BRANCH  25  26
ATOM     26  C   UNL d   1      55.751   0.606  34.455  0.00  0.00     0.000 A 
ATOM     27  C   UNL d   1      55.210   0.488  35.071  0.00  0.00     0.000 A 
ATOM     28  C   UNL d   1      55.477   0.445  35.849  0.00  0.00     0.000 A 
ATOM     29  C   UNL d   1      56.292   0.521  36.018  0.00  0.00     0.000 A 
ATOM     30  C   UNL d   1      56.829   0.638  35.401  0.00  0.00     0.000 A 
ATOM     31  C   UNL d   1      56.563   0.682  34.617  0.00  0.00     0.000 A 
ENDBRANCH  25  26
ENDBRANCH  22  25
ENDBRANCH   2  19
TORSDOF 5
ENDMDL
MODEL 2
REMARK VINA RESULT:      -0.7      1.846      6.798
REMARK  5 active torsions:
REMARK  status: ('A' for Active; 'I' for Inactive)
REMARK    1  A    between atoms: N_5  and  C_1 
REMARK    2  A    between atoms: C_8  and  C_3 
REMARK       I    between atoms: C_7  and  N_5 
REMARK    3  A    between atoms: C_11  and  C_7 
REMARK    4  A    between atoms: C_21  and  C_20 
REMARK    5  A    between atoms: C_24  and  C_21 
ROOT
ATOM      1  N   UNL d   1      57.989  -0.594  31.771  0.00  0.00    -0.165 NA
ATOM      2  C   UNL d   1      57.672  -0.487  31.028  0.00  0.00     0.282 C 
ATOM      3  O   UNL d   1      57.051   0.044  30.907  0.00  0.00    -0.265 OA
ENDROOT
BRANCH   1   4
ATOM      4  C   UNL d   1      57.691  -0.171  32.413  0.00  0.00     0.297 A 
ATOM      5  O   UNL d   1      56.943  -0.269  32.742  0.00  0.00    -0.253 OA
ATOM      6  C   UNL d   1      56.871   0.263  33.372  0.00  0.00     0.206 A 
ATOM      7  N   UNL d   1      57.574   0.682  33.424  0.00  0.00    -0.119 NA
ATOM      8  N   UNL d   1      58.080   0.414  32.833  0.00  0.00    -0.101 NA
BRANCH   6   9
ATOM      9  C   UNL d   1      56.207   0.350  33.857  0.00  0.00     0.045 A 
ATOM     10  C   UNL d   1      55.449   0.423  33.518  0.00  0.00     0.030 A 
ATOM     11  C   UNL d   1      54.808   0.507  33.996  0.00  0.00     0.123 A 
ATOM     12  O   UNL d   1      54.058   0.579  33.650  0.00  0.00    -0.301 OA
ATOM     13  C   UNL d   1      54.888   0.522  34.812  0.00  0.00     0.123 A 
ATOM     14  C   UNL d   1      53.396   0.665  34.121  0.00  0.00     0.149 A 
ATOM     15  C   UNL d   1      53.474   0.681  34.942  0.00  0.00     0.149 A 
ATOM     16  O   UNL d   1      54.215   0.610  35.296  0.00  0.00    -0.301 OA
ATOM     17  C   UNL d   1      55.617   0.452  35.156  0.00  0.00     0.027 A 
ATOM     18  C   UNL d   1      56.294   0.365  34.680  0.00  0.00     0.006 A 
ENDBRANCH   6   9
ENDBRANCH   1   4
BRANCH   2  19
ATOM     19  C   UNL d   1      57.969  -0.910  30.385  0.00  0.00     0.058 A 
ATOM     20  C   UNL d   1      58.697  -0.688  30.070  0.00  0.00     0.005 A 
ATOM     21  C   UNL d   1      58.996  -1.112  29.426  0.00  0.00     0.000 A 
ATOM     22  C   UNL d   1      58.574  -1.744  29.105  0.00  0.00     0.000 A 
ATOM     23  C   UNL d   1      57.846  -1.953  29.432  0.00  0.00     0.000 A 
ATOM     24  C   UNL d   1      57.547  -1.534  30.073  0.00  0.00     0.005 A 
BRANCH  22  25
ATOM     25  C   UNL d   1      58.876  -2.161  28.465  0.00  0.00     0.000 C 
BRANCH  25  26
ATOM     26  C   UNL d   1      59.367  -2.812  28.587  0.00  0.00     0.000 A 
ATOM     27  C   UNL d   1      60.177  -2.702  28.724  0.00  0.00     0.000 A 
ATOM     28  C   UNL d   1      60.665  -3.355  28.845  0.00  0.00     0.000 A 
ATOM     29  C   UNL d   1      60.344  -4.127  28.832  0.00  0.00     0.000 A 
ATOM     30  C   UNL d   1      59.537  -4.233  28.696  0.00  0.00     0.000 A 
ATOM     31  C   UNL d   1      59.043  -3.577  28.573  0.00  0.00     0.000 A 
ENDBRANCH  25  26
ENDBRANCH  22  25
ENDBRANCH   2  19
TORSDOF 5
ENDMDL
