MODEL 1
REMARK VINA RESULT:      -2.5      0.000      0.000
REMARK  4 active torsions:
REMARK  status: ('A' for Active; 'I' for Inactive)
REMARK    1  A    between atoms: C_2  and  C_1 
REMARK    2  A    between atoms: O_6  and  C_3 
REMARK    3  A    between atoms: C_4  and  C_9 
REMARK    4  A    between atoms: C_9  and  O_6 
ROOT
ATOM      1  C   UNL d   1      58.340   0.025  29.957  0.00  0.00     0.000 A 
ATOM      2  C   UNL d   1      58.270  -0.801  30.037  0.00  0.00     0.091 A 
ATOM      3  C   UNL d   1      57.913   0.522  30.487  0.00  0.00     0.004 A 
ATOM      4  C   UNL d   1      57.793  -1.130  30.624  0.00  0.00     0.024 A 
ATOM      5  C   UNL d   1      57.438   0.185  31.071  0.00  0.00     0.035 A 
ATOM      6  C   UNL d   1      57.380  -0.635  31.137  0.00  0.00     0.009 A 
ATOM      7 BR   UNL d   1      57.011   0.681  31.603  0.00  0.00    -0.049 Br
ENDROOT
BRANCH   2   8
ATOM      8  O   UNL d   1      58.694  -1.289  29.510  0.00  0.00    -0.320 OA
BRANCH   8   9
ATOM      9  C   UNL d   1      58.722  -2.124  29.624  0.00  0.00     0.246 C 
BRANCH   9  10
ATOM     10  C   UNL d   1      59.022  -2.618  29.035  0.00  0.00     0.217 C 
ATOM     11  O   UNL d   1      58.505  -2.920  28.457  0.00  0.00    -0.645 OA
ATOM     12  O   UNL d   1      59.826  -2.798  29.035  0.00  0.00    -0.645 OA
ENDBRANCH   9  10
ENDBRANCH   8   9
ENDBRANCH   2   8
BRANCH   1  13
ATOM     13  C   UNL d   1      58.815   0.352  29.372  0.00  0.00     0.021 C 
ATOM     14  C   UNL d   1      59.294   0.682  28.783  0.00  0.00     0.004 C 
ATOM     15  C   UNL d   1      59.468   0.322  29.885  0.00  0.00     0.004 C 
ATOM     16  C   UNL d   1      58.174   0.383  28.867  0.00  0.00     0.004 C 
ENDBRANCH   1  13
TORSDOF 4
ENDMDL
MODEL 2
REMARK VINA RESULT:      -2.2      2.521      3.950
REMARK  4 active torsions:
REMARK  status: ('A' for Active; 'I' for Inactive)
REMARK    1  A    between atoms: C_2  and  C_1 
REMARK    2  A    between atoms: O_6  and  C_3 
REMARK    3  A    between atoms: C_4  and  C_9 
REMARK    4  A    between atoms: C_9  and  O_6 
ROOT
ATOM      1  C   UNL d   1      56.563   0.061  33.319  0.00  0.00     0.000 A 
ATOM      2  C   UNL d   1      57.168   0.225  32.771  0.00  0.00     0.091 A 
ATOM      3  C   UNL d   1      56.700   0.217  34.136  0.00  0.00     0.004 A 
ATOM      4  C   UNL d   1      57.891   0.533  33.021  0.00  0.00     0.024 A 
ATOM      5  C   UNL d   1      57.426   0.525  34.376  0.00  0.00     0.035 A 
ATOM      6  C   UNL d   1      58.016   0.682  33.821  0.00  0.00     0.009 A 
ATOM      7 BR   UNL d   1      57.566   0.682  35.193  0.00  0.00    -0.049 Br
ENDROOT
BRANCH   2   8
ATOM      8  O   UNL d   1      57.028   0.069  31.964  0.00  0.00    -0.320 OA
BRANCH   8   9
ATOM      9  C   UNL d   1      57.609   0.253  31.382  0.00  0.00     0.246 C 
BRANCH   9  10
ATOM     10  C   UNL d   1      57.500   0.031  30.595  0.00  0.00     0.217 C 
ATOM     11  O   UNL d   1      57.736  -0.729  30.350  0.00  0.00    -0.645 OA
ATOM     12  O   UNL d   1      57.158   0.569  30.072  0.00  0.00    -0.645 OA
ENDBRANCH   9  10
ENDBRANCH   8   9
ENDBRANCH   2   8
BRANCH   1  13
ATOM     13  C   UNL d   1      55.842  -0.247  33.070  0.00  0.00     0.021 C 
ATOM     14  C   UNL d   1      55.117  -0.556  32.819  0.00  0.00     0.004 C 
ATOM     15  C   UNL d   1      55.530   0.522  33.025  0.00  0.00     0.004 C 
ATOM     16  C   UNL d   1      56.150  -1.002  33.114  0.00  0.00     0.004 C 
ENDBRANCH   1  13
TORSDOF 4
ENDMDL
MODEL 3
REMARK VINA RESULT:      -1.7      1.853      3.045
REMARK  4 active torsions:
REMARK  status: ('A' for Active; 'I' for Inactive)
REMARK    1  A    between atoms: C_2  and  C_1 
REMARK    2  A    between atoms: O_6  and  C_3 
REMARK    3  A    between atoms: C_4  and  C_9 
REMARK    4  A    between atoms: C_9  and  O_6 
ROOT
ATOM      1  C   UNL d   1      59.360  -0.748  29.167  0.00  0.00     0.000 A 
ATOM      2  C   UNL d   1      59.073  -0.224  29.748  0.00  0.00     0.091 A 
ATOM      3  C   UNL d   1      60.055  -0.539  28.739  0.00  0.00     0.004 A 
ATOM      4  C   UNL d   1      59.461   0.487  29.904  0.00  0.00     0.024 A 
ATOM      5  C   UNL d   1      60.436   0.175  28.902  0.00  0.00     0.035 A 
ATOM      6  C   UNL d   1      60.139   0.682  29.480  0.00  0.00     0.009 A 
ATOM      7 BR   UNL d   1      61.132   0.385  28.474  0.00  0.00    -0.049 Br
ENDROOT
BRANCH   2   8
ATOM      8  O   UNL d   1      58.385  -0.435  30.170  0.00  0.00    -0.320 OA
BRANCH   8   9
ATOM      9  C   UNL d   1      58.069   0.075  30.762  0.00  0.00     0.246 C 
BRANCH   9  10
ATOM     10  C   UNL d   1      57.379  -0.128  31.166  0.00  0.00     0.217 C 
ATOM     11  O   UNL d   1      56.649   0.168  30.897  0.00  0.00    -0.645 OA
ATOM     12  O   UNL d   1      57.432  -0.620  31.825  0.00  0.00    -0.645 OA
ENDBRANCH   9  10
ENDBRANCH   8   9
ENDBRANCH   2   8
BRANCH   1  13
ATOM     13  C   UNL d   1      58.973  -1.456  29.012  0.00  0.00     0.021 C 
ATOM     14  C   UNL d   1      58.584  -2.169  28.856  0.00  0.00     0.004 C 
ATOM     15  C   UNL d   1      59.448  -1.839  29.577  0.00  0.00     0.004 C 
ATOM     16  C   UNL d   1      58.506  -1.080  28.457  0.00  0.00     0.004 C 
ENDBRANCH   1  13
TORSDOF 4
ENDMDL
MODEL 4
REMARK VINA RESULT:      -1.5      1.936      2.977
REMARK  4 active torsions:
REMARK  status: ('A' for Active; 'I' for Inactive)
REMARK    1  A    between atoms: C_2  and  C_1 
REMARK    2  A    between atoms: O_6  and  C_3 
REMARK    3  A    between atoms: C_4  and  C_9 
REMARK    4  A    between atoms: C_9  and  O_6 
ROOT
ATOM      1  C   UNL d   1      59.665  -1.044  29.150  0.00  0.00     0.000 A 
ATOM      2  C   UNL d   1      58.943  -1.109  29.560  0.00  0.00     0.091 A 
ATOM      3  C   UNL d   1      59.985  -1.729  28.779  0.00  0.00     0.004 A 
ATOM      4  C   UNL d   1      58.546  -1.831  29.604  0.00  0.00     0.024 A 
ATOM      5  C   UNL d   1      59.581  -2.447  28.828  0.00  0.00     0.035 A 
ATOM      6  C   UNL d   1      58.868  -2.495  29.237  0.00  0.00     0.009 A 
ATOM      7 BR   UNL d   1      59.901  -3.134  28.457  0.00  0.00    -0.049 Br
ENDROOT
BRANCH   2   8
ATOM      8  O   UNL d   1      58.629  -0.429  29.926  0.00  0.00    -0.320 OA
BRANCH   8   9
ATOM      9  C   UNL d   1      57.969  -0.485  30.447  0.00  0.00     0.246 C 
BRANCH   9  10
ATOM     10  C   UNL d   1      57.692   0.183  30.845  0.00  0.00     0.217 C 
ATOM     11  O   UNL d   1      57.143   0.682  30.468  0.00  0.00    -0.645 OA
ATOM     12  O   UNL d   1      57.967   0.335  31.607  0.00  0.00    -0.645 OA
ENDBRANCH   9  10
ENDBRANCH   8   9
ENDBRANCH   2   8
BRANCH   1  13
ATOM     13  C   UNL d   1      60.060  -0.325  29.107  0.00  0.00     0.021 C 
ATOM     14  C   UNL d   1      60.458   0.399  29.063  0.00  0.00     0.004 C 
ATOM     15  C   UNL d   1      60.515  -0.535  29.769  0.00  0.00     0.004 C 
ATOM     16  C   UNL d   1      59.613  -0.118  28.455  0.00  0.00     0.004 C 
ENDBRANCH   1  13
TORSDOF 4
ENDMDL
MODEL 5
REMARK VINA RESULT:      -1.2      1.672      2.422
REMARK  4 active torsions:
REMARK  status: ('A' for Active; 'I' for Inactive)
REMARK    1  A    between atoms: C_2  and  C_1 
REMARK    2  A    between atoms: O_6  and  C_3 
REMARK    3  A    between atoms: C_4  and  C_9 
REMARK    4  A    between atoms: C_9  and  O_6 
ROOT
ATOM      1  C   UNL d   1      59.360  -0.544  29.216  0.00  0.00     0.000 A 
ATOM      2  C   UNL d   1      59.593  -1.277  28.895  0.00  0.00     0.091 A 
ATOM      3  C   UNL d   1      59.882   0.114  29.148  0.00  0.00     0.004 A 
ATOM      4  C   UNL d   1      60.321  -1.359  28.516  0.00  0.00     0.024 A 
ATOM      5  C   UNL d   1      60.609   0.022  28.768  0.00  0.00     0.035 A 
ATOM      6  C   UNL d   1      60.824  -0.710  28.455  0.00  0.00     0.009 A 
ATOM      7 BR   UNL d   1      61.132   0.680  28.699  0.00  0.00    -0.049 Br
ENDROOT
BRANCH   2   8
ATOM      8  O   UNL d   1      59.073  -1.925  28.965  0.00  0.00    -0.320 OA
BRANCH   8   9
ATOM      9  C   UNL d   1      59.194  -2.625  28.511  0.00  0.00     0.246 C 
BRANCH   9  10
ATOM     10  C   UNL d   1      58.938  -3.357  28.792  0.00  0.00     0.217 C 
ATOM     11  O   UNL d   1      58.146  -3.583  28.672  0.00  0.00    -0.645 OA
ATOM     12  O   UNL d   1      59.475  -3.844  29.186  0.00  0.00    -0.645 OA
ENDBRANCH   9  10
ENDBRANCH   8   9
ENDBRANCH   2   8
BRANCH   1  13
ATOM     13  C   UNL d   1      58.635  -0.462  29.594  0.00  0.00     0.021 C 
ATOM     14  C   UNL d   1      57.905  -0.379  29.973  0.00  0.00     0.004 C 
ATOM     15  C   UNL d   1      58.979  -0.708  30.309  0.00  0.00     0.004 C 
ATOM     16  C   UNL d   1      58.297  -0.220  28.890  0.00  0.00     0.004 C 
ENDBRANCH   1  13
TORSDOF 4
ENDMDL
MODEL 6
REMARK VINA RESULT:      -0.7      2.976      4.005
REMARK  4 active torsions:
REMARK  status: ('A' for Active; 'I' for Inactive)
REMARK    1  A    between atoms: C_2  and  C_1 
REMARK    2  A    between atoms: O_6  and  C_3 
REMARK    3  A    between atoms: C_4  and  C_9 
REMARK    4  A    between atoms: C_9  and  O_6 
ROOT
ATOM      1  C   UNL d   1      56.301  -0.371  32.938  0.00  0.00     0.000 A 
ATOM      2  C   UNL d   1      56.937   0.155  33.054  0.00  0.00     0.091 A 
ATOM      3  C   UNL d   1      55.660  -0.361  33.485  0.00  0.00     0.004 A 
ATOM      4  C   UNL d   1      56.941   0.677  33.693  0.00  0.00     0.024 A 
ATOM      5  C   UNL d   1      55.673   0.166  34.120  0.00  0.00     0.035 A 
ATOM      6  C   UNL d   1      56.310   0.680  34.221  0.00  0.00     0.009 A 
ATOM      7 BR   UNL d   1      55.031   0.177  34.668  0.00  0.00    -0.049 Br
ENDROOT
BRANCH   2   8
ATOM      8  O   UNL d   1      57.570   0.141  32.511  0.00  0.00    -0.320 OA
BRANCH   8   9
ATOM      9  C   UNL d   1      58.212   0.682  32.584  0.00  0.00     0.246 C 
BRANCH   9  10
ATOM     10  C   UNL d   1      58.856   0.640  32.069  0.00  0.00     0.217 C 
ATOM     11  O   UNL d   1      58.719   0.629  31.248  0.00  0.00    -0.645 OA
ATOM     12  O   UNL d   1      59.617   0.610  32.384  0.00  0.00    -0.645 OA
ENDBRANCH   9  10
ENDBRANCH   8   9
ENDBRANCH   2   8
BRANCH   1  13
ATOM     13  C   UNL d   1      56.297  -0.892  32.302  0.00  0.00     0.021 C 
ATOM     14  C   UNL d   1      56.293  -1.416  31.663  0.00  0.00     0.004 C 
ATOM     15  C   UNL d   1      56.332  -1.534  32.828  0.00  0.00     0.004 C 
ATOM     16  C   UNL d   1      56.263  -0.260  31.785  0.00  0.00     0.004 C 
ENDBRANCH   1  13
TORSDOF 4
ENDMDL
MODEL 7
REMARK VINA RESULT:      -0.1      1.304      2.390
REMARK  4 active torsions:
REMARK  status: ('A' for Active; 'I' for Inactive)
REMARK    1  A    between atoms: C_2  and  C_1 
REMARK    2  A    between atoms: O_6  and  C_3 
REMARK    3  A    between atoms: C_4  and  C_9 
REMARK    4  A    between atoms: C_9  and  O_6 
ROOT
ATOM      1  C   UNL d   1      58.263  -0.862  30.077  0.00  0.00     0.000 A 
ATOM      2  C   UNL d   1      58.679  -0.141  30.042  0.00  0.00     0.091 A 
ATOM      3  C   UNL d   1      57.642  -0.946  30.640  0.00  0.00     0.004 A 
ATOM      4  C   UNL d   1      58.487   0.482  30.547  0.00  0.00     0.024 A 
ATOM      5  C   UNL d   1      57.457  -0.318  31.142  0.00  0.00     0.035 A 
ATOM      6  C   UNL d   1      57.878   0.390  31.094  0.00  0.00     0.009 A 
ATOM      7 BR   UNL d   1      56.835  -0.401  31.706  0.00  0.00    -0.049 Br
ENDROOT
BRANCH   2   8
ATOM      8  O   UNL d   1      59.293  -0.062  29.483  0.00  0.00    -0.320 OA
BRANCH   8   9
ATOM      9  C   UNL d   1      59.737   0.652  29.428  0.00  0.00     0.246 C 
BRANCH   9  10
ATOM     10  C   UNL d   1      60.542   0.633  29.250  0.00  0.00     0.217 C 
ATOM     11  O   UNL d   1      61.096   0.667  29.871  0.00  0.00    -0.645 OA
ATOM     12  O   UNL d   1      60.775   0.581  28.461  0.00  0.00    -0.645 OA
ENDBRANCH   9  10
ENDBRANCH   8   9
ENDBRANCH   2   8
BRANCH   1  13
ATOM     13  C   UNL d   1      58.454  -1.483  29.573  0.00  0.00     0.021 C 
ATOM     14  C   UNL d   1      58.647  -2.107  29.066  0.00  0.00     0.004 C 
ATOM     15  C   UNL d   1      57.978  -1.148  28.981  0.00  0.00     0.004 C 
ATOM     16  C   UNL d   1      58.923  -1.812  30.156  0.00  0.00     0.004 C 
ENDBRANCH   1  13
TORSDOF 4
ENDMDL
MODEL 8
REMARK VINA RESULT:       0.4      2.062      3.130
REMARK  4 active torsions:
REMARK  status: ('A' for Active; 'I' for Inactive)
REMARK    1  A    between atoms: C_2  and  C_1 
REMARK    2  A    between atoms: O_6  and  C_3 
REMARK    3  A    between atoms: C_4  and  C_9 
REMARK    4  A    between atoms: C_9  and  O_6 
ROOT
ATOM      1  C   UNL d   1      57.013   0.062  32.909  0.00  0.00     0.000 A 
ATOM      2  C   UNL d   1      56.791  -0.435  32.278  0.00  0.00     0.091 A 
ATOM      3  C   UNL d   1      56.444   0.244  33.503  0.00  0.00     0.004 A 
ATOM      4  C   UNL d   1      56.028  -0.745  32.234  0.00  0.00     0.024 A 
ATOM      5  C   UNL d   1      55.683  -0.070  33.450  0.00  0.00     0.035 A 
ATOM      6  C   UNL d   1      55.479  -0.561  32.820  0.00  0.00     0.009 A 
ATOM      7 BR   UNL d   1      55.112   0.111  34.044  0.00  0.00    -0.049 Br
ENDROOT
BRANCH   2   8
ATOM      8  O   UNL d   1      57.358  -0.612  31.693  0.00  0.00    -0.320 OA
BRANCH   8   9
ATOM      9  C   UNL d   1      57.192  -1.178  31.091  0.00  0.00     0.246 C 
BRANCH   9  10
ATOM     10  C   UNL d   1      57.695  -1.259  30.441  0.00  0.00     0.217 C 
ATOM     11  O   UNL d   1      58.057  -1.994  30.297  0.00  0.00    -0.645 OA
ATOM     12  O   UNL d   1      57.825  -0.607  29.954  0.00  0.00    -0.645 OA
ENDBRANCH   9  10
ENDBRANCH   8   9
ENDBRANCH   2   8
BRANCH   1  13
ATOM     13  C   UNL d   1      57.773   0.371  32.954  0.00  0.00     0.021 C 
ATOM     14  C   UNL d   1      58.538   0.682  32.999  0.00  0.00     0.004 C 
ATOM     15  C   UNL d   1      57.693   0.680  32.187  0.00  0.00     0.004 C 
ATOM     16  C   UNL d   1      57.853   0.067  33.708  0.00  0.00     0.004 C 
ENDBRANCH   1  13
TORSDOF 4
ENDMDL
