MODEL 1
REMARK VINA RESULT:      -2.9      0.000      0.000
REMARK  3 active torsions:
REMARK  status: ('A' for Active; 'I' for Inactive)
REMARK    1  A    between atoms: S_11  and  C_4 
REMARK    2  A    between atoms: C_14  and  S_11 
REMARK    3  A    between atoms: O_15  and  C_12 
ROOT
ATOM      1  N   UNL d   1      32.302  23.597 -17.197  0.00  0.00    -0.195 NA
ATOM      2  C   UNL d   1      32.469  23.530 -18.007  0.00  0.00     0.086 C 
ATOM      3  C   UNL d   1      32.627  23.471 -18.823  0.00  0.00     0.168 C 
ENDROOT
BRANCH   3   4
ATOM      4  S   UNL d   1      33.236  22.957 -19.103  0.00  0.00    -0.078 SA
BRANCH   4   5
ATOM      5  C   UNL d   1      33.172  22.613 -19.880  0.00  0.00     0.108 A 
ATOM      6  N   UNL d   1      33.174  21.792 -19.966  0.00  0.00    -0.239 NA
ATOM      7  C   UNL d   1      33.112  21.481 -20.720  0.00  0.00     0.084 A 
ATOM      8  C   UNL d   1      33.050  21.966 -21.370  0.00  0.00     0.018 A 
ATOM      9  C   UNL d   1      33.114  20.661 -20.805  0.00  0.00     0.043 A 
ATOM     10  C   UNL d   1      33.047  22.785 -21.296  0.00  0.00     0.004 A 
ATOM     11  C   UNL d   1      32.987  21.653 -22.135  0.00  0.00     0.004 A 
ATOM     12  C   UNL d   1      33.110  23.098 -20.530  0.00  0.00     0.025 A 
ATOM     13  C   UNL d   1      32.985  23.270 -21.946  0.00  0.00     0.000 C 
ATOM     14  C   UNL d   1      32.989  20.820 -22.219  0.00  0.00     0.024 A 
ATOM     15  C   UNL d   1      33.051  20.335 -21.570  0.00  0.00     0.096 A 
BRANCH  15  16
ATOM     16  O   UNL d   1      33.053  19.511 -21.658  0.00  0.00    -0.328 OA
ATOM     17  C   UNL d   1      33.220  19.183 -22.406  0.00  0.00     0.181 C 
ENDBRANCH  15  16
ENDBRANCH   4   5
ENDBRANCH   3   4
TORSDOF 3
ENDMDL
MODEL 2
REMARK VINA RESULT:      -2.8      5.069      6.957
REMARK  3 active torsions:
REMARK  status: ('A' for Active; 'I' for Inactive)
REMARK    1  A    between atoms: S_11  and  C_4 
REMARK    2  A    between atoms: C_14  and  S_11 
REMARK    3  A    between atoms: O_15  and  C_12 
ROOT
ATOM      1  N   UNL d   1      27.734  15.751 -23.668  0.00  0.00    -0.195 NA
ATOM      2  C   UNL d   1      28.523  15.989 -23.575  0.00  0.00     0.086 C 
ATOM      3  C   UNL d   1      29.312  16.234 -23.471  0.00  0.00     0.168 C 
ENDROOT
BRANCH   3   4
ATOM      4  S   UNL d   1      29.905  16.012 -24.031  0.00  0.00    -0.078 SA
BRANCH   4   5
ATOM      5  C   UNL d   1      30.709  16.272 -23.919  0.00  0.00     0.108 A 
ATOM      6  N   UNL d   1      30.915  17.053 -24.092  0.00  0.00    -0.239 NA
ATOM      7  C   UNL d   1      31.690  17.284 -23.977  0.00  0.00     0.084 A 
ATOM      8  C   UNL d   1      32.247  16.760 -23.701  0.00  0.00     0.018 A 
ATOM      9  C   UNL d   1      31.895  18.064 -24.150  0.00  0.00     0.043 A 
ATOM     10  C   UNL d   1      32.054  15.980 -23.525  0.00  0.00     0.004 A 
ATOM     11  C   UNL d   1      33.035  16.991 -23.584  0.00  0.00     0.004 A 
ATOM     12  C   UNL d   1      31.265  15.748 -23.642  0.00  0.00     0.025 A 
ATOM     13  C   UNL d   1      32.611  15.456 -23.248  0.00  0.00     0.000 C 
ATOM     14  C   UNL d   1      33.241  17.784 -23.760  0.00  0.00     0.024 A 
ATOM     15  C   UNL d   1      32.684  18.308 -24.037  0.00  0.00     0.096 A 
BRANCH  15  16
ATOM     16  O   UNL d   1      32.892  19.091 -24.210  0.00  0.00    -0.328 OA
ATOM     17  C   UNL d   1      33.163  19.584 -23.595  0.00  0.00     0.181 C 
ENDBRANCH  15  16
ENDBRANCH   4   5
ENDBRANCH   3   4
TORSDOF 3
ENDMDL
MODEL 3
REMARK VINA RESULT:      -2.8      2.394      4.021
REMARK  3 active torsions:
REMARK  status: ('A' for Active; 'I' for Inactive)
REMARK    1  A    between atoms: S_11  and  C_4 
REMARK    2  A    between atoms: C_14  and  S_11 
REMARK    3  A    between atoms: O_15  and  C_12 
ROOT
ATOM      1  N   UNL d   1      32.768  21.833 -20.495  0.00  0.00    -0.195 NA
ATOM      2  C   UNL d   1      32.688  21.284 -21.112  0.00  0.00     0.086 C 
ATOM      3  C   UNL d   1      32.598  20.738 -21.735  0.00  0.00     0.168 C 
ENDROOT
BRANCH   3   4
ATOM      4  S   UNL d   1      33.168  20.126 -21.853  0.00  0.00    -0.078 SA
BRANCH   4   5
ATOM      5  C   UNL d   1      33.096  19.608 -22.525  0.00  0.00     0.108 A 
ATOM      6  N   UNL d   1      32.924  18.809 -22.410  0.00  0.00    -0.239 NA
ATOM      7  C   UNL d   1      32.859  18.327 -23.067  0.00  0.00     0.084 A 
ATOM      8  C   UNL d   1      32.961  18.625 -23.816  0.00  0.00     0.018 A 
ATOM      9  C   UNL d   1      32.687  17.529 -22.951  0.00  0.00     0.043 A 
ATOM     10  C   UNL d   1      33.133  19.419 -23.944  0.00  0.00     0.004 A 
ATOM     11  C   UNL d   1      32.896  18.138 -24.485  0.00  0.00     0.004 A 
ATOM     12  C   UNL d   1      33.199  19.906 -23.275  0.00  0.00     0.025 A 
ATOM     13  C   UNL d   1      33.236  19.717 -24.694  0.00  0.00     0.000 C 
ATOM     14  C   UNL d   1      32.721  17.328 -24.365  0.00  0.00     0.024 A 
ATOM     15  C   UNL d   1      32.619  17.030 -23.615  0.00  0.00     0.096 A 
BRANCH  15  16
ATOM     16  O   UNL d   1      32.446  16.228 -23.501  0.00  0.00    -0.328 OA
ATOM     17  C   UNL d   1      31.827  15.880 -23.938  0.00  0.00     0.181 C 
ENDBRANCH  15  16
ENDBRANCH   4   5
ENDBRANCH   3   4
TORSDOF 3
ENDMDL
MODEL 4
REMARK VINA RESULT:      -2.4      2.816      4.511
REMARK  3 active torsions:
REMARK  status: ('A' for Active; 'I' for Inactive)
REMARK    1  A    between atoms: S_11  and  C_4 
REMARK    2  A    between atoms: C_14  and  S_11 
REMARK    3  A    between atoms: O_15  and  C_12 
ROOT
ATOM      1  N   UNL d   1      32.322  17.336 -24.360  0.00  0.00    -0.195 NA
ATOM      2  C   UNL d   1      32.371  18.034 -23.914  0.00  0.00     0.086 C 
ATOM      3  C   UNL d   1      32.409  18.736 -23.468  0.00  0.00     0.168 C 
ENDROOT
BRANCH   3   4
ATOM      4  S   UNL d   1      33.124  18.954 -23.075  0.00  0.00    -0.078 SA
BRANCH   4   5
ATOM      5  C   UNL d   1      33.154  19.677 -22.624  0.00  0.00     0.108 A 
ATOM      6  N   UNL d   1      33.155  20.404 -23.015  0.00  0.00    -0.239 NA
ATOM      7  C   UNL d   1      33.184  21.086 -22.566  0.00  0.00     0.084 A 
ATOM      8  C   UNL d   1      33.210  21.052 -21.754  0.00  0.00     0.018 A 
ATOM      9  C   UNL d   1      33.185  21.812 -22.957  0.00  0.00     0.043 A 
ATOM     10  C   UNL d   1      33.209  20.334 -21.353  0.00  0.00     0.004 A 
ATOM     11  C   UNL d   1      33.239  21.743 -21.295  0.00  0.00     0.004 A 
ATOM     12  C   UNL d   1      33.180  19.643 -21.812  0.00  0.00     0.025 A 
ATOM     13  C   UNL d   1      33.236  20.300 -20.540  0.00  0.00     0.000 C 
ATOM     14  C   UNL d   1      33.241  22.479 -21.695  0.00  0.00     0.024 A 
ATOM     15  C   UNL d   1      33.214  22.513 -22.507  0.00  0.00     0.096 A 
BRANCH  15  16
ATOM     16  O   UNL d   1      33.216  23.243 -22.898  0.00  0.00    -0.328 OA
ATOM     17  C   UNL d   1      32.507  23.678 -22.948  0.00  0.00     0.181 C 
ENDBRANCH  15  16
ENDBRANCH   4   5
ENDBRANCH   3   4
TORSDOF 3
ENDMDL
MODEL 5
REMARK VINA RESULT:      -1.5      2.056      2.855
REMARK  3 active torsions:
REMARK  status: ('A' for Active; 'I' for Inactive)
REMARK    1  A    between atoms: S_11  and  C_4 
REMARK    2  A    between atoms: C_14  and  S_11 
REMARK    3  A    between atoms: O_15  and  C_12 
ROOT
ATOM      1  N   UNL d   1      31.852  23.580 -20.845  0.00  0.00    -0.195 NA
ATOM      2  C   UNL d   1      32.137  23.195 -21.522  0.00  0.00     0.086 C 
ATOM      3  C   UNL d   1      32.414  22.813 -22.208  0.00  0.00     0.168 C 
ENDROOT
BRANCH   3   4
ATOM      4  S   UNL d   1      33.101  22.321 -22.175  0.00  0.00    -0.078 SA
BRANCH   4   5
ATOM      5  C   UNL d   1      33.137  21.616 -22.652  0.00  0.00     0.108 A 
ATOM      6  N   UNL d   1      33.137  20.875 -22.288  0.00  0.00    -0.239 NA
ATOM      7  C   UNL d   1      33.172  20.209 -22.762  0.00  0.00     0.084 A 
ATOM      8  C   UNL d   1      33.205  20.273 -23.572  0.00  0.00     0.018 A 
ATOM      9  C   UNL d   1      33.172  19.469 -22.398  0.00  0.00     0.043 A 
ATOM     10  C   UNL d   1      33.206  21.006 -23.945  0.00  0.00     0.004 A 
ATOM     11  C   UNL d   1      33.241  19.601 -24.055  0.00  0.00     0.004 A 
ATOM     12  C   UNL d   1      33.171  21.680 -23.462  0.00  0.00     0.025 A 
ATOM     13  C   UNL d   1      33.240  21.070 -24.756  0.00  0.00     0.000 C 
ATOM     14  C   UNL d   1      33.241  18.850 -23.683  0.00  0.00     0.024 A 
ATOM     15  C   UNL d   1      33.207  18.786 -22.873  0.00  0.00     0.096 A 
BRANCH  15  16
ATOM     16  O   UNL d   1      33.207  18.041 -22.509  0.00  0.00    -0.328 OA
ATOM     17  C   UNL d   1      32.933  17.381 -22.937  0.00  0.00     0.181 C 
ENDBRANCH  15  16
ENDBRANCH   4   5
ENDBRANCH   3   4
TORSDOF 3
ENDMDL
MODEL 6
REMARK VINA RESULT:      -0.7      1.483      2.048
REMARK  3 active torsions:
REMARK  status: ('A' for Active; 'I' for Inactive)
REMARK    1  A    between atoms: S_11  and  C_4 
REMARK    2  A    between atoms: C_14  and  S_11 
REMARK    3  A    between atoms: O_15  and  C_12 
ROOT
ATOM      1  N   UNL d   1      32.924  22.206 -18.925  0.00  0.00    -0.195 NA
ATOM      2  C   UNL d   1      32.774  22.293 -19.736  0.00  0.00     0.086 C 
ATOM      3  C   UNL d   1      32.611  22.378 -20.549  0.00  0.00     0.168 C 
ENDROOT
BRANCH   3   4
ATOM      4  S   UNL d   1      33.237  22.530 -21.096  0.00  0.00    -0.078 SA
BRANCH   4   5
ATOM      5  C   UNL d   1      33.223  22.163 -21.864  0.00  0.00     0.108 A 
ATOM      6  N   UNL d   1      33.238  21.340 -21.925  0.00  0.00    -0.239 NA
ATOM      7  C   UNL d   1      33.224  21.005 -22.670  0.00  0.00     0.084 A 
ATOM      8  C   UNL d   1      33.196  21.469 -23.337  0.00  0.00     0.018 A 
ATOM      9  C   UNL d   1      33.239  20.182 -22.730  0.00  0.00     0.043 A 
ATOM     10  C   UNL d   1      33.181  22.290 -23.290  0.00  0.00     0.004 A 
ATOM     11  C   UNL d   1      33.182  21.132 -24.095  0.00  0.00     0.004 A 
ATOM     12  C   UNL d   1      33.196  22.627 -22.531  0.00  0.00     0.025 A 
ATOM     13  C   UNL d   1      33.154  22.754 -23.957  0.00  0.00     0.000 C 
ATOM     14  C   UNL d   1      33.197  20.297 -24.153  0.00  0.00     0.024 A 
ATOM     15  C   UNL d   1      33.225  19.833 -23.486  0.00  0.00     0.096 A 
BRANCH  15  16
ATOM     16  O   UNL d   1      33.240  19.006 -23.549  0.00  0.00    -0.328 OA
ATOM     17  C   UNL d   1      33.151  18.655 -24.299  0.00  0.00     0.181 C 
ENDBRANCH  15  16
ENDBRANCH   4   5
ENDBRANCH   3   4
TORSDOF 3
ENDMDL
MODEL 7
REMARK VINA RESULT:      -0.6      4.903      6.312
REMARK  3 active torsions:
REMARK  status: ('A' for Active; 'I' for Inactive)
REMARK    1  A    between atoms: S_11  and  C_4 
REMARK    2  A    between atoms: C_14  and  S_11 
REMARK    3  A    between atoms: O_15  and  C_12 
ROOT
ATOM      1  N   UNL d   1      29.731  15.713 -24.637  0.00  0.00    -0.195 NA
ATOM      2  C   UNL d   1      30.369  16.200 -24.845  0.00  0.00     0.086 C 
ATOM      3  C   UNL d   1      31.004  16.695 -25.062  0.00  0.00     0.168 C 
ENDROOT
BRANCH   3   4
ATOM      4  S   UNL d   1      31.751  16.626 -24.674  0.00  0.00    -0.078 SA
BRANCH   4   5
ATOM      5  C   UNL d   1      32.118  17.320 -24.342  0.00  0.00     0.108 A 
ATOM      6  N   UNL d   1      32.176  18.009 -24.794  0.00  0.00    -0.239 NA
ATOM      7  C   UNL d   1      32.531  18.664 -24.459  0.00  0.00     0.084 A 
ATOM      8  C   UNL d   1      32.821  18.642 -23.700  0.00  0.00     0.018 A 
ATOM      9  C   UNL d   1      32.589  19.352 -24.911  0.00  0.00     0.043 A 
ATOM     10  C   UNL d   1      32.769  17.962 -23.240  0.00  0.00     0.004 A 
ATOM     11  C   UNL d   1      33.182  19.305 -23.357  0.00  0.00     0.004 A 
ATOM     12  C   UNL d   1      32.408  17.297 -23.583  0.00  0.00     0.025 A 
ATOM     13  C   UNL d   1      33.059  17.939 -22.480  0.00  0.00     0.000 C 
ATOM     14  C   UNL d   1      33.239  20.002 -23.818  0.00  0.00     0.024 A 
ATOM     15  C   UNL d   1      32.949  20.025 -24.578  0.00  0.00     0.096 A 
BRANCH  15  16
ATOM     16  O   UNL d   1      33.008  20.717 -25.030  0.00  0.00    -0.328 OA
ATOM     17  C   UNL d   1      32.787  21.444 -24.689  0.00  0.00     0.181 C 
ENDBRANCH  15  16
ENDBRANCH   4   5
ENDBRANCH   3   4
TORSDOF 3
ENDMDL
MODEL 8
REMARK VINA RESULT:      -0.5      2.128      3.751
REMARK  3 active torsions:
REMARK  status: ('A' for Active; 'I' for Inactive)
REMARK    1  A    between atoms: S_11  and  C_4 
REMARK    2  A    between atoms: C_14  and  S_11 
REMARK    3  A    between atoms: O_15  and  C_12 
ROOT
ATOM      1  N   UNL d   1      31.239  23.695 -24.011  0.00  0.00    -0.195 NA
ATOM      2  C   UNL d   1      31.770  23.691 -23.374  0.00  0.00     0.086 C 
ATOM      3  C   UNL d   1      32.300  23.697 -22.730  0.00  0.00     0.168 C 
ENDROOT
BRANCH   3   4
ATOM      4  S   UNL d   1      32.819  23.043 -22.598  0.00  0.00    -0.078 SA
BRANCH   4   5
ATOM      5  C   UNL d   1      32.910  22.732 -21.810  0.00  0.00     0.108 A 
ATOM      6  N   UNL d   1      32.956  23.249 -21.168  0.00  0.00    -0.239 NA
ATOM      7  C   UNL d   1      33.044  22.931 -20.420  0.00  0.00     0.084 A 
ATOM      8  C   UNL d   1      33.086  22.127 -20.309  0.00  0.00     0.018 A 
ATOM      9  C   UNL d   1      33.090  23.448 -19.779  0.00  0.00     0.043 A 
ATOM     10  C   UNL d   1      33.042  21.602 -20.940  0.00  0.00     0.004 A 
ATOM     11  C   UNL d   1      33.175  21.802 -19.551  0.00  0.00     0.004 A 
ATOM     12  C   UNL d   1      32.952  21.927 -21.699  0.00  0.00     0.025 A 
ATOM     13  C   UNL d   1      33.083  20.797 -20.829  0.00  0.00     0.000 C 
ATOM     14  C   UNL d   1      33.222  22.329 -18.901  0.00  0.00     0.024 A 
ATOM     15  C   UNL d   1      33.180  23.133 -19.013  0.00  0.00     0.096 A 
BRANCH  15  16
ATOM     16  O   UNL d   1      33.226  23.650 -18.367  0.00  0.00    -0.328 OA
ATOM     17  C   UNL d   1      32.915  23.411 -17.632  0.00  0.00     0.181 C 
ENDBRANCH  15  16
ENDBRANCH   4   5
ENDBRANCH   3   4
TORSDOF 3
ENDMDL
MODEL 9
REMARK VINA RESULT:       0.0      1.744      2.893
REMARK  3 active torsions:
REMARK  status: ('A' for Active; 'I' for Inactive)
REMARK    1  A    between atoms: S_11  and  C_4 
REMARK    2  A    between atoms: C_14  and  S_11 
REMARK    3  A    between atoms: O_15  and  C_12 
ROOT
ATOM      1  N   UNL d   1      31.418  23.702 -24.335  0.00  0.00    -0.195 NA
ATOM      2  C   UNL d   1      31.999  23.627 -23.747  0.00  0.00     0.086 C 
ATOM      3  C   UNL d   1      32.589  23.547 -23.165  0.00  0.00     0.168 C 
ENDROOT
BRANCH   3   4
ATOM      4  S   UNL d   1      32.412  23.702 -22.353  0.00  0.00    -0.078 SA
BRANCH   4   5
ATOM      5  C   UNL d   1      32.560  23.101 -21.768  0.00  0.00     0.108 A 
ATOM      6  N   UNL d   1      32.676  22.319 -22.004  0.00  0.00    -0.239 NA
ATOM      7  C   UNL d   1      32.817  21.756 -21.428  0.00  0.00     0.084 A 
ATOM      8  C   UNL d   1      32.842  21.959 -20.642  0.00  0.00     0.018 A 
ATOM      9  C   UNL d   1      32.932  20.974 -21.665  0.00  0.00     0.043 A 
ATOM     10  C   UNL d   1      32.728  22.735 -20.394  0.00  0.00     0.004 A 
ATOM     11  C   UNL d   1      32.984  21.390 -20.055  0.00  0.00     0.004 A 
ATOM     12  C   UNL d   1      32.586  23.304 -20.981  0.00  0.00     0.025 A 
ATOM     13  C   UNL d   1      32.754  22.938 -19.606  0.00  0.00     0.000 C 
ATOM     14  C   UNL d   1      33.101  20.597 -20.298  0.00  0.00     0.024 A 
ATOM     15  C   UNL d   1      33.076  20.394 -21.085  0.00  0.00     0.096 A 
BRANCH  15  16
ATOM     16  O   UNL d   1      33.192  19.608 -21.321  0.00  0.00    -0.328 OA
ATOM     17  C   UNL d   1      33.057  19.399 -22.116  0.00  0.00     0.181 C 
ENDBRANCH  15  16
ENDBRANCH   4   5
ENDBRANCH   3   4
TORSDOF 3
ENDMDL
