MODEL 1
REMARK VINA RESULT:      12.9      0.000      0.000
REMARK  6 active torsions:
REMARK  status: ('A' for Active; 'I' for Inactive)
REMARK    1  A    between atoms: N_3  and  C_1 
REMARK    2  A    between atoms: C_4  and  C_2 
REMARK       I    between atoms: C_6  and  N_3 
REMARK    3  A    between atoms: C_11  and  C_6 
REMARK    4  A    between atoms: C_13  and  C_11 
REMARK    5  A    between atoms: O_19  and  C_14 
REMARK    6  A    between atoms: C_20  and  O_19 
ROOT
ATOM      1  N   UNL d   1      45.180 -14.321  43.966  0.00  0.00    -0.201 NA
ATOM      2  C   UNL d   1      45.368 -15.040  44.322  0.00  0.00     0.280 C 
ATOM      3  O   UNL d   1      45.916 -15.063  44.952  0.00  0.00    -0.265 OA
ENDROOT
BRANCH   2   4
ATOM      4  C   UNL d   1      45.016 -15.741  44.058  0.00  0.00     0.062 C 
BRANCH   4   5
ATOM      5  C   UNL d   1      45.424 -16.463  44.131  0.00  0.00     0.005 A 
ATOM      6  C   UNL d   1      45.559 -16.788  44.878  0.00  0.00     0.002 A 
ATOM      7  C   UNL d   1      45.964 -17.503  44.946  0.00  0.00     0.025 A 
ATOM      8  C   UNL d   1      46.238 -17.899  44.259  0.00  0.00     0.100 A 
ATOM      9  C   UNL d   1      46.100 -17.570  43.520  0.00  0.00     0.025 A 
ATOM     10  C   UNL d   1      45.698 -16.859  43.444  0.00  0.00     0.002 A 
BRANCH   8  11
ATOM     11  O   UNL d   1      46.645 -18.620  44.342  0.00  0.00    -0.305 OA
BRANCH  11  12
ATOM     12  C   UNL d   1      46.421 -19.288  43.921  0.00  0.00     0.123 C 
ATOM     13  C   UNL d   1      46.636 -20.039  44.175  0.00  0.00     0.029 C 
ENDBRANCH  11  12
ENDBRANCH   8  11
ENDBRANCH   4   5
ENDBRANCH   2   4
BRANCH   1  14
ATOM     14  C   UNL d   1      45.538 -13.621  44.236  0.00  0.00     0.119 A 
ATOM     15  C   UNL d   1      45.415 -12.873  43.912  0.00  0.00     0.084 A 
ATOM     16  C   UNL d   1      45.871 -12.336  44.340  0.00  0.00     0.014 A 
ATOM     17  C   UNL d   1      46.283 -12.755  44.936  0.00  0.00     0.037 A 
ATOM     18  S   UNL d   1      46.065 -13.549  44.857  0.00  0.00    -0.067 SA
BRANCH  15  19
ATOM     19  C   UNL d   1      44.922 -12.677  43.271  0.00  0.00     0.299 C 
ATOM     20  O   UNL d   1      45.192 -12.725  42.501  0.00  0.00    -0.264 OA
ATOM     21  N   UNL d   1      44.144 -12.428  43.422  0.00  0.00    -0.102 N 
ENDBRANCH  15  19
ENDBRANCH   1  14
TORSDOF 6
ENDMDL
MODEL 2
REMARK VINA RESULT:      15.7      2.147      4.938
REMARK  6 active torsions:
REMARK  status: ('A' for Active; 'I' for Inactive)
REMARK    1  A    between atoms: N_3  and  C_1 
REMARK    2  A    between atoms: C_4  and  C_2 
REMARK       I    between atoms: C_6  and  N_3 
REMARK    3  A    between atoms: C_11  and  C_6 
REMARK    4  A    between atoms: C_13  and  C_11 
REMARK    5  A    between atoms: O_19  and  C_14 
REMARK    6  A    between atoms: C_20  and  O_19 
ROOT
ATOM      1  N   UNL d   1      45.510 -17.868  43.365  0.00  0.00    -0.201 NA
ATOM      2  C   UNL d   1      45.474 -17.302  43.963  0.00  0.00     0.280 C 
ATOM      3  O   UNL d   1      45.886 -17.424  44.679  0.00  0.00    -0.265 OA
ENDROOT
BRANCH   2   4
ATOM      4  C   UNL d   1      45.029 -16.612  43.856  0.00  0.00     0.062 C 
BRANCH   4   5
ATOM      5  C   UNL d   1      45.323 -15.884  44.131  0.00  0.00     0.005 A 
ATOM      6  C   UNL d   1      44.813 -15.339  44.483  0.00  0.00     0.002 A 
ATOM      7  C   UNL d   1      45.109 -14.617  44.755  0.00  0.00     0.025 A 
ATOM      8  C   UNL d   1      45.924 -14.439  44.673  0.00  0.00     0.100 A 
ATOM      9  C   UNL d   1      46.426 -14.986  44.322  0.00  0.00     0.025 A 
ATOM     10  C   UNL d   1      46.139 -15.706  44.050  0.00  0.00     0.002 A 
BRANCH   8  11
ATOM     11  O   UNL d   1      46.209 -13.708  44.952  0.00  0.00    -0.305 OA
BRANCH  11  12
ATOM     12  C   UNL d   1      45.770 -13.020  44.868  0.00  0.00     0.123 C 
ATOM     13  C   UNL d   1      46.139 -12.295  44.755  0.00  0.00     0.029 C 
ENDBRANCH  11  12
ENDBRANCH   8  11
ENDBRANCH   4   5
ENDBRANCH   2   4
BRANCH   1  14
ATOM     14  C   UNL d   1      45.959 -18.559  43.478  0.00  0.00     0.119 A 
ATOM     15  C   UNL d   1      46.226 -19.054  42.875  0.00  0.00     0.084 A 
ATOM     16  C   UNL d   1      46.646 -19.671  43.223  0.00  0.00     0.014 A 
ATOM     17  C   UNL d   1      46.641 -19.559  44.052  0.00  0.00     0.037 A 
ATOM     18  S   UNL d   1      46.211 -18.867  44.193  0.00  0.00    -0.067 SA
BRANCH  15  19
ATOM     19  C   UNL d   1      46.102 -18.961  42.057  0.00  0.00     0.299 C 
ATOM     20  O   UNL d   1      46.601 -18.499  41.604  0.00  0.00    -0.264 OA
ATOM     21  N   UNL d   1      45.458 -19.348  41.701  0.00  0.00    -0.102 N 
ENDBRANCH  15  19
ENDBRANCH   1  14
TORSDOF 6
ENDMDL
