MODEL 1
REMARK VINA RESULT:      -5.5      0.000      0.000
REMARK  4 active torsions:
REMARK  status: ('A' for Active; 'I' for Inactive)
REMARK    1  A    between atoms: N_2  and  C_1 
REMARK       I    between atoms: C_3  and  N_2 
REMARK    2  A    between atoms: C_6  and  C_3 
REMARK    3  A    between atoms: C_11  and  C_7 
REMARK    4  A    between atoms: C_8  and  C_11 
ROOT
ATOM      1  C   UNL d   1     -41.202-122.161 -52.346  0.00  0.00     0.197 A 
ATOM      2  N   UNL d   1     -41.174-121.454 -51.959  0.00  0.00    -0.219 NA
ATOM      3  S   UNL d   1     -41.188-122.768 -51.776  0.00  0.00    -0.047 SA
ATOM      4  C   UNL d   1     -41.151-122.415 -51.042  0.00  0.00     0.051 A 
ATOM      5  C   UNL d   1     -41.141-121.594 -51.141  0.00  0.00     0.108 A 
ENDROOT
BRANCH   4   6
ATOM      6  C   UNL d   1     -41.123-122.699 -50.278  0.00  0.00     0.009 C 
BRANCH   6   7
ATOM      7  C   UNL d   1     -41.846-122.901 -49.894  0.00  0.00     0.012 A 
ATOM      8  C   UNL d   1     -41.843-123.426 -49.264  0.00  0.00     0.058 A 
ATOM      9  C   UNL d   1     -42.567-123.629 -48.877  0.00  0.00     0.012 A 
ATOM     10 CL   UNL d   1     -41.132-123.764 -48.998  0.00  0.00    -0.082 Cl
ATOM     11  C   UNL d   1     -43.266-123.309 -49.124  0.00  0.00     0.012 A 
ATOM     12  C   UNL d   1     -43.285-122.774 -49.763  0.00  0.00     0.058 A 
ATOM     13  C   UNL d   1     -42.562-122.576 -50.143  0.00  0.00     0.012 A 
ATOM     14 CL   UNL d   1     -44.032-122.456 -49.997  0.00  0.00    -0.082 Cl
ENDBRANCH   6   7
ENDBRANCH   4   6
BRANCH   1  15
ATOM     15  N   UNL d   1     -41.240-122.261 -53.179  0.00  0.00    -0.182 NA
ATOM     16  C   UNL d   1     -41.892-122.018 -53.608  0.00  0.00     0.287 C 
ATOM     17  O   UNL d   1     -42.513-121.674 -53.212  0.00  0.00    -0.265 OA
BRANCH  16  18
ATOM     18  C   UNL d   1     -41.919-122.118 -54.406  0.00  0.00     0.087 A 
ATOM     19  S   UNL d   1     -41.462-122.573 -54.921  0.00  0.00    -0.082 SA
ATOM     20  C   UNL d   1     -41.759-122.445 -55.684  0.00  0.00     0.036 A 
ATOM     21  C   UNL d   1     -42.354-121.948 -55.638  0.00  0.00     0.008 A 
ATOM     22  C   UNL d   1     -42.471-121.730 -54.839  0.00  0.00     0.012 A 
ENDBRANCH  16  18
ENDBRANCH   1  15
TORSDOF 4
ENDMDL
MODEL 2
REMARK VINA RESULT:      -3.5      2.042      4.736
REMARK  4 active torsions:
REMARK  status: ('A' for Active; 'I' for Inactive)
REMARK    1  A    between atoms: N_2  and  C_1 
REMARK       I    between atoms: C_3  and  N_2 
REMARK    2  A    between atoms: C_6  and  C_3 
REMARK    3  A    between atoms: C_11  and  C_7 
REMARK    4  A    between atoms: C_8  and  C_11 
ROOT
ATOM      1  C   UNL d   1     -41.555-123.077 -51.435  0.00  0.00     0.197 A 
ATOM      2  N   UNL d   1     -41.331-122.326 -51.625  0.00  0.00    -0.219 NA
ATOM      3  S   UNL d   1     -41.518-123.541 -52.126  0.00  0.00    -0.047 SA
ATOM      4  C   UNL d   1     -41.268-123.057 -52.733  0.00  0.00     0.051 A 
ATOM      5  C   UNL d   1     -41.147-122.295 -52.435  0.00  0.00     0.108 A 
ENDROOT
BRANCH   4   6
ATOM      6  C   UNL d   1     -41.123-123.175 -53.527  0.00  0.00     0.009 C 
BRANCH   6   7
ATOM      7  C   UNL d   1     -41.590-122.756 -54.090  0.00  0.00     0.012 A 
ATOM      8  C   UNL d   1     -41.725-123.078 -54.832  0.00  0.00     0.058 A 
ATOM      9  C   UNL d   1     -42.193-122.660 -55.398  0.00  0.00     0.012 A 
ATOM     10 CL   UNL d   1     -41.405-123.817 -55.036  0.00  0.00    -0.082 Cl
ATOM     11  C   UNL d   1     -42.510-121.939 -55.214  0.00  0.00     0.012 A 
ATOM     12  C   UNL d   1     -42.382-121.600 -54.464  0.00  0.00     0.058 A 
ATOM     13  C   UNL d   1     -41.916-122.021 -53.906  0.00  0.00     0.012 A 
ATOM     14 CL   UNL d   1     -42.728-120.845 -54.302  0.00  0.00    -0.082 Cl
ENDBRANCH   6   7
ENDBRANCH   4   6
BRANCH   1  15
ATOM     15  N   UNL d   1     -41.786-123.339 -50.671  0.00  0.00    -0.182 NA
ATOM     16  C   UNL d   1     -42.227-122.863 -50.173  0.00  0.00     0.287 C 
ATOM     17  O   UNL d   1     -42.442-122.123 -50.430  0.00  0.00    -0.265 OA
BRANCH  16  18
ATOM     18  C   UNL d   1     -42.444-123.124 -49.443  0.00  0.00     0.087 A 
ATOM     19  S   UNL d   1     -43.032-123.646 -49.195  0.00  0.00    -0.082 SA
ATOM     20  C   UNL d   1     -42.981-123.692 -48.368  0.00  0.00     0.036 A 
ATOM     21  C   UNL d   1     -42.404-123.231 -48.130  0.00  0.00     0.008 A 
ATOM     22  C   UNL d   1     -42.052-122.864 -48.793  0.00  0.00     0.012 A 
ENDBRANCH  16  18
ENDBRANCH   1  15
TORSDOF 4
ENDMDL
