MODEL 1
REMARK VINA RESULT:      45.7      0.000      0.000
REMARK  6 active torsions:
REMARK  status: ('A' for Active; 'I' for Inactive)
REMARK    1  A    between atoms: C_7  and  S_1 
REMARK    2  A    between atoms: N_11  and  S_1 
REMARK    3  A    between atoms: C_5  and  C_2 
REMARK    4  A    between atoms: C_6  and  C_15 
REMARK    5  A    between atoms: C_18  and  N_11 
REMARK    6  A    between atoms: C_15  and  C_18 
ROOT
ATOM      1  C   UNL d   1     -50.174  27.040  33.391  0.00  0.00     0.041 C 
ENDROOT
BRANCH   1   2
ATOM      2  C   UNL d   1     -50.860  26.574  33.377  0.00  0.00     0.090 A 
ATOM      3  N   UNL d   1     -50.876  25.744  33.366  0.00  0.00    -0.238 NA
ATOM      4  C   UNL d   1     -51.673  25.512  33.353  0.00  0.00     0.112 A 
ATOM      5  S   UNL d   1     -52.146  26.192  33.357  0.00  0.00    -0.066 SA
ATOM      6  C   UNL d   1     -51.638  26.852  33.372  0.00  0.00     0.056 A 
BRANCH   4   7
ATOM      7  C   UNL d   1     -51.959  24.726  33.339  0.00  0.00     0.043 A 
ATOM      8  C   UNL d   1     -51.429  24.095  33.346  0.00  0.00     0.101 A 
ATOM      9  N   UNL d   1     -51.708  23.329  33.333  0.00  0.00    -0.242 NA
ATOM     10  C   UNL d   1     -52.517  23.189  33.312  0.00  0.00     0.099 A 
ATOM     11  C   UNL d   1     -53.055  23.836  33.306  0.00  0.00     0.021 A 
ATOM     12  C   UNL d   1     -52.774  24.603  33.319  0.00  0.00     0.005 A 
ENDBRANCH   4   7
ENDBRANCH   1   2
BRANCH   1  13
ATOM     13  C   UNL d   1     -50.004  27.517  34.040  0.00  0.00     0.114 C 
BRANCH  13  14
ATOM     14  N   UNL d   1     -49.289  27.400  34.469  0.00  0.00    -0.157 NA
BRANCH  14  15
ATOM     15  S   UNL d   1     -48.853  28.059  34.716  0.00  0.00     0.285 S 
ATOM     16  O   UNL d   1     -48.345  27.960  34.061  0.00  0.00    -0.198 OA
ATOM     17  O   UNL d   1     -49.357  28.160  35.370  0.00  0.00    -0.198 OA
BRANCH  15  18
ATOM     18  C   UNL d   1     -48.412  28.716  34.955  0.00  0.00     0.105 A 
ATOM     19  C   UNL d   1     -47.774  28.606  35.463  0.00  0.00     0.015 A 
ATOM     20  C   UNL d   1     -47.327  29.267  35.706  0.00  0.00     0.030 A 
ATOM     21  C   UNL d   1     -47.523  30.016  35.440  0.00  0.00     0.140 A 
ATOM     22  C   UNL d   1     -48.160  30.116  34.933  0.00  0.00     0.030 A 
ATOM     23  F   UNL d   1     -47.082  30.672  35.678  0.00  0.00    -0.204 F 
ATOM     24  C   UNL d   1     -48.612  29.477  34.684  0.00  0.00     0.015 A 
ENDBRANCH  15  18
ENDBRANCH  14  15
ENDBRANCH  13  14
ENDBRANCH   1  13
TORSDOF 6
ENDMDL
