MODEL 1
REMARK VINA RESULT:      -8.7      0.000      0.000
REMARK  2 active torsions:
REMARK  status: ('A' for Active; 'I' for Inactive)
REMARK    1  A    between atoms: N_4  and  C_1 
REMARK    2  A    between atoms: C_6  and  C_2 
ROOT
ATOM      1  C   UNL d   1      52.514  32.853  53.321  0.00  0.00     0.149 A 
ATOM      2  C   UNL d   1      53.062  33.127  53.884  0.00  0.00     0.056 A 
ATOM      3  N   UNL d   1      52.560  32.094  53.020  0.00  0.00    -0.228 NA
ATOM      4  C   UNL d   1      53.656  32.625  54.139  0.00  0.00     0.006 A 
ATOM      5  C   UNL d   1      53.153  31.590  53.273  0.00  0.00     0.083 A 
ATOM      6  C   UNL d   1      53.704  31.852  53.833  0.00  0.00     0.019 A 
ATOM      7  C   UNL d   1      54.211  32.880  54.700  0.00  0.00     0.000 C 
ATOM      8  C   UNL d   1      53.204  30.823  52.972  0.00  0.00     0.021 C 
ENDROOT
BRANCH   1   9
ATOM      9  N   UNL d   1      51.914  33.360  53.063  0.00  0.00    -0.289 N 
ATOM     10  C   UNL d   1      51.269  33.349  53.390  0.00  0.00     0.082 A 
ATOM     11  C   UNL d   1      50.754  33.792  53.160  0.00  0.00     0.021 A 
ATOM     12  C   UNL d   1      51.522  34.242  52.297  0.00  0.00     0.021 A 
ATOM     13  C   UNL d   1      52.036  33.801  52.525  0.00  0.00     0.082 A 
ENDBRANCH   1   9
BRANCH   2  14
ATOM     14  C   UNL d   1      53.008  33.887  54.180  0.00  0.00     0.125 C 
ATOM     15  N   UNL d   1      53.500  34.126  54.792  0.00  0.00    -0.146 N 
ENDBRANCH   2  14
TORSDOF 2
ENDMDL
MODEL 2
REMARK VINA RESULT:      -8.7      0.606      1.796
REMARK  2 active torsions:
REMARK  status: ('A' for Active; 'I' for Inactive)
REMARK    1  A    between atoms: N_4  and  C_1 
REMARK    2  A    between atoms: C_6  and  C_2 
ROOT
ATOM      1  C   UNL d   1      52.793  33.186  53.639  0.00  0.00     0.149 A 
ATOM      2  C   UNL d   1      53.008  32.405  53.446  0.00  0.00     0.056 A 
ATOM      3  N   UNL d   1      53.224  33.622  54.179  0.00  0.00    -0.228 NA
ATOM      4  C   UNL d   1      53.662  32.072  53.806  0.00  0.00     0.006 A 
ATOM      5  C   UNL d   1      53.879  33.293  54.541  0.00  0.00     0.083 A 
ATOM      6  C   UNL d   1      54.103  32.516  54.357  0.00  0.00     0.019 A 
ATOM      7  C   UNL d   1      53.893  31.296  53.627  0.00  0.00     0.000 C 
ATOM      8  C   UNL d   1      54.318  33.729  55.087  0.00  0.00     0.021 C 
ENDROOT
BRANCH   1   9
ATOM      9  N   UNL d   1      52.131  33.523  53.275  0.00  0.00    -0.289 N 
ATOM     10  C   UNL d   1      51.473  33.409  53.552  0.00  0.00     0.082 A 
ATOM     11  C   UNL d   1      50.903  33.705  53.230  0.00  0.00     0.021 A 
ATOM     12  C   UNL d   1      51.646  34.213  52.377  0.00  0.00     0.021 A 
ATOM     13  C   UNL d   1      52.213  33.919  52.696  0.00  0.00     0.082 A 
ENDBRANCH   1   9
BRANCH   2  14
ATOM     14  C   UNL d   1      52.571  31.977  52.905  0.00  0.00     0.125 C 
ATOM     15  N   UNL d   1      52.672  31.164  52.846  0.00  0.00    -0.146 N 
ENDBRANCH   2  14
TORSDOF 2
ENDMDL
MODEL 3
REMARK VINA RESULT:      -8.6      0.881      2.523
REMARK  2 active torsions:
REMARK  status: ('A' for Active; 'I' for Inactive)
REMARK    1  A    between atoms: N_4  and  C_1 
REMARK    2  A    between atoms: C_6  and  C_2 
ROOT
ATOM      1  C   UNL d   1      53.606  32.515  53.917  0.00  0.00     0.149 A 
ATOM      2  C   UNL d   1      53.002  32.971  53.570  0.00  0.00     0.056 A 
ATOM      3  N   UNL d   1      53.668  31.713  53.771  0.00  0.00    -0.228 NA
ATOM      4  C   UNL d   1      52.462  32.606  53.076  0.00  0.00     0.006 A 
ATOM      5  C   UNL d   1      53.130  31.345  53.277  0.00  0.00     0.083 A 
ATOM      6  C   UNL d   1      52.524  31.789  52.927  0.00  0.00     0.019 A 
ATOM      7  C   UNL d   1      51.853  33.043  52.721  0.00  0.00     0.000 C 
ATOM      8  C   UNL d   1      53.187  30.536  53.127  0.00  0.00     0.021 C 
ENDROOT
BRANCH   1   9
ATOM      9  N   UNL d   1      54.152  32.884  54.417  0.00  0.00    -0.289 N 
ATOM     10  C   UNL d   1      54.744  33.190  54.138  0.00  0.00     0.082 A 
ATOM     11  C   UNL d   1      55.213  33.508  54.579  0.00  0.00     0.021 A 
ATOM     12  C   UNL d   1      54.502  33.213  55.552  0.00  0.00     0.021 A 
ATOM     13  C   UNL d   1      54.035  32.897  55.114  0.00  0.00     0.082 A 
ENDBRANCH   1   9
BRANCH   2  14
ATOM     14  C   UNL d   1      52.948  33.772  53.722  0.00  0.00     0.125 C 
ATOM     15  N   UNL d   1      52.353  34.217  53.373  0.00  0.00    -0.146 N 
ENDBRANCH   2  14
TORSDOF 2
ENDMDL
MODEL 4
REMARK VINA RESULT:      -8.4      0.892      2.824
REMARK  2 active torsions:
REMARK  status: ('A' for Active; 'I' for Inactive)
REMARK    1  A    between atoms: N_4  and  C_1 
REMARK    2  A    between atoms: C_6  and  C_2 
ROOT
ATOM      1  C   UNL d   1      53.415  32.962  53.837  0.00  0.00     0.149 A 
ATOM      2  C   UNL d   1      53.303  32.179  53.579  0.00  0.00     0.056 A 
ATOM      3  N   UNL d   1      52.918  33.563  53.593  0.00  0.00    -0.228 NA
ATOM      4  C   UNL d   1      52.684  32.012  53.071  0.00  0.00     0.006 A 
ATOM      5  C   UNL d   1      52.297  33.400  53.086  0.00  0.00     0.083 A 
ATOM      6  C   UNL d   1      52.176  32.624  52.822  0.00  0.00     0.019 A 
ATOM      7  C   UNL d   1      52.556  31.238  52.802  0.00  0.00     0.000 C 
ATOM      8  C   UNL d   1      51.792  34.003  52.836  0.00  0.00     0.021 C 
ENDROOT
BRANCH   1   9
ATOM      9  N   UNL d   1      54.041  33.132  54.350  0.00  0.00    -0.289 N 
ATOM     10  C   UNL d   1      53.943  33.086  55.064  0.00  0.00     0.082 A 
ATOM     11  C   UNL d   1      54.492  33.234  55.503  0.00  0.00     0.021 A 
ATOM     12  C   UNL d   1      55.215  33.467  54.522  0.00  0.00     0.021 A 
ATOM     13  C   UNL d   1      54.669  33.320  54.086  0.00  0.00     0.082 A 
ENDBRANCH   1   9
BRANCH   2  14
ATOM     14  C   UNL d   1      53.805  31.585  53.828  0.00  0.00     0.125 C 
ATOM     15  N   UNL d   1      53.648  30.804  53.629  0.00  0.00    -0.146 N 
ENDBRANCH   2  14
TORSDOF 2
ENDMDL
MODEL 5
REMARK VINA RESULT:      -7.6      0.865      2.534
REMARK  2 active torsions:
REMARK  status: ('A' for Active; 'I' for Inactive)
REMARK    1  A    between atoms: N_4  and  C_1 
REMARK    2  A    between atoms: C_6  and  C_2 
ROOT
ATOM      1  C   UNL d   1      53.007  33.459  53.454  0.00  0.00     0.149 A 
ATOM      2  C   UNL d   1      53.123  34.103  53.968  0.00  0.00     0.056 A 
ATOM      3  N   UNL d   1      52.438  33.483  52.867  0.00  0.00    -0.228 NA
ATOM      4  C   UNL d   1      52.657  34.770  53.882  0.00  0.00     0.006 A 
ATOM      5  C   UNL d   1      51.971  34.148  52.778  0.00  0.00     0.083 A 
ATOM      6  C   UNL d   1      52.077  34.795  53.285  0.00  0.00     0.019 A 
ATOM      7  C   UNL d   1      52.756  35.422  54.385  0.00  0.00     0.000 C 
ATOM      8  C   UNL d   1      51.395  34.177  52.188  0.00  0.00     0.021 C 
ENDROOT
BRANCH   1   9
ATOM      9  N   UNL d   1      53.478  32.785  53.541  0.00  0.00    -0.289 N 
ATOM     10  C   UNL d   1      53.212  32.201  53.873  0.00  0.00     0.082 A 
ATOM     11  C   UNL d   1      53.628  31.620  53.945  0.00  0.00     0.021 A 
ATOM     12  C   UNL d   1      54.552  32.206  53.361  0.00  0.00     0.021 A 
ATOM     13  C   UNL d   1      54.139  32.785  53.290  0.00  0.00     0.082 A 
ENDBRANCH   1   9
BRANCH   2  14
ATOM     14  C   UNL d   1      53.694  34.071  54.552  0.00  0.00     0.125 C 
ATOM     15  N   UNL d   1      53.645  34.568  55.203  0.00  0.00    -0.146 N 
ENDBRANCH   2  14
TORSDOF 2
ENDMDL
MODEL 6
REMARK VINA RESULT:      -7.5      1.001      3.152
REMARK  2 active torsions:
REMARK  status: ('A' for Active; 'I' for Inactive)
REMARK    1  A    between atoms: N_4  and  C_1 
REMARK    2  A    between atoms: C_6  and  C_2 
ROOT
ATOM      1  C   UNL d   1      53.198  33.725  53.835  0.00  0.00     0.149 A 
ATOM      2  C   UNL d   1      52.541  33.648  53.331  0.00  0.00     0.056 A 
ATOM      3  N   UNL d   1      53.367  34.433  54.207  0.00  0.00    -0.228 NA
ATOM      4  C   UNL d   1      52.057  34.296  53.207  0.00  0.00     0.006 A 
ATOM      5  C   UNL d   1      52.884  35.083  54.086  0.00  0.00     0.083 A 
ATOM      6  C   UNL d   1      52.227  35.019  53.586  0.00  0.00     0.019 A 
ATOM      7  C   UNL d   1      51.396  34.240  52.708  0.00  0.00     0.000 C 
ATOM      8  C   UNL d   1      53.050  35.801  54.459  0.00  0.00     0.021 C 
ENDROOT
BRANCH   1   9
ATOM      9  N   UNL d   1      53.688  33.070  53.960  0.00  0.00    -0.289 N 
ATOM     10  C   UNL d   1      54.237  32.941  53.509  0.00  0.00     0.082 A 
ATOM     11  C   UNL d   1      54.658  32.371  53.624  0.00  0.00     0.021 A 
ATOM     12  C   UNL d   1      53.984  32.074  54.622  0.00  0.00     0.021 A 
ATOM     13  C   UNL d   1      53.566  32.641  54.508  0.00  0.00     0.082 A 
ENDBRANCH   1   9
BRANCH   2  14
ATOM     14  C   UNL d   1      52.380  32.937  52.963  0.00  0.00     0.125 C 
ATOM     15  N   UNL d   1      51.647  32.808  52.619  0.00  0.00    -0.146 N 
ENDBRANCH   2  14
TORSDOF 2
ENDMDL
MODEL 7
REMARK VINA RESULT:      -7.5      1.079      2.728
REMARK  2 active torsions:
REMARK  status: ('A' for Active; 'I' for Inactive)
REMARK    1  A    between atoms: N_4  and  C_1 
REMARK    2  A    between atoms: C_6  and  C_2 
ROOT
ATOM      1  C   UNL d   1      53.637  32.354  53.983  0.00  0.00     0.149 A 
ATOM      2  C   UNL d   1      53.072  32.909  53.729  0.00  0.00     0.056 A 
ATOM      3  N   UNL d   1      54.255  32.573  54.472  0.00  0.00    -0.228 NA
ATOM      4  C   UNL d   1      53.138  33.687  53.975  0.00  0.00     0.006 A 
ATOM      5  C   UNL d   1      54.325  33.349  54.720  0.00  0.00     0.083 A 
ATOM      6  C   UNL d   1      53.767  33.911  54.474  0.00  0.00     0.019 A 
ATOM      7  C   UNL d   1      52.585  34.255  53.733  0.00  0.00     0.000 C 
ATOM      8  C   UNL d   1      54.946  33.575  55.214  0.00  0.00     0.021 C 
ENDROOT
BRANCH   1   9
ATOM      9  N   UNL d   1      53.570  31.568  53.734  0.00  0.00    -0.289 N 
ATOM     10  C   UNL d   1      53.256  31.081  54.165  0.00  0.00     0.082 A 
ATOM     11  C   UNL d   1      53.202  30.401  53.941  0.00  0.00     0.021 A 
ATOM     12  C   UNL d   1      53.767  30.703  52.879  0.00  0.00     0.021 A 
ATOM     13  C   UNL d   1      53.821  31.379  53.101  0.00  0.00     0.082 A 
ENDBRANCH   1   9
BRANCH   2  14
ATOM     14  C   UNL d   1      52.458  32.682  53.240  0.00  0.00     0.125 C 
ATOM     15  N   UNL d   1      51.838  33.199  53.091  0.00  0.00    -0.146 N 
ENDBRANCH   2  14
TORSDOF 2
ENDMDL
