MODEL 1
REMARK VINA RESULT:      -5.7      0.000      0.000
REMARK  4 active torsions:
REMARK  status: ('A' for Active; 'I' for Inactive)
REMARK    1  A    between atoms: C_7  and  C_4 
REMARK    2  A    between atoms: C_11  and  C_7 
REMARK    3  A    between atoms: C_9  and  O_16 
REMARK    4  A    between atoms: O_16  and  C_11 
ROOT
ATOM      1  C   UNL d   1     -41.482-122.411 -52.577  0.00  0.00     0.124 C 
ENDROOT
BRANCH   1   2
ATOM      2  C   UNL d   1     -41.123-122.290 -51.836  0.00  0.00     0.046 C 
BRANCH   2   3
ATOM      3  C   UNL d   1     -41.469-122.603 -51.156  0.00  0.00     0.092 A 
ATOM      4  N   UNL d   1     -42.091-122.264 -50.738  0.00  0.00    -0.219 NA
ATOM      5  C   UNL d   1     -42.259-122.760 -50.100  0.00  0.00     0.215 A 
ATOM      6  S   UNL d   1     -41.744-123.396 -50.128  0.00  0.00    -0.045 SA
ATOM      7  N   UNL d   1     -42.844-122.637 -49.532  0.00  0.00    -0.120 N 
ATOM      8  C   UNL d   1     -41.252-123.304 -50.781  0.00  0.00     0.058 A 
ENDBRANCH   2   3
ENDBRANCH   1   2
BRANCH   1   9
ATOM      9  O   UNL d   1     -41.135-122.095 -53.249  0.00  0.00    -0.305 OA
BRANCH   9  10
ATOM     10  C   UNL d   1     -41.535-122.134 -53.973  0.00  0.00     0.100 A 
ATOM     11  C   UNL d   1     -41.333-122.711 -54.519  0.00  0.00     0.027 A 
ATOM     12  C   UNL d   1     -41.732-122.750 -55.242  0.00  0.00     0.032 A 
ATOM     13  C   UNL d   1     -42.332-122.212 -55.416  0.00  0.00     0.140 A 
ATOM     14  C   UNL d   1     -42.537-121.630 -54.869  0.00  0.00     0.032 A 
ATOM     15  F   UNL d   1     -42.728-122.256 -56.143  0.00  0.00    -0.204 F 
ATOM     16  C   UNL d   1     -42.142-121.590 -54.150  0.00  0.00     0.027 A 
ENDBRANCH   9  10
ENDBRANCH   1   9
TORSDOF 4
ENDMDL
MODEL 2
REMARK VINA RESULT:      -5.2      2.720      4.403
REMARK  4 active torsions:
REMARK  status: ('A' for Active; 'I' for Inactive)
REMARK    1  A    between atoms: C_7  and  C_4 
REMARK    2  A    between atoms: C_11  and  C_7 
REMARK    3  A    between atoms: C_9  and  O_16 
REMARK    4  A    between atoms: O_16  and  C_11 
ROOT
ATOM      1  C   UNL d   1     -41.570-122.606 -51.879  0.00  0.00     0.124 C 
ENDROOT
BRANCH   1   2
ATOM      2  C   UNL d   1     -41.123-122.317 -52.519  0.00  0.00     0.046 C 
BRANCH   2   3
ATOM      3  C   UNL d   1     -41.369-122.463 -53.292  0.00  0.00     0.092 A 
ATOM      4  N   UNL d   1     -41.839-121.964 -53.745  0.00  0.00    -0.219 NA
ATOM      5  C   UNL d   1     -41.949-122.326 -54.479  0.00  0.00     0.215 A 
ATOM      6  S   UNL d   1     -41.549-123.040 -54.474  0.00  0.00    -0.045 SA
ATOM      7  N   UNL d   1     -42.385-122.021 -55.109  0.00  0.00    -0.120 N 
ATOM      8  C   UNL d   1     -41.188-123.131 -53.741  0.00  0.00     0.058 A 
ENDBRANCH   2   3
ENDBRANCH   1   2
BRANCH   1   9
ATOM      9  O   UNL d   1     -41.345-122.419 -51.113  0.00  0.00    -0.305 OA
BRANCH   9  10
ATOM     10  C   UNL d   1     -41.779-122.718 -50.475  0.00  0.00     0.100 A 
ATOM     11  C   UNL d   1     -41.528-123.399 -50.095  0.00  0.00     0.027 A 
ATOM     12  C   UNL d   1     -41.961-123.697 -49.457  0.00  0.00     0.032 A 
ATOM     13  C   UNL d   1     -42.645-123.312 -49.202  0.00  0.00     0.140 A 
ATOM     14  C   UNL d   1     -42.899-122.627 -49.583  0.00  0.00     0.032 A 
ATOM     15  F   UNL d   1     -43.075-123.616 -48.562  0.00  0.00    -0.204 F 
ATOM     16  C   UNL d   1     -42.470-122.329 -50.217  0.00  0.00     0.027 A 
ENDBRANCH   9  10
ENDBRANCH   1   9
TORSDOF 4
ENDMDL
