MODEL 1
REMARK VINA RESULT:      14.0      0.000      0.000
REMARK  3 active torsions:
REMARK  status: ('A' for Active; 'I' for Inactive)
REMARK    1  A    between atoms: N_3  and  C_1 
REMARK       I    between atoms: C_5  and  N_3 
REMARK    2  A    between atoms: C_10  and  C_4 
REMARK       I    between atoms: N_8  and  C_5 
REMARK    3  A    between atoms: C_11  and  N_8 
ROOT
ATOM      1  C   UNL d   1      45.970 -16.750  44.277  0.00  0.00     0.199 A 
ATOM      2  N   UNL d   1      46.020 -17.148  43.556  0.00  0.00    -0.221 NA
ATOM      3  C   UNL d   1      46.277 -17.948  43.713  0.00  0.00     0.090 A 
ATOM      4  S   UNL d   1      46.182 -17.252  44.896  0.00  0.00    -0.046 SA
ATOM      5  C   UNL d   1      46.378 -18.013  44.550  0.00  0.00     0.058 A 
ENDROOT
BRANCH   1   6
ATOM      6  N   UNL d   1      45.734 -15.942  44.368  0.00  0.00    -0.166 NA
ATOM      7  C   UNL d   1      44.983 -15.778  44.712  0.00  0.00     0.370 C 
ATOM      8  N   UNL d   1      44.748 -14.972  44.802  0.00  0.00    -0.191 NA
ATOM      9  O   UNL d   1      44.486 -16.372  44.954  0.00  0.00    -0.242 OA
BRANCH   8  10
ATOM     10  C   UNL d   1      45.252 -14.376  44.557  0.00  0.00     0.086 A 
ATOM     11  C   UNL d   1      45.942 -14.184  44.955  0.00  0.00     0.019 A 
ATOM     12  C   UNL d   1      46.441 -13.578  44.692  0.00  0.00     0.002 A 
ATOM     13  C   UNL d   1      46.239 -13.156  44.013  0.00  0.00     0.000 A 
ATOM     14  C   UNL d   1      45.552 -13.336  43.604  0.00  0.00     0.002 A 
ATOM     15  C   UNL d   1      45.069 -13.946  43.886  0.00  0.00     0.019 A 
ENDBRANCH   8  10
ENDBRANCH   1   6
BRANCH   3  16
ATOM     16  C   UNL d   1      46.399 -18.536  43.146  0.00  0.00     0.018 A 
ATOM     17  C   UNL d   1      46.429 -19.348  43.365  0.00  0.00     0.002 A 
ATOM     18  C   UNL d   1      46.548 -19.923  42.814  0.00  0.00     0.000 A 
ATOM     19  C   UNL d   1      46.646 -19.716  42.001  0.00  0.00     0.000 A 
ATOM     20  C   UNL d   1      46.616 -18.917  41.788  0.00  0.00     0.000 A 
ATOM     21  C   UNL d   1      46.494 -18.338  42.360  0.00  0.00     0.002 A 
ENDBRANCH   3  16
TORSDOF 3
ENDMDL
MODEL 2
REMARK VINA RESULT:      15.6      0.835      4.652
REMARK  3 active torsions:
REMARK  status: ('A' for Active; 'I' for Inactive)
REMARK    1  A    between atoms: N_3  and  C_1 
REMARK       I    between atoms: C_5  and  N_3 
REMARK    2  A    between atoms: C_10  and  C_4 
REMARK       I    between atoms: N_8  and  C_5 
REMARK    3  A    between atoms: C_11  and  N_8 
ROOT
ATOM      1  C   UNL d   1      45.850 -16.739  44.046  0.00  0.00     0.199 A 
ATOM      2  N   UNL d   1      45.911 -15.980  43.728  0.00  0.00    -0.221 NA
ATOM      3  C   UNL d   1      45.579 -15.429  44.291  0.00  0.00     0.090 A 
ATOM      4  S   UNL d   1      45.494 -16.709  44.790  0.00  0.00    -0.046 SA
ATOM      5  C   UNL d   1      45.319 -15.885  44.954  0.00  0.00     0.058 A 
ENDROOT
BRANCH   1   6
ATOM      6  N   UNL d   1      46.114 -17.446  43.665  0.00  0.00    -0.166 NA
ATOM      7  C   UNL d   1      46.371 -18.090  44.144  0.00  0.00     0.370 C 
ATOM      8  N   UNL d   1      46.635 -18.796  43.763  0.00  0.00    -0.191 NA
ATOM      9  O   UNL d   1      46.370 -18.046  44.954  0.00  0.00    -0.242 OA
BRANCH   8  10
ATOM     10  C   UNL d   1      46.634 -18.837  42.946  0.00  0.00     0.086 A 
ATOM     11  C   UNL d   1      46.646 -18.172  42.467  0.00  0.00     0.019 A 
ATOM     12  C   UNL d   1      46.645 -18.231  41.641  0.00  0.00     0.002 A 
ATOM     13  C   UNL d   1      46.632 -18.977  41.291  0.00  0.00     0.000 A 
ATOM     14  C   UNL d   1      46.620 -19.652  41.757  0.00  0.00     0.002 A 
ATOM     15  C   UNL d   1      46.621 -19.568  42.579  0.00  0.00     0.019 A 
ENDBRANCH   8  10
ENDBRANCH   1   6
BRANCH   3  16
ATOM     16  C   UNL d   1      45.528 -14.611  44.194  0.00  0.00     0.018 A 
ATOM     17  C   UNL d   1      44.904 -14.266  43.748  0.00  0.00     0.002 A 
ATOM     18  C   UNL d   1      44.852 -13.468  43.651  0.00  0.00     0.000 A 
ATOM     19  C   UNL d   1      45.431 -12.962  44.001  0.00  0.00     0.000 A 
ATOM     20  C   UNL d   1      46.045 -13.303  44.439  0.00  0.00     0.000 A 
ATOM     21  C   UNL d   1      46.086 -14.120  44.530  0.00  0.00     0.002 A 
ENDBRANCH   3  16
TORSDOF 3
ENDMDL
