MODEL 1
REMARK VINA RESULT:      -3.2      0.000      0.000
REMARK  2 active torsions:
REMARK  status: ('A' for Active; 'I' for Inactive)
REMARK    1  A    between atoms: C_3  and  C_1 
REMARK       I    between atoms: N_7  and  C_3 
REMARK    2  A    between atoms: C_11  and  N_7 
ROOT
ATOM      1  C   UNL d   1      33.024  19.771 -22.944  0.00  0.00     0.121 A 
ATOM      2  C   UNL d   1      33.168  20.445 -23.396  0.00  0.00     0.305 A 
ATOM      3  C   UNL d   1      32.952  19.828 -22.115  0.00  0.00     0.012 A 
ATOM      4  O   UNL d   1      33.238  21.169 -23.013  0.00  0.00    -0.273 OA
ATOM      5  C   UNL d   1      33.026  20.561 -21.763  0.00  0.00     0.023 A 
ATOM      6  C   UNL d   1      33.171  21.236 -22.215  0.00  0.00     0.103 A 
ATOM      7  O   UNL d   1      33.241  20.402 -24.204  0.00  0.00    -0.259 OA
ATOM      8  C   UNL d   1      32.954  20.621 -20.931  0.00  0.00     0.002 A 
ATOM      9  C   UNL d   1      33.240  21.962 -21.829  0.00  0.00     0.025 A 
ATOM     10  C   UNL d   1      33.029  21.349 -20.587  0.00  0.00     0.000 A 
ATOM     11  C   UNL d   1      33.173  22.023 -21.040  0.00  0.00     0.002 A 
ENDROOT
BRANCH   1  12
ATOM     12  C   UNL d   1      32.950  19.029 -23.308  0.00  0.00     0.284 C 
ATOM     13  N   UNL d   1      32.607  18.391 -22.909  0.00  0.00    -0.208 NA
ATOM     14  O   UNL d   1      33.208  18.883 -24.077  0.00  0.00    -0.265 OA
BRANCH  13  15
ATOM     15  C   UNL d   1      32.537  17.664 -23.273  0.00  0.00     0.085 A 
ATOM     16  C   UNL d   1      33.159  17.132 -23.269  0.00  0.00     0.019 A 
ATOM     17  C   UNL d   1      33.093  16.396 -23.636  0.00  0.00     0.002 A 
ATOM     18  C   UNL d   1      32.382  16.200 -24.013  0.00  0.00     0.000 A 
ATOM     19  C   UNL d   1      31.739  16.720 -24.032  0.00  0.00     0.002 A 
ATOM     20  C   UNL d   1      32.305  15.486 -24.374  0.00  0.00     0.000 C 
ATOM     21  C   UNL d   1      31.821  17.456 -23.659  0.00  0.00     0.019 A 
ENDBRANCH  13  15
ENDBRANCH   1  12
TORSDOF 2
ENDMDL
MODEL 2
REMARK VINA RESULT:      -3.1      0.897      4.407
REMARK  2 active torsions:
REMARK  status: ('A' for Active; 'I' for Inactive)
REMARK    1  A    between atoms: C_3  and  C_1 
REMARK       I    between atoms: N_7  and  C_3 
REMARK    2  A    between atoms: C_11  and  N_7 
ROOT
ATOM      1  C   UNL d   1      33.003  19.508 -23.133  0.00  0.00     0.121 A 
ATOM      2  C   UNL d   1      33.093  19.627 -23.944  0.00  0.00     0.305 A 
ATOM      3  C   UNL d   1      32.930  18.735 -22.828  0.00  0.00     0.012 A 
ATOM      4  O   UNL d   1      33.109  18.972 -24.440  0.00  0.00    -0.273 OA
ATOM      5  C   UNL d   1      32.949  18.104 -23.346  0.00  0.00     0.023 A 
ATOM      6  C   UNL d   1      33.039  18.223 -24.157  0.00  0.00     0.103 A 
ATOM      7  O   UNL d   1      33.166  20.374 -24.254  0.00  0.00    -0.259 OA
ATOM      8  C   UNL d   1      32.875  17.327 -23.041  0.00  0.00     0.002 A 
ATOM      9  C   UNL d   1      33.055  17.564 -24.653  0.00  0.00     0.025 A 
ATOM     10  C   UNL d   1      32.895  16.706 -23.557  0.00  0.00     0.000 A 
ATOM     11  C   UNL d   1      32.985  16.825 -24.368  0.00  0.00     0.002 A 
ENDROOT
BRANCH   1  12
ATOM     12  C   UNL d   1      32.984  20.154 -22.613  0.00  0.00     0.284 C 
ATOM     13  N   UNL d   1      32.704  20.070 -21.840  0.00  0.00    -0.208 NA
ATOM     14  O   UNL d   1      33.239  20.907 -22.830  0.00  0.00    -0.265 OA
BRANCH  13  15
ATOM     15  C   UNL d   1      32.689  20.710 -21.334  0.00  0.00     0.085 A 
ATOM     16  C   UNL d   1      32.143  21.312 -21.436  0.00  0.00     0.019 A 
ATOM     17  C   UNL d   1      32.123  21.961 -20.927  0.00  0.00     0.002 A 
ATOM     18  C   UNL d   1      32.669  21.996 -20.304  0.00  0.00     0.000 A 
ATOM     19  C   UNL d   1      33.230  21.402 -20.179  0.00  0.00     0.002 A 
ATOM     20  C   UNL d   1      32.659  22.623 -19.802  0.00  0.00     0.000 C 
ATOM     21  C   UNL d   1      33.237  20.756 -20.699  0.00  0.00     0.019 A 
ENDBRANCH  13  15
ENDBRANCH   1  12
TORSDOF 2
ENDMDL
MODEL 3
REMARK VINA RESULT:      -2.7      1.241      1.820
REMARK  2 active torsions:
REMARK  status: ('A' for Active; 'I' for Inactive)
REMARK    1  A    between atoms: C_3  and  C_1 
REMARK       I    between atoms: N_7  and  C_3 
REMARK    2  A    between atoms: C_11  and  N_7 
ROOT
ATOM      1  C   UNL d   1      32.965  20.347 -21.805  0.00  0.00     0.121 A 
ATOM      2  C   UNL d   1      33.103  20.296 -20.993  0.00  0.00     0.305 A 
ATOM      3  C   UNL d   1      32.825  21.088 -22.162  0.00  0.00     0.012 A 
ATOM      4  O   UNL d   1      33.098  20.987 -20.549  0.00  0.00    -0.273 OA
ATOM      5  C   UNL d   1      32.827  21.757 -21.694  0.00  0.00     0.023 A 
ATOM      6  C   UNL d   1      32.964  21.706 -20.882  0.00  0.00     0.103 A 
ATOM      7  O   UNL d   1      33.240  19.580 -20.635  0.00  0.00    -0.259 OA
ATOM      8  C   UNL d   1      32.686  22.502 -22.050  0.00  0.00     0.002 A 
ATOM      9  C   UNL d   1      32.959  22.401 -20.437  0.00  0.00     0.025 A 
ATOM     10  C   UNL d   1      32.689  23.160 -21.582  0.00  0.00     0.000 A 
ATOM     11  C   UNL d   1      32.826  23.110 -20.770  0.00  0.00     0.002 A 
ENDROOT
BRANCH   1  12
ATOM     12  C   UNL d   1      32.965  19.663 -22.275  0.00  0.00     0.284 C 
ATOM     13  N   UNL d   1      32.691  19.682 -23.055  0.00  0.00    -0.208 NA
ATOM     14  O   UNL d   1      33.232  18.934 -21.999  0.00  0.00    -0.265 OA
BRANCH  13  15
ATOM     15  C   UNL d   1      32.694  19.005 -23.511  0.00  0.00     0.085 A 
ATOM     16  C   UNL d   1      33.234  18.912 -24.119  0.00  0.00     0.019 A 
ATOM     17  C   UNL d   1      33.241  18.230 -24.583  0.00  0.00     0.002 A 
ATOM     18  C   UNL d   1      32.687  17.634 -24.424  0.00  0.00     0.000 A 
ATOM     19  C   UNL d   1      32.131  17.704 -23.816  0.00  0.00     0.002 A 
ATOM     20  C   UNL d   1      32.684  16.965 -24.869  0.00  0.00     0.000 C 
ATOM     21  C   UNL d   1      32.137  18.395 -23.359  0.00  0.00     0.019 A 
ENDBRANCH  13  15
ENDBRANCH   1  12
TORSDOF 2
ENDMDL
MODEL 4
REMARK VINA RESULT:      -1.9      1.612      2.846
REMARK  2 active torsions:
REMARK  status: ('A' for Active; 'I' for Inactive)
REMARK    1  A    between atoms: C_3  and  C_1 
REMARK       I    between atoms: N_7  and  C_3 
REMARK    2  A    between atoms: C_11  and  N_7 
ROOT
ATOM      1  C   UNL d   1      32.818  22.008 -21.323  0.00  0.00     0.121 A 
ATOM      2  C   UNL d   1      32.443  22.721 -21.501  0.00  0.00     0.305 A 
ATOM      3  C   UNL d   1      33.087  21.858 -20.547  0.00  0.00     0.012 A 
ATOM      4  O   UNL d   1      32.342  23.274 -20.902  0.00  0.00    -0.273 OA
ATOM      5  C   UNL d   1      32.972  22.427 -19.974  0.00  0.00     0.023 A 
ATOM      6  C   UNL d   1      32.597  23.140 -20.152  0.00  0.00     0.103 A 
ATOM      7  O   UNL d   1      32.177  22.880 -22.252  0.00  0.00    -0.259 OA
ATOM      8  C   UNL d   1      33.241  22.278 -19.194  0.00  0.00     0.002 A 
ATOM      9  C   UNL d   1      32.497  23.694 -19.549  0.00  0.00     0.025 A 
ATOM     10  C   UNL d   1      33.125  22.844 -18.630  0.00  0.00     0.000 A 
ATOM     11  C   UNL d   1      32.750  23.557 -18.809  0.00  0.00     0.002 A 
ENDROOT
BRANCH   1  12
ATOM     12  C   UNL d   1      32.931  21.435 -21.911  0.00  0.00     0.284 C 
ATOM     13  N   UNL d   1      32.787  20.635 -21.759  0.00  0.00    -0.208 NA
ATOM     14  O   UNL d   1      33.190  21.622 -22.671  0.00  0.00    -0.265 OA
BRANCH  13  15
ATOM     15  C   UNL d   1      32.900  20.076 -22.343  0.00  0.00     0.085 A 
ATOM     16  C   UNL d   1      33.103  20.300 -23.104  0.00  0.00     0.019 A 
ATOM     17  C   UNL d   1      33.219  19.739 -23.697  0.00  0.00     0.002 A 
ATOM     18  C   UNL d   1      33.127  18.936 -23.511  0.00  0.00     0.000 A 
ATOM     19  C   UNL d   1      32.923  18.684 -22.750  0.00  0.00     0.002 A 
ATOM     20  C   UNL d   1      33.237  18.379 -24.080  0.00  0.00     0.000 C 
ATOM     21  C   UNL d   1      32.810  19.260 -22.165  0.00  0.00     0.019 A 
ENDBRANCH  13  15
ENDBRANCH   1  12
TORSDOF 2
ENDMDL
MODEL 5
REMARK VINA RESULT:      -1.0      2.349      5.595
REMARK  2 active torsions:
REMARK  status: ('A' for Active; 'I' for Inactive)
REMARK    1  A    between atoms: C_3  and  C_1 
REMARK       I    between atoms: N_7  and  C_3 
REMARK    2  A    between atoms: C_11  and  N_7 
ROOT
ATOM      1  C   UNL d   1      32.908  21.845 -21.001  0.00  0.00     0.121 A 
ATOM      2  C   UNL d   1      32.690  22.200 -21.713  0.00  0.00     0.305 A 
ATOM      3  C   UNL d   1      33.089  21.031 -20.976  0.00  0.00     0.012 A 
ATOM      4  O   UNL d   1      32.658  21.737 -22.391  0.00  0.00    -0.273 OA
ATOM      5  C   UNL d   1      33.048  20.597 -21.667  0.00  0.00     0.023 A 
ATOM      6  C   UNL d   1      32.831  20.953 -22.379  0.00  0.00     0.103 A 
ATOM      7  O   UNL d   1      32.511  22.992 -21.750  0.00  0.00    -0.259 OA
ATOM      8  C   UNL d   1      33.231  19.780 -21.644  0.00  0.00     0.002 A 
ATOM      9  C   UNL d   1      32.799  20.486 -23.059  0.00  0.00     0.025 A 
ATOM     10  C   UNL d   1      33.188  19.355 -22.330  0.00  0.00     0.000 A 
ATOM     11  C   UNL d   1      32.971  19.711 -23.042  0.00  0.00     0.002 A 
ENDROOT
BRANCH   1  12
ATOM     12  C   UNL d   1      32.947  22.291 -20.303  0.00  0.00     0.284 C 
ATOM     13  N   UNL d   1      32.856  21.935 -19.563  0.00  0.00    -0.208 NA
ATOM     14  O   UNL d   1      33.078  23.106 -20.303  0.00  0.00    -0.265 OA
BRANCH  13  15
ATOM     15  C   UNL d   1      32.896  22.381 -18.881  0.00  0.00     0.085 A 
ATOM     16  C   UNL d   1      32.672  23.168 -18.882  0.00  0.00     0.019 A 
ATOM     17  C   UNL d   1      32.711  23.623 -18.194  0.00  0.00     0.002 A 
ATOM     18  C   UNL d   1      32.983  23.269 -17.495  0.00  0.00     0.000 A 
ATOM     19  C   UNL d   1      33.214  22.475 -17.469  0.00  0.00     0.002 A 
ATOM     20  C   UNL d   1      33.025  23.701 -16.820  0.00  0.00     0.000 C 
ATOM     21  C   UNL d   1      33.169  22.032 -18.167  0.00  0.00     0.019 A 
ENDBRANCH  13  15
ENDBRANCH   1  12
TORSDOF 2
ENDMDL
MODEL 6
REMARK VINA RESULT:      -0.8      2.982      4.682
REMARK  2 active torsions:
REMARK  status: ('A' for Active; 'I' for Inactive)
REMARK    1  A    between atoms: C_3  and  C_1 
REMARK       I    between atoms: N_7  and  C_3 
REMARK    2  A    between atoms: C_11  and  N_7 
ROOT
ATOM      1  C   UNL d   1      32.523  22.773 -19.526  0.00  0.00     0.121 A 
ATOM      2  C   UNL d   1      31.873  23.277 -19.452  0.00  0.00     0.305 A 
ATOM      3  C   UNL d   1      32.982  22.579 -18.858  0.00  0.00     0.012 A 
ATOM      4  O   UNL d   1      31.693  23.579 -18.710  0.00  0.00    -0.273 OA
ATOM      5  C   UNL d   1      32.777  22.896 -18.134  0.00  0.00     0.023 A 
ATOM      6  C   UNL d   1      32.128  23.399 -18.059  0.00  0.00     0.103 A 
ATOM      7  O   UNL d   1      31.418  23.473 -20.095  0.00  0.00    -0.259 OA
ATOM      8  C   UNL d   1      33.238  22.702 -17.461  0.00  0.00     0.002 A 
ATOM      9  C   UNL d   1      31.948  23.702 -17.313  0.00  0.00     0.025 A 
ATOM     10  C   UNL d   1      33.031  23.018 -16.747  0.00  0.00     0.000 A 
ATOM     11  C   UNL d   1      32.382  23.521 -16.673  0.00  0.00     0.002 A 
ENDROOT
BRANCH   1  12
ATOM     12  C   UNL d   1      32.725  22.455 -20.265  0.00  0.00     0.284 C 
ATOM     13  N   UNL d   1      32.433  21.721 -20.507  0.00  0.00    -0.208 NA
ATOM     14  O   UNL d   1      33.221  22.844 -20.796  0.00  0.00    -0.265 OA
BRANCH  13  15
ATOM     15  C   UNL d   1      32.637  21.414 -21.235  0.00  0.00     0.085 A 
ATOM     16  C   UNL d   1      32.944  20.658 -21.300  0.00  0.00     0.019 A 
ATOM     17  C   UNL d   1      33.151  20.343 -22.034  0.00  0.00     0.002 A 
ATOM     18  C   UNL d   1      33.043  20.807 -22.713  0.00  0.00     0.000 A 
ATOM     19  C   UNL d   1      32.734  21.573 -22.674  0.00  0.00     0.002 A 
ATOM     20  C   UNL d   1      33.241  20.512 -23.433  0.00  0.00     0.000 C 
ATOM     21  C   UNL d   1      32.531  21.875 -21.929  0.00  0.00     0.019 A 
ENDBRANCH  13  15
ENDBRANCH   1  12
TORSDOF 2
ENDMDL
