MODEL 1
REMARK VINA RESULT:      -2.3      0.000      0.000
REMARK  4 active torsions:
REMARK  status: ('A' for Active; 'I' for Inactive)
REMARK    1  A    between atoms: C_3  and  C_1 
REMARK    2  A    between atoms: C_8  and  C_3 
REMARK    3  A    between atoms: C_9  and  C_3 
REMARK    4  A    between atoms: N_5  and  C_9 
ROOT
ATOM      1  C   UNL d   1     -42.144-122.580 -50.500  0.00  0.00     0.023 A 
ATOM      2  C   UNL d   1     -42.973-122.363 -50.458  0.00  0.00     0.082 A 
ATOM      3  N   UNL d   1     -43.259-122.605 -49.738  0.00  0.00    -0.246 NA
ATOM      4  C   UNL d   1     -41.958-122.948 -49.798  0.00  0.00     0.019 A 
ATOM      5  C   UNL d   1     -42.640-122.968 -49.322  0.00  0.00     0.081 A 
ATOM      6  C   UNL d   1     -43.667-122.070 -50.672  0.00  0.00     0.021 C 
ATOM      7  C   UNL d   1     -41.250-123.272 -49.525  0.00  0.00     0.002 A 
ATOM      8  C   UNL d   1     -42.603-123.317 -48.569  0.00  0.00     0.019 A 
ATOM      9  C   UNL d   1     -41.233-123.613 -48.776  0.00  0.00     0.000 A 
ATOM     10  C   UNL d   1     -41.898-123.639 -48.297  0.00  0.00     0.002 A 
ENDROOT
BRANCH   1  11
ATOM     11  C   UNL d   1     -41.648-122.432 -51.143  0.00  0.00     0.048 C 
BRANCH  11  12
ATOM     12  C   UNL d   1     -41.656-122.892 -51.811  0.00  0.00     0.102 A 
ATOM     13  O   UNL d   1     -42.217-122.838 -52.431  0.00  0.00    -0.305 OA
ATOM     14  C   UNL d   1     -42.031-123.400 -53.001  0.00  0.00     0.123 A 
ATOM     15  C   UNL d   1     -41.333-123.815 -52.728  0.00  0.00     0.029 A 
ATOM     16  C   UNL d   1     -41.123-123.492 -52.005  0.00  0.00     0.027 A 
ENDBRANCH  11  12
BRANCH  11  17
ATOM     17  C   UNL d   1     -41.123-121.783 -51.094  0.00  0.00     0.150 C 
BRANCH  17  18
ATOM     18  N   UNL d   1     -41.265-121.114 -51.564  0.00  0.00    -0.112 N 
ATOM     19  O   UNL d   1     -41.159-121.136 -52.366  0.00  0.00    -0.532 OA
ATOM     20  O   UNL d   1     -41.527-120.395 -51.192  0.00  0.00    -0.532 OA
ENDBRANCH  17  18
ENDBRANCH  11  17
ENDBRANCH   1  11
TORSDOF 4
ENDMDL
MODEL 2
REMARK VINA RESULT:      -1.9      1.531      3.224
REMARK  4 active torsions:
REMARK  status: ('A' for Active; 'I' for Inactive)
REMARK    1  A    between atoms: C_3  and  C_1 
REMARK    2  A    between atoms: C_8  and  C_3 
REMARK    3  A    between atoms: C_9  and  C_3 
REMARK    4  A    between atoms: N_5  and  C_9 
ROOT
ATOM      1  C   UNL d   1     -41.604-122.433 -51.188  0.00  0.00     0.023 A 
ATOM      2  C   UNL d   1     -41.537-121.580 -51.249  0.00  0.00     0.082 A 
ATOM      3  N   UNL d   1     -41.365-121.397 -52.021  0.00  0.00    -0.246 NA
ATOM      4  C   UNL d   1     -41.469-122.737 -51.931  0.00  0.00     0.019 A 
ATOM      5  C   UNL d   1     -41.321-122.105 -52.451  0.00  0.00     0.081 A 
ATOM      6  C   UNL d   1     -41.534-120.826 -51.035  0.00  0.00     0.021 C 
ATOM      7  C   UNL d   1     -41.461-123.514 -52.208  0.00  0.00     0.002 A 
ATOM      8  C   UNL d   1     -41.165-122.262 -53.252  0.00  0.00     0.019 A 
ATOM      9  C   UNL d   1     -41.305-123.650 -53.005  0.00  0.00     0.000 A 
ATOM     10  C   UNL d   1     -41.157-123.036 -53.527  0.00  0.00     0.002 A 
ENDROOT
BRANCH   1  11
ATOM     11  C   UNL d   1     -41.774-122.846 -50.494  0.00  0.00     0.048 C 
BRANCH  11  12
ATOM     12  C   UNL d   1     -42.532-122.937 -50.219  0.00  0.00     0.102 A 
ATOM     13  O   UNL d   1     -43.021-123.605 -50.351  0.00  0.00    -0.305 OA
ATOM     14  C   UNL d   1     -43.742-123.478 -49.981  0.00  0.00     0.123 A 
ATOM     15  C   UNL d   1     -43.703-122.708 -49.607  0.00  0.00     0.029 A 
ATOM     16  C   UNL d   1     -42.961-122.398 -49.763  0.00  0.00     0.027 A 
ENDBRANCH  11  12
BRANCH  11  17
ATOM     17  C   UNL d   1     -41.137-123.178 -50.067  0.00  0.00     0.150 C 
BRANCH  17  18
ATOM     18  N   UNL d   1     -41.128-123.111 -49.240  0.00  0.00    -0.112 N 
ATOM     19  O   UNL d   1     -41.123-122.385 -48.880  0.00  0.00    -0.532 OA
ATOM     20  O   UNL d   1     -41.124-123.817 -48.767  0.00  0.00    -0.532 OA
ENDBRANCH  17  18
ENDBRANCH  11  17
ENDBRANCH   1  11
TORSDOF 4
ENDMDL
MODEL 3
REMARK VINA RESULT:      -0.9      1.219      1.849
REMARK  4 active torsions:
REMARK  status: ('A' for Active; 'I' for Inactive)
REMARK    1  A    between atoms: C_3  and  C_1 
REMARK    2  A    between atoms: C_8  and  C_3 
REMARK    3  A    between atoms: C_9  and  C_3 
REMARK    4  A    between atoms: N_5  and  C_9 
ROOT
ATOM      1  C   UNL d   1     -42.382-122.840 -49.796  0.00  0.00     0.023 A 
ATOM      2  C   UNL d   1     -43.217-122.642 -49.753  0.00  0.00     0.082 A 
ATOM      3  N   UNL d   1     -43.462-122.761 -48.988  0.00  0.00    -0.246 NA
ATOM      4  C   UNL d   1     -42.154-123.072 -49.050  0.00  0.00     0.019 A 
ATOM      5  C   UNL d   1     -42.813-123.027 -48.545  0.00  0.00     0.081 A 
ATOM      6  C   UNL d   1     -43.930-122.411 -49.981  0.00  0.00     0.021 C 
ATOM      7  C   UNL d   1     -41.423-123.323 -48.759  0.00  0.00     0.002 A 
ATOM      8  C   UNL d   1     -42.732-123.235 -47.746  0.00  0.00     0.019 A 
ATOM      9  C   UNL d   1     -41.362-123.525 -47.963  0.00  0.00     0.000 A 
ATOM     10  C   UNL d   1     -42.004-123.485 -47.456  0.00  0.00     0.002 A 
ENDROOT
BRANCH   1  11
ATOM     11  C   UNL d   1     -41.920-122.794 -50.478  0.00  0.00     0.048 C 
BRANCH  11  12
ATOM     12  C   UNL d   1     -41.738-122.087 -50.831  0.00  0.00     0.102 A 
ATOM     13  O   UNL d   1     -41.138-121.559 -50.578  0.00  0.00    -0.305 OA
ATOM     14  C   UNL d   1     -41.133-120.910 -51.083  0.00  0.00     0.123 A 
ATOM     15  C   UNL d   1     -41.748-121.038 -51.666  0.00  0.00     0.029 A 
ATOM     16  C   UNL d   1     -42.101-121.757 -51.495  0.00  0.00     0.027 A 
ENDBRANCH  11  12
BRANCH  11  17
ATOM     17  C   UNL d   1     -41.635-123.508 -50.809  0.00  0.00     0.150 C 
BRANCH  17  18
ATOM     18  N   UNL d   1     -41.746-123.647 -51.619  0.00  0.00    -0.112 N 
ATOM     19  O   UNL d   1     -41.123-123.624 -52.136  0.00  0.00    -0.532 OA
ATOM     20  O   UNL d   1     -42.528-123.817 -51.908  0.00  0.00    -0.532 OA
ENDBRANCH  17  18
ENDBRANCH  11  17
ENDBRANCH   1  11
TORSDOF 4
ENDMDL
