MODEL 1
REMARK VINA RESULT:      40.3      0.000      0.000
REMARK  6 active torsions:
REMARK  status: ('A' for Active; 'I' for Inactive)
REMARK    1  A    between atoms: N_5  and  C_1 
REMARK    2  A    between atoms: S_2  and  C_11 
REMARK    3  A    between atoms: N_12  and  S_2 
REMARK    4  A    between atoms: O_8  and  C_4 
REMARK    5  A    between atoms: C_9  and  O_8 
REMARK    6  A    between atoms: C_16  and  C_9 
ROOT
ATOM      1  C   UNL d   1      13.756  13.930  -2.245  0.00  0.00     0.300 C 
ATOM      2  O   UNL d   1      13.853  14.740  -2.266  0.00  0.00    -0.259 OA
ENDROOT
BRANCH   1   3
ATOM      3  O   UNL d   1      13.814  13.517  -1.530  0.00  0.00    -0.271 OA
BRANCH   3   4
ATOM      4  C   UNL d   1      14.487  13.586  -1.060  0.00  0.00     0.132 A 
ATOM      5  C   UNL d   1      14.871  12.912  -0.779  0.00  0.00     0.207 A 
ATOM      6  C   UNL d   1      15.544  12.982  -0.307  0.00  0.00     0.303 A 
ATOM      7  N   UNL d   1      15.835  13.726  -0.117  0.00  0.00    -0.206 NA
ATOM      8  O   UNL d   1      15.925  12.302  -0.028  0.00  0.00    -0.263 OA
ATOM      9  C   UNL d   1      15.458  14.396  -0.393  0.00  0.00     0.087 A 
ATOM     10  C   UNL d   1      14.784  14.327  -0.864  0.00  0.00     0.046 A 
ATOM     11  C   UNL d   1      15.751  15.154  -0.200  0.00  0.00     0.021 C 
BRANCH   5  12
ATOM     12  N   UNL d   1      14.574  12.163  -0.974  0.00  0.00    -0.107 N 
ATOM     13  O   UNL d   1      14.031  11.796  -0.470  0.00  0.00    -0.531 OA
ATOM     14  O   UNL d   1      14.819  11.787  -1.665  0.00  0.00    -0.531 OA
ENDBRANCH   5  12
ENDBRANCH   3   4
ENDBRANCH   1   3
BRANCH   1  15
ATOM     15  C   UNL d   1      13.596  13.515  -2.947  0.00  0.00     0.064 A 
ATOM     16  C   UNL d   1      13.600  12.703  -2.946  0.00  0.00     0.006 A 
ATOM     17  C   UNL d   1      13.440  12.301  -3.651  0.00  0.00     0.013 A 
ATOM     18  C   UNL d   1      13.281  12.721  -4.333  0.00  0.00     0.104 A 
ATOM     19  C   UNL d   1      13.278  13.537  -4.333  0.00  0.00     0.013 A 
ATOM     20  C   UNL d   1      13.436  13.943  -3.634  0.00  0.00     0.006 A 
BRANCH  18  21
ATOM     21  S   UNL d   1      13.120  12.320  -5.042  0.00  0.00     0.271 S 
ATOM     22  O   UNL d   1      12.873  11.787  -5.612  0.00  0.00    -0.200 OA
ATOM     23  O   UNL d   1      12.801  11.843  -4.445  0.00  0.00    -0.200 OA
BRANCH  21  24
ATOM     24  N   UNL d   1      13.367  12.650  -5.745  0.00  0.00    -0.226 N 
ATOM     25  C   UNL d   1      12.850  13.093  -6.197  0.00  0.00     0.111 C 
ATOM     26  C   UNL d   1      14.147  12.531  -5.995  0.00  0.00     0.111 C 
ENDBRANCH  21  24
ENDBRANCH  18  21
ENDBRANCH   1  15
TORSDOF 6
ENDMDL
