MODEL 1
REMARK VINA RESULT:      -2.4      0.000      0.000
REMARK  4 active torsions:
REMARK  status: ('A' for Active; 'I' for Inactive)
REMARK    1  A    between atoms: C_6  and  C_1 
REMARK    2  A    between atoms: C_7  and  N_3 
REMARK    3  A    between atoms: C_9  and  C_6 
REMARK    4  A    between atoms: N_8  and  C_9 
ROOT
ATOM      1  C   UNL d   1      33.046  19.615 -22.514  0.00  0.00     0.058 A 
ATOM      2  C   UNL d   1      32.871  20.422 -22.535  0.00  0.00     0.067 A 
ATOM      3  N   UNL d   1      32.919  20.731 -21.769  0.00  0.00    -0.306 N 
ATOM      4  C   UNL d   1      33.126  20.099 -21.282  0.00  0.00     0.064 A 
ATOM      5  C   UNL d   1      33.197  19.444 -21.741  0.00  0.00     0.022 A 
ATOM      6  C   UNL d   1      32.678  20.856 -23.215  0.00  0.00     0.019 C 
ATOM      7  C   UNL d   1      33.240  20.140 -20.452  0.00  0.00     0.019 C 
ENDROOT
BRANCH   1   8
ATOM      8  C   UNL d   1      33.061  19.091 -23.162  0.00  0.00     0.214 C 
ATOM      9  O   UNL d   1      33.048  19.372 -23.932  0.00  0.00    -0.285 OA
BRANCH   8  10
ATOM     10  C   UNL d   1      33.088  18.278 -23.023  0.00  0.00     0.123 C 
BRANCH  10  11
ATOM     11  N   UNL d   1      32.803  17.753 -23.584  0.00  0.00    -0.300 N 
ATOM     12  C   UNL d   1      33.205  17.665 -24.278  0.00  0.00     0.080 A 
ATOM     13  C   UNL d   1      32.925  17.133 -24.858  0.00  0.00     0.019 A 
ATOM     14  C   UNL d   1      32.237  16.716 -24.685  0.00  0.00     0.003 A 
ATOM     15  C   UNL d   1      31.835  16.804 -23.991  0.00  0.00     0.019 A 
ATOM     16  C   UNL d   1      32.145  17.344 -23.437  0.00  0.00     0.080 A 
ENDBRANCH  10  11
ENDBRANCH   8  10
ENDBRANCH   1   8
BRANCH   3  17
ATOM     17  C   UNL d   1      32.809  21.466 -21.464  0.00  0.00     0.064 A 
ATOM     18  C   UNL d   1      32.324  21.561 -20.797  0.00  0.00     0.020 A 
ATOM     19  C   UNL d   1      32.209  22.328 -20.478  0.00  0.00     0.031 A 
ATOM     20  C   UNL d   1      32.568  22.959 -20.821  0.00  0.00     0.140 A 
ATOM     21  C   UNL d   1      33.039  22.865 -21.470  0.00  0.00     0.031 A 
ATOM     22  F   UNL d   1      32.456  23.702 -20.512  0.00  0.00    -0.204 F 
ATOM     23  C   UNL d   1      33.172  22.109 -21.810  0.00  0.00     0.020 A 
ENDBRANCH   3  17
TORSDOF 4
ENDMDL
MODEL 2
REMARK VINA RESULT:      -1.1      0.925      1.412
REMARK  4 active torsions:
REMARK  status: ('A' for Active; 'I' for Inactive)
REMARK    1  A    between atoms: C_6  and  C_1 
REMARK    2  A    between atoms: C_7  and  N_3 
REMARK    3  A    between atoms: C_9  and  C_6 
REMARK    4  A    between atoms: N_8  and  C_9 
ROOT
ATOM      1  C   UNL d   1      33.044  19.012 -23.270  0.00  0.00     0.058 A 
ATOM      2  C   UNL d   1      33.041  19.815 -23.463  0.00  0.00     0.067 A 
ATOM      3  N   UNL d   1      33.114  20.261 -22.770  0.00  0.00    -0.306 N 
ATOM      4  C   UNL d   1      33.161  19.716 -22.153  0.00  0.00     0.064 A 
ATOM      5  C   UNL d   1      33.118  18.979 -22.468  0.00  0.00     0.022 A 
ATOM      6  C   UNL d   1      32.975  20.126 -24.229  0.00  0.00     0.019 C 
ATOM      7  C   UNL d   1      33.241  19.906 -21.340  0.00  0.00     0.019 C 
ENDROOT
BRANCH   1   8
ATOM      8  C   UNL d   1      32.983  18.371 -23.801  0.00  0.00     0.214 C 
ATOM      9  O   UNL d   1      33.228  18.443 -24.579  0.00  0.00    -0.285 OA
BRANCH   8  10
ATOM     10  C   UNL d   1      32.669  17.656 -23.534  0.00  0.00     0.123 C 
BRANCH  10  11
ATOM     11  N   UNL d   1      32.574  17.028 -24.052  0.00  0.00    -0.300 N 
ATOM     12  C   UNL d   1      31.873  16.947 -24.444  0.00  0.00     0.080 A 
ATOM     13  C   UNL d   1      31.763  16.311 -24.975  0.00  0.00     0.019 A 
ATOM     14  C   UNL d   1      32.391  15.788 -25.072  0.00  0.00     0.003 A 
ATOM     15  C   UNL d   1      33.092  15.869 -24.680  0.00  0.00     0.019 A 
ATOM     16  C   UNL d   1      33.164  16.517 -24.158  0.00  0.00     0.080 A 
ENDBRANCH  10  11
ENDBRANCH   8  10
ENDBRANCH   1   8
BRANCH   3  17
ATOM     17  C   UNL d   1      33.142  21.050 -22.624  0.00  0.00     0.064 A 
ATOM     18  C   UNL d   1      33.144  21.582 -23.261  0.00  0.00     0.020 A 
ATOM     19  C   UNL d   1      33.174  22.406 -23.109  0.00  0.00     0.031 A 
ATOM     20  C   UNL d   1      33.199  22.670 -22.351  0.00  0.00     0.140 A 
ATOM     21  C   UNL d   1      33.197  22.151 -21.732  0.00  0.00     0.031 A 
ATOM     22  F   UNL d   1      33.228  23.469 -22.204  0.00  0.00    -0.204 F 
ATOM     23  C   UNL d   1      33.168  21.321 -21.855  0.00  0.00     0.020 A 
ENDBRANCH   3  17
TORSDOF 4
ENDMDL
MODEL 3
REMARK VINA RESULT:      -0.4      2.812      5.499
REMARK  4 active torsions:
REMARK  status: ('A' for Active; 'I' for Inactive)
REMARK    1  A    between atoms: C_6  and  C_1 
REMARK    2  A    between atoms: C_7  and  N_3 
REMARK    3  A    between atoms: C_9  and  C_6 
REMARK    4  A    between atoms: N_8  and  C_9 
ROOT
ATOM      1  C   UNL d   1      31.622  17.532 -24.339  0.00  0.00     0.058 A 
ATOM      2  C   UNL d   1      30.835  17.499 -24.091  0.00  0.00     0.067 A 
ATOM      3  N   UNL d   1      30.509  16.773 -24.319  0.00  0.00    -0.306 N 
ATOM      4  C   UNL d   1      31.111  16.366 -24.708  0.00  0.00     0.064 A 
ATOM      5  C   UNL d   1      31.765  16.831 -24.712  0.00  0.00     0.022 A 
ATOM      6  C   UNL d   1      30.433  18.097 -23.680  0.00  0.00     0.019 C 
ATOM      7  C   UNL d   1      31.045  15.599 -25.041  0.00  0.00     0.019 C 
ENDROOT
BRANCH   1   8
ATOM      8  C   UNL d   1      32.155  18.164 -24.225  0.00  0.00     0.214 C 
ATOM      9  O   UNL d   1      32.181  18.793 -24.749  0.00  0.00    -0.285 OA
BRANCH   8  10
ATOM     10  C   UNL d   1      32.661  18.151 -23.573  0.00  0.00     0.123 C 
BRANCH  10  11
ATOM     11  N   UNL d   1      32.856  18.848 -23.188  0.00  0.00    -0.300 N 
ATOM     12  C   UNL d   1      32.928  18.844 -22.384  0.00  0.00     0.080 A 
ATOM     13  C   UNL d   1      33.127  19.548 -21.980  0.00  0.00     0.019 A 
ATOM     14  C   UNL d   1      33.241  20.224 -22.435  0.00  0.00     0.003 A 
ATOM     15  C   UNL d   1      33.169  20.228 -23.238  0.00  0.00     0.019 A 
ATOM     16  C   UNL d   1      32.969  19.506 -23.607  0.00  0.00     0.080 A 
ENDBRANCH  10  11
ENDBRANCH   8  10
ENDBRANCH   1   8
BRANCH   3  17
ATOM     17  C   UNL d   1      29.782  16.443 -24.228  0.00  0.00     0.064 A 
ATOM     18  C   UNL d   1      29.141  16.750 -24.655  0.00  0.00     0.020 A 
ATOM     19  C   UNL d   1      28.381  16.406 -24.560  0.00  0.00     0.031 A 
ATOM     20  C   UNL d   1      28.286  15.786 -24.059  0.00  0.00     0.140 A 
ATOM     21  C   UNL d   1      28.911  15.488 -23.644  0.00  0.00     0.031 A 
ATOM     22  F   UNL d   1      27.550  15.453 -23.967  0.00  0.00    -0.204 F 
ATOM     23  C   UNL d   1      29.682  15.813 -23.719  0.00  0.00     0.020 A 
ENDBRANCH   3  17
TORSDOF 4
ENDMDL
