MODEL 1
REMARK VINA RESULT:      80.7      0.000      0.000
REMARK  6 active torsions:
REMARK  status: ('A' for Active; 'I' for Inactive)
REMARK    1  A    between atoms: N_2  and  C_1 
REMARK    2  A    between atoms: N_7  and  C_1 
REMARK    3  A    between atoms: C_5  and  C_3 
REMARK    4  A    between atoms: C_6  and  C_5 
REMARK       I    between atoms: N_8  and  C_6 
REMARK    5  A    between atoms: C_18  and  N_7 
REMARK    6  A    between atoms: C_9  and  N_8 
ROOT
ATOM      1  N   UNL d   1      60.006  49.232  51.078  0.00  0.00    -0.278 N 
ATOM      2  C   UNL d   1      60.625  48.721  50.911  0.00  0.00     0.127 A 
ATOM      3  C   UNL d   1      61.280  48.677  51.436  0.00  0.00     0.274 A 
ATOM      4  N   UNL d   1      61.306  49.141  52.116  0.00  0.00    -0.318 N 
ATOM      5  O   UNL d   1      61.900  48.166  51.270  0.00  0.00    -0.266 OA
ATOM      6  C   UNL d   1      60.021  49.701  51.755  0.00  0.00     0.101 A 
ATOM      7  C   UNL d   1      60.668  49.655  52.270  0.00  0.00     0.094 A 
ATOM      8  H   UNL d   1      61.944  49.104  52.636  0.00  0.00     0.169 HD
ENDROOT
BRANCH   2   9
ATOM      9  C   UNL d   1      60.607  48.258  50.240  0.00  0.00     0.083 C 
BRANCH   9  10
ATOM     10  C   UNL d   1      60.976  47.526  50.235  0.00  0.00     0.259 C 
ATOM     11  N   UNL d   1      61.037  47.101  49.527  0.00  0.00    -0.321 N 
ATOM     12  H   UNL d   1      60.726  47.414  48.826  0.00  0.00     0.169 HD
ATOM     13  O   UNL d   1      61.287  47.214  50.936  0.00  0.00    -0.267 OA
BRANCH  11  14
ATOM     14  C   UNL d   1      61.410  46.368  49.533  0.00  0.00     0.059 A 
ATOM     15  C   UNL d   1      62.228  46.332  49.351  0.00  0.00     0.016 A 
ATOM     16  C   UNL d   1      62.608  45.604  49.355  0.00  0.00     0.001 A 
ATOM     17  C   UNL d   1      62.651  47.020  49.170  0.00  0.00     0.002 C 
ATOM     18  C   UNL d   1      62.179  44.904  49.539  0.00  0.00     0.000 A 
ATOM     19  C   UNL d   1      61.366  44.939  49.719  0.00  0.00     0.002 A 
ATOM     20  C   UNL d   1      62.567  44.172  49.542  0.00  0.00     0.000 C 
ATOM     21  C   UNL d   1      60.985  45.683  49.714  0.00  0.00     0.017 A 
ENDBRANCH  11  14
ENDBRANCH   9  10
ENDBRANCH   2   9
BRANCH   1  22
ATOM     22  C   UNL d   1      59.364  49.275  50.564  0.00  0.00     0.184 C 
ATOM     23  S   UNL d   1      59.447  49.701  49.865  0.00  0.00    -0.040 SA
BRANCH  22  24
ATOM     24  N   UNL d   1      58.660  48.898  50.755  0.00  0.00    -0.331 N 
ATOM     25  H   UNL d   1      58.673  48.289  51.306  0.00  0.00     0.168 HD
BRANCH  24  26
ATOM     26  C   UNL d   1      57.952  49.120  50.404  0.00  0.00     0.058 A 
ATOM     27  C   UNL d   1      57.826  48.983  49.605  0.00  0.00     0.017 A 
ATOM     28  C   UNL d   1      57.118  49.204  49.255  0.00  0.00     0.002 A 
ATOM     29  C   UNL d   1      56.535  49.566  49.712  0.00  0.00     0.000 A 
ATOM     30  C   UNL d   1      56.659  49.705  50.515  0.00  0.00     0.002 A 
ATOM     31  C   UNL d   1      57.373  49.479  50.859  0.00  0.00     0.017 A 
ENDBRANCH  24  26
ENDBRANCH  22  24
ENDBRANCH   1  22
TORSDOF 6
ENDMDL
