MODEL 1
REMARK VINA RESULT:      -5.5      0.000      0.000
REMARK  0 active torsions:
REMARK  status: ('A' for Active; 'I' for Inactive)
ROOT
ATOM      1  C   UNL d   1      56.516  -0.116  32.453  0.00  0.00     0.063 A 
ATOM      2  N   UNL d   1      56.602  -1.282  31.814  0.00  0.00    -0.204 NA
ATOM      3  C   UNL d   1      56.263  -0.894  32.461  0.00  0.00     0.099 A 
ATOM      4  C   UNL d   1      57.049  -0.750  31.426  0.00  0.00     0.318 A 
ATOM      5  C   UNL d   1      57.014  -0.016  31.801  0.00  0.00     0.254 A 
ATOM      6  C   UNL d   1      55.765  -1.157  33.042  0.00  0.00     0.076 A 
ATOM      7  C   UNL d   1      55.508  -0.636  33.635  0.00  0.00     0.024 A 
ATOM      8  C   UNL d   1      56.271   0.399  33.026  0.00  0.00     0.016 A 
ATOM      9  O   UNL d   1      57.482  -0.932  30.737  0.00  0.00    -0.262 OA
ATOM     10  C   UNL d   1      55.761   0.142  33.627  0.00  0.00     0.059 A 
ATOM     11  O   UNL d   1      57.393   0.682  31.581  0.00  0.00    -0.281 OA
ATOM     12 CL   UNL d   1      55.509  -1.946  33.051  0.00  0.00    -0.081 Cl
ATOM     13 CL   UNL d   1      55.500   0.682  34.232  0.00  0.00    -0.082 Cl
ENDROOT
TORSDOF 0
ENDMDL
MODEL 2
REMARK VINA RESULT:      -3.5      8.362      9.016
REMARK  0 active torsions:
REMARK  status: ('A' for Active; 'I' for Inactive)
ROOT
ATOM      1  C   UNL d   1      59.468  -7.683  35.507  0.00  0.00     0.063 A 
ATOM      2  N   UNL d   1      60.441  -7.172  36.259  0.00  0.00    -0.204 NA
ATOM      3  C   UNL d   1      60.155  -7.866  35.912  0.00  0.00     0.099 A 
ATOM      4  C   UNL d   1      59.939  -6.585  36.068  0.00  0.00     0.318 A 
ATOM      5  C   UNL d   1      59.324  -6.874  35.600  0.00  0.00     0.254 A 
ATOM      6  C   UNL d   1      60.437  -8.624  35.919  0.00  0.00     0.076 A 
ATOM      7  C   UNL d   1      60.028  -9.223  35.514  0.00  0.00     0.024 A 
ATOM      8  C   UNL d   1      59.063  -8.258  35.109  0.00  0.00     0.016 A 
ATOM      9  O   UNL d   1      60.040  -5.796  36.317  0.00  0.00    -0.262 OA
ATOM     10  C   UNL d   1      59.342  -9.040  35.109  0.00  0.00     0.059 A 
ATOM     11  O   UNL d   1      58.689  -6.454  35.285  0.00  0.00    -0.281 OA
ATOM     12 CL   UNL d   1      61.133  -8.810  36.329  0.00  0.00    -0.081 Cl
ATOM     13 CL   UNL d   1      58.917  -9.649  34.691  0.00  0.00    -0.082 Cl
ENDROOT
TORSDOF 0
ENDMDL
MODEL 3
REMARK VINA RESULT:      -3.2      9.497      9.811
REMARK  0 active torsions:
REMARK  status: ('A' for Active; 'I' for Inactive)
ROOT
ATOM      1  C   UNL d   1      59.699  -9.089  34.080  0.00  0.00     0.063 A 
ATOM      2  N   UNL d   1      61.017  -8.919  34.165  0.00  0.00    -0.204 NA
ATOM      3  C   UNL d   1      60.403  -9.174  33.673  0.00  0.00     0.099 A 
ATOM      4  C   UNL d   1      60.690  -8.686  34.852  0.00  0.00     0.318 A 
ATOM      5  C   UNL d   1      59.871  -8.780  34.827  0.00  0.00     0.254 A 
ATOM      6  C   UNL d   1      60.407  -9.467  32.918  0.00  0.00     0.076 A 
ATOM      7  C   UNL d   1      59.694  -9.683  32.553  0.00  0.00     0.024 A 
ATOM      8  C   UNL d   1      58.998  -9.297  33.733  0.00  0.00     0.016 A 
ATOM      9  O   UNL d   1      61.133  -8.391  35.493  0.00  0.00    -0.262 OA
ATOM     10  C   UNL d   1      58.990  -9.598  32.960  0.00  0.00     0.059 A 
ATOM     11  O   UNL d   1      59.324  -8.607  35.419  0.00  0.00    -0.281 OA
ATOM     12 CL   UNL d   1      61.121  -9.554  32.506  0.00  0.00    -0.081 Cl
ATOM     13 CL   UNL d   1      58.254  -9.818  32.591  0.00  0.00    -0.082 Cl
ENDROOT
TORSDOF 0
ENDMDL
MODEL 4
REMARK VINA RESULT:      -2.9      8.837      9.074
REMARK  0 active torsions:
REMARK  status: ('A' for Active; 'I' for Inactive)
ROOT
ATOM      1  C   UNL d   1      60.223  -8.238  35.022  0.00  0.00     0.063 A 
ATOM      2  N   UNL d   1      59.098  -8.942  34.917  0.00  0.00    -0.204 NA
ATOM      3  C   UNL d   1      59.484  -8.354  35.352  0.00  0.00     0.099 A 
ATOM      4  C   UNL d   1      59.593  -9.174  34.338  0.00  0.00     0.318 A 
ATOM      5  C   UNL d   1      60.301  -8.753  34.380  0.00  0.00     0.254 A 
ATOM      6  C   UNL d   1      59.250  -7.923  35.996  0.00  0.00     0.076 A 
ATOM      7  C   UNL d   1      59.762  -7.358  36.325  0.00  0.00     0.024 A 
ATOM      8  C   UNL d   1      60.729  -7.690  35.335  0.00  0.00     0.016 A 
ATOM      9  O   UNL d   1      59.401  -9.763  33.780  0.00  0.00    -0.262 OA
ATOM     10  C   UNL d   1      60.501  -7.242  35.995  0.00  0.00     0.059 A 
ATOM     11  O   UNL d   1      60.959  -8.821  33.888  0.00  0.00    -0.281 OA
ATOM     12 CL   UNL d   1      58.500  -8.041  36.330  0.00  0.00    -0.081 Cl
ATOM     13 CL   UNL d   1      61.031  -6.665  36.328  0.00  0.00    -0.082 Cl
ENDROOT
TORSDOF 0
ENDMDL
MODEL 5
REMARK VINA RESULT:      -2.8      2.939      4.059
REMARK  0 active torsions:
REMARK  status: ('A' for Active; 'I' for Inactive)
ROOT
ATOM      1  C   UNL d   1      57.910  -0.786  30.364  0.00  0.00     0.063 A 
ATOM      2  N   UNL d   1      57.849   0.532  30.542  0.00  0.00    -0.204 NA
ATOM      3  C   UNL d   1      58.203  -0.070  30.100  0.00  0.00     0.099 A 
ATOM      4  C   UNL d   1      57.354   0.186  31.061  0.00  0.00     0.318 A 
ATOM      5  C   UNL d   1      57.372  -0.633  30.973  0.00  0.00     0.254 A 
ATOM      6  C   UNL d   1      58.746  -0.045  29.500  0.00  0.00     0.076 A 
ATOM      7  C   UNL d   1      59.010  -0.750  29.150  0.00  0.00     0.024 A 
ATOM      8  C   UNL d   1      58.160  -1.479  30.030  0.00  0.00     0.016 A 
ATOM      9  O   UNL d   1      56.893   0.614  31.608  0.00  0.00    -0.262 OA
ATOM     10  C   UNL d   1      58.717  -1.467  29.414  0.00  0.00     0.059 A 
ATOM     11  O   UNL d   1      56.946  -1.196  31.398  0.00  0.00    -0.281 OA
ATOM     12 CL   UNL d   1      59.043   0.681  29.232  0.00  0.00    -0.081 Cl
ATOM     13 CL   UNL d   1      58.983  -2.194  29.059  0.00  0.00    -0.082 Cl
ENDROOT
TORSDOF 0
ENDMDL
MODEL 6
REMARK VINA RESULT:      -2.8      4.613      5.439
REMARK  0 active torsions:
REMARK  status: ('A' for Active; 'I' for Inactive)
ROOT
ATOM      1  C   UNL d   1      59.195  -2.425  29.013  0.00  0.00     0.063 A 
ATOM      2  N   UNL d   1      60.379  -2.917  28.656  0.00  0.00    -0.204 NA
ATOM      3  C   UNL d   1      59.978  -2.230  28.880  0.00  0.00     0.099 A 
ATOM      4  C   UNL d   1      59.850  -3.512  28.654  0.00  0.00     0.318 A 
ATOM      5  C   UNL d   1      59.105  -3.235  28.872  0.00  0.00     0.254 A 
ATOM      6  C   UNL d   1      60.233  -1.467  28.975  0.00  0.00     0.076 A 
ATOM      7  C   UNL d   1      59.698  -0.878  29.210  0.00  0.00     0.024 A 
ATOM      8  C   UNL d   1      58.665  -1.858  29.242  0.00  0.00     0.016 A 
ATOM      9  O   UNL d   1      60.046  -4.297  28.455  0.00  0.00    -0.262 OA
ATOM     10  C   UNL d   1      58.914  -1.073  29.343  0.00  0.00     0.059 A 
ATOM     11  O   UNL d   1      58.406  -3.665  28.940  0.00  0.00    -0.281 OA
ATOM     12 CL   UNL d   1      61.026  -1.270  28.840  0.00  0.00    -0.081 Cl
ATOM     13 CL   UNL d   1      58.360  -0.473  29.584  0.00  0.00    -0.082 Cl
ENDROOT
TORSDOF 0
ENDMDL
MODEL 7
REMARK VINA RESULT:      -2.7      4.747      5.403
REMARK  0 active torsions:
REMARK  status: ('A' for Active; 'I' for Inactive)
ROOT
ATOM      1  C   UNL d   1      59.142  -1.764  29.042  0.00  0.00     0.063 A 
ATOM      2  N   UNL d   1      60.273  -1.090  29.244  0.00  0.00    -0.204 NA
ATOM      3  C   UNL d   1      59.955  -1.838  29.088  0.00  0.00     0.099 A 
ATOM      4  C   UNL d   1      59.665  -0.579  29.291  0.00  0.00     0.318 A 
ATOM      5  C   UNL d   1      58.949  -0.970  29.169  0.00  0.00     0.254 A 
ATOM      6  C   UNL d   1      60.307  -2.559  28.985  0.00  0.00     0.076 A 
ATOM      7  C   UNL d   1      59.842  -3.230  28.832  0.00  0.00     0.024 A 
ATOM      8  C   UNL d   1      58.680  -2.411  28.893  0.00  0.00     0.016 A 
ATOM      9  O   UNL d   1      59.763   0.235  29.443  0.00  0.00    -0.262 OA
ATOM     10  C   UNL d   1      59.029  -3.156  28.786  0.00  0.00     0.059 A 
ATOM     11  O   UNL d   1      58.191  -0.648  29.171  0.00  0.00    -0.281 OA
ATOM     12 CL   UNL d   1      61.132  -2.634  29.032  0.00  0.00    -0.081 Cl
ATOM     13 CL   UNL d   1      58.546  -3.840  28.628  0.00  0.00    -0.082 Cl
ENDROOT
TORSDOF 0
ENDMDL
