MODEL 1
REMARK VINA RESULT:      -5.4      0.000      0.000
REMARK  5 active torsions:
REMARK  status: ('A' for Active; 'I' for Inactive)
REMARK    1  A    between atoms: S_9  and  C_3 
REMARK    2  A    between atoms: C_14  and  S_9 
REMARK    3  A    between atoms: C_10  and  C_11 
REMARK    4  A    between atoms: C_12  and  C_10 
REMARK    5  A    between atoms: C_11  and  C_14 
ROOT
ATOM      1  S   UNL d   1     -48.403  13.820  22.304  0.00  0.00    -0.046 SA
ENDROOT
BRANCH   1   2
ATOM      2  C   UNL d   1     -49.052  14.294  22.492  0.00  0.00     0.220 A 
ATOM      3  N   UNL d   1     -49.732  14.271  22.022  0.00  0.00    -0.149 N 
ATOM      4  C   UNL d   1     -50.391  14.744  22.203  0.00  0.00     0.303 A 
ATOM      5  N   UNL d   1     -49.763  13.775  21.364  0.00  0.00    -0.037 N 
ATOM      6  C   UNL d   1     -50.350  15.241  22.869  0.00  0.00     0.161 A 
ATOM      7  O   UNL d   1     -51.064  14.722  21.738  0.00  0.00    -0.263 OA
ATOM      8  C   UNL d   1     -50.998  15.714  23.058  0.00  0.00     0.028 C 
ATOM      9  N   UNL d   1     -49.670  15.263  23.339  0.00  0.00    -0.141 NA
ATOM     10  N   UNL d   1     -49.025  14.790  23.148  0.00  0.00    -0.121 NA
ENDBRANCH   1   2
BRANCH   1  11
ATOM     11  C   UNL d   1     -47.772  13.759  22.827  0.00  0.00     0.038 C 
BRANCH  11  12
ATOM     12  C   UNL d   1     -47.204  13.177  22.710  0.00  0.00     0.007 C 
BRANCH  12  13
ATOM     13  C   UNL d   1     -46.605  13.062  23.265  0.00  0.00     0.001 C 
BRANCH  13  14
ATOM     14  C   UNL d   1     -46.205  12.336  23.287  0.00  0.00     0.000 A 
ATOM     15  C   UNL d   1     -46.533  11.691  23.671  0.00  0.00     0.000 A 
ATOM     16  C   UNL d   1     -46.119  10.966  23.686  0.00  0.00     0.000 A 
ATOM     17  C   UNL d   1     -45.393  10.907  23.318  0.00  0.00     0.000 A 
ATOM     18  C   UNL d   1     -45.064  11.555  22.932  0.00  0.00     0.000 A 
ATOM     19  C   UNL d   1     -45.467  12.274  22.914  0.00  0.00     0.000 A 
ENDBRANCH  13  14
ENDBRANCH  12  13
ENDBRANCH  11  12
ENDBRANCH   1  11
TORSDOF 5
ENDMDL
MODEL 2
REMARK VINA RESULT:      -5.2      3.107      5.127
REMARK  5 active torsions:
REMARK  status: ('A' for Active; 'I' for Inactive)
REMARK    1  A    between atoms: S_9  and  C_3 
REMARK    2  A    between atoms: C_14  and  S_9 
REMARK    3  A    between atoms: C_10  and  C_11 
REMARK    4  A    between atoms: C_12  and  C_10 
REMARK    5  A    between atoms: C_11  and  C_14 
ROOT
ATOM      1  S   UNL d   1     -46.866  12.344  23.267  0.00  0.00    -0.046 SA
ENDROOT
BRANCH   1   2
ATOM      2  C   UNL d   1     -46.169  11.902  23.282  0.00  0.00     0.220 A 
ATOM      3  N   UNL d   1     -45.492  12.181  22.898  0.00  0.00    -0.149 N 
ATOM      4  C   UNL d   1     -44.786  11.744  22.907  0.00  0.00     0.303 A 
ATOM      5  N   UNL d   1     -45.512  12.903  22.498  0.00  0.00    -0.037 N 
ATOM      6  C   UNL d   1     -44.776  11.018  23.313  0.00  0.00     0.161 A 
ATOM      7  O   UNL d   1     -44.116  12.020  22.527  0.00  0.00    -0.263 OA
ATOM      8  C   UNL d   1     -44.080  10.576  23.329  0.00  0.00     0.028 C 
ATOM      9  N   UNL d   1     -45.453  10.739  23.698  0.00  0.00    -0.141 NA
ATOM     10  N   UNL d   1     -46.146  11.182  23.680  0.00  0.00    -0.121 NA
ENDBRANCH   1   2
BRANCH   1  11
ATOM     11  C   UNL d   1     -47.594  11.967  23.322  0.00  0.00     0.038 C 
BRANCH  11  12
ATOM     12  C   UNL d   1     -48.273  12.360  23.078  0.00  0.00     0.007 C 
BRANCH  12  13
ATOM     13  C   UNL d   1     -48.890  11.945  22.723  0.00  0.00     0.001 C 
BRANCH  13  14
ATOM     14  C   UNL d   1     -49.621  12.319  22.609  0.00  0.00     0.000 A 
ATOM     15  C   UNL d   1     -50.159  12.376  23.224  0.00  0.00     0.000 A 
ATOM     16  C   UNL d   1     -50.892  12.756  23.097  0.00  0.00     0.000 A 
ATOM     17  C   UNL d   1     -51.064  13.067  22.362  0.00  0.00     0.000 A 
ATOM     18  C   UNL d   1     -50.524  13.010  21.744  0.00  0.00     0.000 A 
ATOM     19  C   UNL d   1     -49.798  12.636  21.864  0.00  0.00     0.000 A 
ENDBRANCH  13  14
ENDBRANCH  12  13
ENDBRANCH  11  12
ENDBRANCH   1  11
TORSDOF 5
ENDMDL
MODEL 3
REMARK VINA RESULT:      -5.0      1.259      1.923
REMARK  5 active torsions:
REMARK  status: ('A' for Active; 'I' for Inactive)
REMARK    1  A    between atoms: S_9  and  C_3 
REMARK    2  A    between atoms: C_14  and  S_9 
REMARK    3  A    between atoms: C_10  and  C_11 
REMARK    4  A    between atoms: C_12  and  C_10 
REMARK    5  A    between atoms: C_11  and  C_14 
ROOT
ATOM      1  S   UNL d   1     -47.423  12.940  23.282  0.00  0.00    -0.046 SA
ENDROOT
BRANCH   1   2
ATOM      2  C   UNL d   1     -48.210  13.141  23.136  0.00  0.00     0.220 A 
ATOM      3  N   UNL d   1     -48.411  13.921  22.947  0.00  0.00    -0.149 N 
ATOM      4  C   UNL d   1     -49.201  14.133  22.798  0.00  0.00     0.303 A 
ATOM      5  N   UNL d   1     -47.825  14.499  22.905  0.00  0.00    -0.037 N 
ATOM      6  C   UNL d   1     -49.784  13.542  22.844  0.00  0.00     0.161 A 
ATOM      7  O   UNL d   1     -49.400  14.904  22.612  0.00  0.00    -0.263 OA
ATOM      8  C   UNL d   1     -50.571  13.742  22.698  0.00  0.00     0.028 C 
ATOM      9  N   UNL d   1     -49.583  12.762  23.032  0.00  0.00    -0.141 NA
ATOM     10  N   UNL d   1     -48.798  12.566  23.177  0.00  0.00    -0.121 NA
ENDBRANCH   1   2
BRANCH   1  11
ATOM     11  C   UNL d   1     -47.199  12.150  23.315  0.00  0.00     0.038 C 
BRANCH  11  12
ATOM     12  C   UNL d   1     -46.404  11.957  23.383  0.00  0.00     0.007 C 
BRANCH  12  13
ATOM     13  C   UNL d   1     -46.168  11.168  23.426  0.00  0.00     0.001 C 
BRANCH  13  14
ATOM     14  C   UNL d   1     -45.362  10.981  23.374  0.00  0.00     0.000 A 
ATOM     15  C   UNL d   1     -44.838  11.493  23.008  0.00  0.00     0.000 A 
ATOM     16  C   UNL d   1     -44.029  11.293  22.962  0.00  0.00     0.000 A 
ATOM     17  C   UNL d   1     -43.768  10.589  23.281  0.00  0.00     0.000 A 
ATOM     18  C   UNL d   1     -44.294  10.073  23.649  0.00  0.00     0.000 A 
ATOM     19  C   UNL d   1     -45.095  10.266  23.697  0.00  0.00     0.000 A 
ENDBRANCH  13  14
ENDBRANCH  12  13
ENDBRANCH  11  12
ENDBRANCH   1  11
TORSDOF 5
ENDMDL
MODEL 4
REMARK VINA RESULT:      -4.9      8.949      9.319
REMARK  5 active torsions:
REMARK  status: ('A' for Active; 'I' for Inactive)
REMARK    1  A    between atoms: S_9  and  C_3 
REMARK    2  A    between atoms: C_14  and  S_9 
REMARK    3  A    between atoms: C_10  and  C_11 
REMARK    4  A    between atoms: C_12  and  C_10 
REMARK    5  A    between atoms: C_11  and  C_14 
ROOT
ATOM      1  S   UNL d   1     -39.676  14.640  19.297  0.00  0.00    -0.046 SA
ENDROOT
BRANCH   1   2
ATOM      2  C   UNL d   1     -40.098  14.959  18.664  0.00  0.00     0.220 A 
ATOM      3  N   UNL d   1     -40.018  14.635  17.907  0.00  0.00    -0.149 N 
ATOM      4  C   UNL d   1     -40.439  14.949  17.263  0.00  0.00     0.303 A 
ATOM      5  N   UNL d   1     -39.517  13.991  17.784  0.00  0.00    -0.037 N 
ATOM      6  C   UNL d   1     -40.942  15.598  17.398  0.00  0.00     0.161 A 
ATOM      7  O   UNL d   1     -40.361  14.629  16.514  0.00  0.00    -0.263 OA
ATOM      8  C   UNL d   1     -41.364  15.917  16.765  0.00  0.00     0.028 C 
ATOM      9  N   UNL d   1     -41.021  15.922  18.155  0.00  0.00    -0.141 NA
ATOM     10  N   UNL d   1     -40.599  15.601  18.783  0.00  0.00    -0.121 NA
ENDBRANCH   1   2
BRANCH   1  11
ATOM     11  C   UNL d   1     -39.874  14.843  20.069  0.00  0.00     0.038 C 
BRANCH  11  12
ATOM     12  C   UNL d   1     -39.433  14.542  20.692  0.00  0.00     0.007 C 
BRANCH  12  13
ATOM     13  C   UNL d   1     -39.754  14.507  21.451  0.00  0.00     0.001 C 
BRANCH  13  14
ATOM     14  C   UNL d   1     -39.264  14.319  22.093  0.00  0.00     0.000 A 
ATOM     15  C   UNL d   1     -39.086  13.538  22.265  0.00  0.00     0.000 A 
ATOM     16  C   UNL d   1     -38.591  13.361  22.914  0.00  0.00     0.000 A 
ATOM     17  C   UNL d   1     -38.289  13.968  23.369  0.00  0.00     0.000 A 
ATOM     18  C   UNL d   1     -38.467  14.752  23.196  0.00  0.00     0.000 A 
ATOM     19  C   UNL d   1     -38.956  14.933  22.556  0.00  0.00     0.000 A 
ENDBRANCH  13  14
ENDBRANCH  12  13
ENDBRANCH  11  12
ENDBRANCH   1  11
TORSDOF 5
ENDMDL
MODEL 5
REMARK VINA RESULT:      -4.2      9.543     10.632
REMARK  5 active torsions:
REMARK  status: ('A' for Active; 'I' for Inactive)
REMARK    1  A    between atoms: S_9  and  C_3 
REMARK    2  A    between atoms: C_14  and  S_9 
REMARK    3  A    between atoms: C_10  and  C_11 
REMARK    4  A    between atoms: C_12  and  C_10 
REMARK    5  A    between atoms: C_11  and  C_14 
ROOT
ATOM      1  S   UNL d   1     -39.769  14.584  17.900  0.00  0.00    -0.046 SA
ENDROOT
BRANCH   1   2
ATOM      2  C   UNL d   1     -39.311  14.382  17.243  0.00  0.00     0.220 A 
ATOM      3  N   UNL d   1     -39.169  14.940  16.650  0.00  0.00    -0.149 N 
ATOM      4  C   UNL d   1     -38.710  14.747  15.984  0.00  0.00     0.303 A 
ATOM      5  N   UNL d   1     -39.485  15.700  16.713  0.00  0.00    -0.037 N 
ATOM      6  C   UNL d   1     -38.397  13.979  15.931  0.00  0.00     0.161 A 
ATOM      7  O   UNL d   1     -38.569  15.299  15.397  0.00  0.00    -0.263 OA
ATOM      8  C   UNL d   1     -37.940  13.776  15.275  0.00  0.00     0.028 C 
ATOM      9  N   UNL d   1     -38.539  13.421  16.524  0.00  0.00    -0.141 NA
ATOM     10  N   UNL d   1     -38.995  13.625  17.177  0.00  0.00    -0.121 NA
ENDBRANCH   1   2
BRANCH   1  11
ATOM     11  C   UNL d   1     -39.586  14.276  18.640  0.00  0.00     0.038 C 
BRANCH  11  12
ATOM     12  C   UNL d   1     -39.760  14.712  19.314  0.00  0.00     0.007 C 
BRANCH  12  13
ATOM     13  C   UNL d   1     -39.720  14.361  20.059  0.00  0.00     0.001 C 
BRANCH  13  14
ATOM     14  C   UNL d   1     -39.718  14.840  20.736  0.00  0.00     0.000 A 
ATOM     15  C   UNL d   1     -40.264  15.446  20.818  0.00  0.00     0.000 A 
ATOM     16  C   UNL d   1     -40.252  15.922  21.504  0.00  0.00     0.000 A 
ATOM     17  C   UNL d   1     -39.698  15.779  22.085  0.00  0.00     0.000 A 
ATOM     18  C   UNL d   1     -39.149  15.171  22.003  0.00  0.00     0.000 A 
ATOM     19  C   UNL d   1     -39.156  14.697  21.328  0.00  0.00     0.000 A 
ENDBRANCH  13  14
ENDBRANCH  12  13
ENDBRANCH  11  12
ENDBRANCH   1  11
TORSDOF 5
ENDMDL
MODEL 6
REMARK VINA RESULT:      -3.3      5.062      6.440
REMARK  5 active torsions:
REMARK  status: ('A' for Active; 'I' for Inactive)
REMARK    1  A    between atoms: S_9  and  C_3 
REMARK    2  A    between atoms: C_14  and  S_9 
REMARK    3  A    between atoms: C_10  and  C_11 
REMARK    4  A    between atoms: C_12  and  C_10 
REMARK    5  A    between atoms: C_11  and  C_14 
ROOT
ATOM      1  S   UNL d   1     -43.312  12.960  21.356  0.00  0.00    -0.046 SA
ENDROOT
BRANCH   1   2
ATOM      2  C   UNL d   1     -43.670  12.443  21.889  0.00  0.00     0.220 A 
ATOM      3  N   UNL d   1     -44.450  12.573  22.133  0.00  0.00    -0.149 N 
ATOM      4  C   UNL d   1     -44.820  12.057  22.669  0.00  0.00     0.303 A 
ATOM      5  N   UNL d   1     -44.871  13.220  21.843  0.00  0.00    -0.037 N 
ATOM      6  C   UNL d   1     -44.387  11.407  22.955  0.00  0.00     0.161 A 
ATOM      7  O   UNL d   1     -45.591  12.185  22.910  0.00  0.00    -0.263 OA
ATOM      8  C   UNL d   1     -44.745  10.889  23.488  0.00  0.00     0.028 C 
ATOM      9  N   UNL d   1     -43.608  11.277  22.711  0.00  0.00    -0.141 NA
ATOM     10  N   UNL d   1     -43.253  11.796  22.180  0.00  0.00    -0.121 NA
ENDBRANCH   1   2
BRANCH   1  11
ATOM     11  C   UNL d   1     -42.497  13.069  21.371  0.00  0.00     0.038 C 
BRANCH  11  12
ATOM     12  C   UNL d   1     -42.165  13.700  20.965  0.00  0.00     0.007 C 
BRANCH  12  13
ATOM     13  C   UNL d   1     -41.348  13.814  20.966  0.00  0.00     0.001 C 
BRANCH  13  14
ATOM     14  C   UNL d   1     -41.031  14.495  20.616  0.00  0.00     0.000 A 
ATOM     15  C   UNL d   1     -41.146  15.230  20.956  0.00  0.00     0.000 A 
ATOM     16  C   UNL d   1     -40.822  15.909  20.594  0.00  0.00     0.000 A 
ATOM     17  C   UNL d   1     -40.393  15.832  19.903  0.00  0.00     0.000 A 
ATOM     18  C   UNL d   1     -40.276  15.093  19.561  0.00  0.00     0.000 A 
ATOM     19  C   UNL d   1     -40.595  14.419  19.915  0.00  0.00     0.000 A 
ENDBRANCH  13  14
ENDBRANCH  12  13
ENDBRANCH  11  12
ENDBRANCH   1  11
TORSDOF 5
ENDMDL
