MODEL 1
REMARK VINA RESULT:      32.9      0.000      0.000
REMARK  3 active torsions:
REMARK  status: ('A' for Active; 'I' for Inactive)
REMARK    1  A    between atoms: S_15  and  C_3 
REMARK    2  A    between atoms: C_5  and  C_14 
REMARK    3  A    between atoms: C_14  and  S_15 
ROOT
ATOM      1  N   UNL d   1     -51.853  24.447  33.342  0.00  0.00    -0.263 N 
ATOM      2  C   UNL d   1     -51.670  23.631  33.368  0.00  0.00     0.202 A 
ATOM      3  C   UNL d   1     -51.131  24.847  33.336  0.00  0.00     0.202 A 
ATOM      4  N   UNL d   1     -50.835  23.582  33.376  0.00  0.00    -0.121 NA
ATOM      5  S   UNL d   1     -52.380  23.188  33.376  0.00  0.00    -0.047 SA
ATOM      6  N   UNL d   1     -50.509  24.287  33.357  0.00  0.00    -0.121 NA
ATOM      7  C   UNL d   1     -52.673  24.497  33.334  0.00  0.00     0.074 A 
ATOM      8  C   UNL d   1     -52.994  23.730  33.354  0.00  0.00     0.049 A 
ATOM      9  C   UNL d   1     -53.179  25.148  33.310  0.00  0.00     0.018 A 
ATOM     10  C   UNL d   1     -53.814  23.632  33.351  0.00  0.00     0.008 A 
ATOM     11  C   UNL d   1     -54.006  25.054  33.306  0.00  0.00     0.002 A 
ATOM     12  C   UNL d   1     -54.327  24.287  33.327  0.00  0.00     0.001 A 
ENDROOT
BRANCH   3  13
ATOM     13  S   UNL d   1     -51.017  25.725  33.310  0.00  0.00    -0.048 SA
BRANCH  13  14
ATOM     14  C   UNL d   1     -50.361  26.061  33.661  0.00  0.00     0.042 C 
BRANCH  14  15
ATOM     15  C   UNL d   1     -50.229  26.859  33.562  0.00  0.00     0.051 A 
ATOM     16  C   UNL d   1     -49.550  27.327  33.566  0.00  0.00     0.127 A 
ATOM     17  O   UNL d   1     -49.756  28.099  33.435  0.00  0.00    -0.211 OA
ATOM     18  C   UNL d   1     -48.736  27.031  33.693  0.00  0.00     0.029 C 
ATOM     19  N   UNL d   1     -50.534  28.129  33.349  0.00  0.00    -0.126 NA
ATOM     20  C   UNL d   1     -50.854  27.370  33.424  0.00  0.00     0.111 A 
ATOM     21  C   UNL d   1     -51.647  27.152  33.372  0.00  0.00     0.023 C 
ENDBRANCH  14  15
ENDBRANCH  13  14
ENDBRANCH   3  13
TORSDOF 3
ENDMDL
