MODEL 1
REMARK VINA RESULT:      60.1      0.000      0.000
REMARK  2 active torsions:
REMARK  status: ('A' for Active; 'I' for Inactive)
REMARK    1  A    between atoms: C_2  and  C_5 
REMARK       I    between atoms: C_5  and  N_9 
REMARK    2  A    between atoms: N_9  and  C_15 
ROOT
ATOM      1  C   UNL d   1     -50.527  26.514  33.625  0.00  0.00     0.304 C 
ATOM      2  N   UNL d   1     -49.805  26.657  33.988  0.00  0.00    -0.206 NA
ATOM      3  O   UNL d   1     -50.971  27.132  33.341  0.00  0.00    -0.263 OA
ENDROOT
BRANCH   1   4
ATOM      4  C   UNL d   1     -50.809  25.749  33.545  0.00  0.00     0.182 A 
ATOM      5  O   UNL d   1     -51.617  25.623  33.553  0.00  0.00    -0.298 OA
ATOM      6  C   UNL d   1     -51.906  24.849  33.472  0.00  0.00     0.123 A 
ATOM      7  C   UNL d   1     -52.720  24.713  33.479  0.00  0.00     0.027 A 
ATOM      8  C   UNL d   1     -51.386  24.231  33.387  0.00  0.00     0.123 A 
ATOM      9  C   UNL d   1     -52.998  23.945  33.399  0.00  0.00     0.002 A 
ATOM     10  C   UNL d   1     -52.490  23.325  33.314  0.00  0.00     0.002 A 
ATOM     11  C   UNL d   1     -51.676  23.461  33.307  0.00  0.00     0.027 A 
ATOM     12  O   UNL d   1     -50.572  24.366  33.380  0.00  0.00    -0.301 OA
ATOM     13  C   UNL d   1     -50.297  25.129  33.460  0.00  0.00     0.152 A 
ENDBRANCH   1   4
BRANCH   2  14
ATOM     14  C   UNL d   1     -49.471  27.410  34.096  0.00  0.00     0.085 A 
ATOM     15  C   UNL d   1     -49.504  28.032  33.543  0.00  0.00     0.021 A 
ATOM     16  C   UNL d   1     -49.160  28.745  33.705  0.00  0.00     0.021 A 
ATOM     17  C   UNL d   1     -48.779  28.871  34.397  0.00  0.00     0.088 A 
ATOM     18  C   UNL d   1     -48.739  28.262  34.954  0.00  0.00     0.050 A 
ATOM     19  N   UNL d   1     -48.377  29.503  34.741  0.00  0.00    -0.239 NA
ATOM     20  C   UNL d   1     -49.082  27.524  34.814  0.00  0.00     0.027 A 
ATOM     21  S   UNL d   1     -48.311  28.543  35.624  0.00  0.00    -0.066 SA
ATOM     22  C   UNL d   1     -48.107  29.319  35.444  0.00  0.00     0.111 A 
ATOM     23  C   UNL d   1     -47.674  29.813  35.962  0.00  0.00     0.028 C 
ENDBRANCH   2  14
TORSDOF 2
ENDMDL
MODEL 2
REMARK VINA RESULT:      62.3      1.818      5.281
REMARK  2 active torsions:
REMARK  status: ('A' for Active; 'I' for Inactive)
REMARK    1  A    between atoms: C_2  and  C_5 
REMARK       I    between atoms: C_5  and  N_9 
REMARK    2  A    between atoms: N_9  and  C_15 
ROOT
ATOM      1  C   UNL d   1     -50.033  26.557  34.139  0.00  0.00     0.304 C 
ATOM      2  N   UNL d   1     -50.251  26.176  33.446  0.00  0.00    -0.206 NA
ATOM      3  O   UNL d   1     -50.139  26.191  34.857  0.00  0.00    -0.263 OA
ENDROOT
BRANCH   1   4
ATOM      4  C   UNL d   1     -49.708  27.309  34.118  0.00  0.00     0.182 A 
ATOM      5  O   UNL d   1     -49.149  27.514  34.677  0.00  0.00    -0.298 OA
ATOM      6  C   UNL d   1     -48.818  28.275  34.658  0.00  0.00     0.123 A 
ATOM      7  C   UNL d   1     -48.252  28.489  35.219  0.00  0.00     0.027 A 
ATOM      8  C   UNL d   1     -49.053  28.803  34.087  0.00  0.00     0.123 A 
ATOM      9  C   UNL d   1     -47.930  29.244  35.194  0.00  0.00     0.002 A 
ATOM     10  C   UNL d   1     -48.156  29.775  34.631  0.00  0.00     0.002 A 
ATOM     11  C   UNL d   1     -48.722  29.560  34.070  0.00  0.00     0.027 A 
ATOM     12  O   UNL d   1     -49.618  28.588  33.526  0.00  0.00    -0.301 OA
ATOM     13  C   UNL d   1     -49.938  27.839  33.553  0.00  0.00     0.152 A 
ENDBRANCH   1   4
BRANCH   2  14
ATOM     14  C   UNL d   1     -50.584  25.415  33.409  0.00  0.00     0.085 A 
ATOM     15  C   UNL d   1     -50.152  24.705  33.372  0.00  0.00     0.021 A 
ATOM     16  C   UNL d   1     -50.533  23.993  33.338  0.00  0.00     0.021 A 
ATOM     17  C   UNL d   1     -51.332  23.954  33.339  0.00  0.00     0.088 A 
ATOM     18  C   UNL d   1     -51.772  24.651  33.375  0.00  0.00     0.050 A 
ATOM     19  N   UNL d   1     -51.891  23.348  33.311  0.00  0.00    -0.239 NA
ATOM     20  C   UNL d   1     -51.408  25.392  33.411  0.00  0.00     0.027 A 
ATOM     21  S   UNL d   1     -52.591  24.449  33.368  0.00  0.00    -0.066 SA
ATOM     22  C   UNL d   1     -52.614  23.628  33.327  0.00  0.00     0.111 A 
ATOM     23  C   UNL d   1     -53.325  23.188  33.308  0.00  0.00     0.028 C 
ENDBRANCH   2  14
TORSDOF 2
ENDMDL
