MODEL 1
REMARK VINA RESULT:      41.0      0.000      0.000
REMARK  6 active torsions:
REMARK  status: ('A' for Active; 'I' for Inactive)
REMARK    1  A    between atoms: C_6  and  N_2 
REMARK    2  A    between atoms: C_7  and  C_6 
REMARK    3  A    between atoms: C_8  and  C_7 
REMARK       I    between atoms: N_13  and  C_8 
REMARK    4  A    between atoms: C_10  and  C_17 
REMARK    5  A    between atoms: C_14  and  N_13 
REMARK    6  A    between atoms: C_17  and  C_14 
ROOT
ATOM      1  C   UNL d   1     -56.746 -99.245 -45.643  0.00  0.00     0.082 C 
ENDROOT
BRANCH   1   2
ATOM      2  C   UNL d   1     -57.113 -98.756 -45.094  0.00  0.00     0.088 C 
BRANCH   2   3
ATOM      3  N   UNL d   1     -57.931 -98.774 -45.002  0.00  0.00    -0.268 N 
ATOM      4  C   UNL d   1     -58.487 -98.777 -45.608  0.00  0.00     0.296 A 
ATOM      5  S   UNL d   1     -59.257 -98.798 -45.231  0.00  0.00    -0.025 SA
ATOM      6  O   UNL d   1     -58.322 -98.763 -46.416  0.00  0.00    -0.259 OA
ATOM      7  C   UNL d   1     -59.143 -98.807 -44.447  0.00  0.00     0.050 A 
ATOM      8  C   UNL d   1     -59.692 -98.827 -43.826  0.00  0.00     0.008 A 
ATOM      9  C   UNL d   1     -58.335 -98.793 -44.282  0.00  0.00     0.073 A 
ATOM     10  C   UNL d   1     -59.430 -98.832 -43.039  0.00  0.00     0.001 A 
ATOM     11  C   UNL d   1     -58.618 -98.818 -42.885  0.00  0.00     0.002 A 
ATOM     12  C   UNL d   1     -58.074 -98.798 -43.507  0.00  0.00     0.018 A 
ENDBRANCH   2   3
ENDBRANCH   1   2
BRANCH   1  13
ATOM     13  C   UNL d   1     -55.951 -99.447 -45.558  0.00  0.00     0.281 C 
ATOM     14  O   UNL d   1     -55.367 -98.945 -45.856  0.00  0.00    -0.265 OA
ATOM     15  N   UNL d   1     -55.735-100.144 -45.180  0.00  0.00    -0.206 NA
BRANCH  15  16
ATOM     16  C   UNL d   1     -54.944-100.342 -45.097  0.00  0.00     0.102 C 
BRANCH  16  17
ATOM     17  C   UNL d   1     -54.727-101.106 -44.886  0.00  0.00     0.021 C 
BRANCH  17  18
ATOM     18  C   UNL d   1     -54.728-101.338 -44.094  0.00  0.00     0.002 A 
ATOM     19  C   UNL d   1     -54.717-100.756 -43.496  0.00  0.00     0.000 A 
ATOM     20  C   UNL d   1     -54.717-100.992 -42.700  0.00  0.00     0.000 A 
ATOM     21  C   UNL d   1     -54.728-101.789 -42.503  0.00  0.00     0.000 A 
ATOM     22  C   UNL d   1     -54.739-102.362 -43.101  0.00  0.00     0.000 A 
ATOM     23  C   UNL d   1     -54.739-102.151 -43.896  0.00  0.00     0.000 A 
ENDBRANCH  17  18
ENDBRANCH  16  17
ENDBRANCH  15  16
ENDBRANCH   1  13
TORSDOF 6
ENDMDL
