MODEL 1
REMARK VINA RESULT:      34.6      0.000      0.000
REMARK  6 active torsions:
REMARK  status: ('A' for Active; 'I' for Inactive)
REMARK    1  A    between atoms: C_3  and  C_2 
REMARK    2  A    between atoms: O_5  and  C_3 
REMARK    3  A    between atoms: C_9  and  O_5 
REMARK    4  A    between atoms: C_6  and  C_9 
REMARK    5  A    between atoms: C_7  and  C_6 
REMARK    6  A    between atoms: O_19  and  C_16 
ROOT
ATOM      1  C   UNL d   1      13.424  12.362  -3.673  0.00  0.00     0.318 C 
ATOM      2  O   UNL d   1      13.611  11.779  -4.226  0.00  0.00    -0.257 OA
ENDROOT
BRANCH   1   3
ATOM      3  C   UNL d   1      13.519  12.216  -2.866  0.00  0.00     0.145 A 
ATOM      4  N   UNL d   1      14.262  12.348  -2.506  0.00  0.00    -0.240 NA
ATOM      5  C   UNL d   1      14.362  12.204  -1.701  0.00  0.00     0.082 A 
ATOM      6  C   UNL d   1      13.718  11.926  -1.242  0.00  0.00     0.018 A 
ATOM      7  C   UNL d   1      15.090  12.333  -1.346  0.00  0.00     0.019 A 
ATOM      8  C   UNL d   1      12.977  11.795  -1.599  0.00  0.00     0.003 A 
ATOM      9  C   UNL d   1      13.817  11.783  -0.438  0.00  0.00     0.002 A 
ATOM     10  C   UNL d   1      12.879  11.940  -2.410  0.00  0.00     0.025 A 
ATOM     11  C   UNL d   1      14.556  11.915  -0.089  0.00  0.00     0.000 A 
ATOM     12  C   UNL d   1      15.189  12.189  -0.541  0.00  0.00     0.002 A 
ENDBRANCH   1   3
BRANCH   1  13
ATOM     13  O   UNL d   1      13.138  13.098  -3.930  0.00  0.00    -0.266 OA
BRANCH  13  14
ATOM     14  C   UNL d   1      13.658  13.663  -4.227  0.00  0.00     0.168 C 
BRANCH  14  15
ATOM     15  C   UNL d   1      13.444  14.457  -4.248  0.00  0.00     0.220 C 
ATOM     16  O   UNL d   1      12.769  14.683  -4.664  0.00  0.00    -0.284 OA
BRANCH  15  17
ATOM     17  C   UNL d   1      13.902  15.022  -3.857  0.00  0.00     0.041 A 
ATOM     18  C   UNL d   1      14.243  15.637  -4.289  0.00  0.00     0.005 A 
ATOM     19  C   UNL d   1      14.699  16.199  -3.895  0.00  0.00     0.024 A 
ATOM     20  C   UNL d   1      14.812  16.143  -3.075  0.00  0.00     0.094 A 
ATOM     21  C   UNL d   1      14.466  15.524  -2.654  0.00  0.00     0.024 A 
ATOM     22  C   UNL d   1      14.010  14.962  -3.047  0.00  0.00     0.005 A 
BRANCH  20  23
ATOM     23  O   UNL d   1      15.265  16.702  -2.688  0.00  0.00    -0.328 OA
ATOM     24  C   UNL d   1      14.935  17.438  -2.492  0.00  0.00     0.181 C 
ENDBRANCH  20  23
ENDBRANCH  15  17
ENDBRANCH  14  15
ENDBRANCH  13  14
ENDBRANCH   1  13
TORSDOF 6
ENDMDL
