MODEL 1
REMARK VINA RESULT:     163.0      0.000      0.000
REMARK  4 active torsions:
REMARK  status: ('A' for Active; 'I' for Inactive)
REMARK    1  A    between atoms: N_3  and  S_1 
REMARK    2  A    between atoms: C_6  and  S_1 
REMARK       I    between atoms: C_2  and  N_4 
REMARK       I    between atoms: N_5  and  C_2 
REMARK    3  A    between atoms: C_14  and  N_5 
REMARK    4  A    between atoms: C_15  and  N_5 
ROOT
ATOM      1  C   UNL d   1      62.285  43.650  49.579  0.00  0.00     0.339 C 
ATOM      2  N   UNL d   1      61.565  45.922  50.247  0.00  0.00    -0.226 N 
ATOM      3  N   UNL d   1      62.041  44.419  49.805  0.00  0.00    -0.254 N 
ATOM      4  N   UNL d   1      62.199  43.011  50.084  0.00  0.00    -0.260 N 
ATOM      5  C   UNL d   1      61.902  45.801  49.494  0.00  0.00     0.111 A 
ATOM      6  C   UNL d   1      61.471  45.290  50.766  0.00  0.00     0.111 A 
ATOM      7  O   UNL d   1      62.619  43.541  48.829  0.00  0.00    -0.245 OA
ATOM      8  C   UNL d   1      61.709  44.541  50.545  0.00  0.00     0.104 A 
ATOM      9  C   UNL d   1      62.140  45.052  49.273  0.00  0.00     0.104 A 
ENDROOT
BRANCH   4  10
ATOM     10  C   UNL d   1      61.859  43.130  50.844  0.00  0.00     0.068 A 
ATOM     11  C   UNL d   1      61.054  43.349  50.898  0.00  0.00     0.018 A 
ATOM     12  C   UNL d   1      60.709  43.469  51.646  0.00  0.00     0.002 A 
ATOM     13  C   UNL d   1      61.173  43.367  52.337  0.00  0.00     0.000 A 
ATOM     14  C   UNL d   1      61.978  43.147  52.276  0.00  0.00     0.002 A 
ATOM     15  C   UNL d   1      62.322  43.028  51.519  0.00  0.00     0.018 A 
ENDBRANCH   4  10
BRANCH   4  16
ATOM     16  C   UNL d   1      62.439  42.271  49.853  0.00  0.00     0.068 A 
ATOM     17  C   UNL d   1      62.199  41.970  49.120  0.00  0.00     0.018 A 
ATOM     18  C   UNL d   1      62.439  41.225  48.884  0.00  0.00     0.002 A 
ATOM     19  C   UNL d   1      62.920  40.774  49.377  0.00  0.00     0.000 A 
ATOM     20  C   UNL d   1      63.158  41.075  50.106  0.00  0.00     0.002 A 
ATOM     21  C   UNL d   1      62.916  41.820  50.338  0.00  0.00     0.018 A 
ENDBRANCH   4  16
BRANCH   2  22
ATOM     22  S   UNL d   1      61.324  46.679  50.470  0.00  0.00     0.271 S 
ATOM     23  O   UNL d   1      61.651  47.340  50.102  0.00  0.00    -0.200 OA
ATOM     24  O   UNL d   1      60.758  46.776  51.059  0.00  0.00    -0.200 OA
BRANCH  22  25
ATOM     25  C   UNL d   1      61.084  47.436  50.692  0.00  0.00     0.104 A 
ATOM     26  C   UNL d   1      61.081  48.050  50.132  0.00  0.00     0.013 A 
ATOM     27  C   UNL d   1      60.841  48.807  50.355  0.00  0.00     0.001 A 
ATOM     28  C   UNL d   1      60.603  48.950  51.138  0.00  0.00     0.000 A 
ATOM     29  C   UNL d   1      60.609  48.336  51.689  0.00  0.00     0.001 A 
ATOM     30  C   UNL d   1      60.363  49.708  51.360  0.00  0.00     0.000 C 
ATOM     31  C   UNL d   1      60.848  47.583  51.468  0.00  0.00     0.013 A 
ENDBRANCH  22  25
ENDBRANCH   2  22
TORSDOF 4
ENDMDL
MODEL 2
REMARK VINA RESULT:     165.1      1.213      5.327
REMARK  4 active torsions:
REMARK  status: ('A' for Active; 'I' for Inactive)
REMARK    1  A    between atoms: N_3  and  S_1 
REMARK    2  A    between atoms: C_6  and  S_1 
REMARK       I    between atoms: C_2  and  N_4 
REMARK       I    between atoms: N_5  and  C_2 
REMARK    3  A    between atoms: C_14  and  N_5 
REMARK    4  A    between atoms: C_15  and  N_5 
ROOT
ATOM      1  C   UNL d   1      61.618  47.002  49.980  0.00  0.00     0.339 C 
ATOM      2  N   UNL d   1      62.186  44.593  49.967  0.00  0.00    -0.226 N 
ATOM      3  N   UNL d   1      61.810  46.186  49.975  0.00  0.00    -0.254 N 
ATOM      4  N   UNL d   1      61.092  47.311  50.526  0.00  0.00    -0.260 N 
ATOM      5  C   UNL d   1      62.534  45.101  49.405  0.00  0.00     0.111 A 
ATOM      6  C   UNL d   1      61.656  44.888  50.522  0.00  0.00     0.111 A 
ATOM      7  O   UNL d   1      61.969  47.498  49.418  0.00  0.00    -0.245 OA
ATOM      8  C   UNL d   1      61.468  45.683  50.527  0.00  0.00     0.104 A 
ATOM      9  C   UNL d   1      62.347  45.896  49.410  0.00  0.00     0.104 A 
ENDROOT
BRANCH   4  10
ATOM     10  C   UNL d   1      60.739  46.801  51.094  0.00  0.00     0.068 A 
ATOM     11  C   UNL d   1      60.034  46.399  50.894  0.00  0.00     0.018 A 
ATOM     12  C   UNL d   1      59.677  45.892  51.450  0.00  0.00     0.002 A 
ATOM     13  C   UNL d   1      60.030  45.790  52.203  0.00  0.00     0.000 A 
ATOM     14  C   UNL d   1      60.736  46.195  52.397  0.00  0.00     0.002 A 
ATOM     15  C   UNL d   1      61.092  46.706  51.833  0.00  0.00     0.018 A 
ENDBRANCH   4  10
BRANCH   4  16
ATOM     16  C   UNL d   1      60.914  48.104  50.520  0.00  0.00     0.068 A 
ATOM     17  C   UNL d   1      61.244  48.604  51.091  0.00  0.00     0.018 A 
ATOM     18  C   UNL d   1      61.067  49.402  51.089  0.00  0.00     0.002 A 
ATOM     19  C   UNL d   1      60.559  49.707  50.517  0.00  0.00     0.000 A 
ATOM     20  C   UNL d   1      60.232  49.208  49.950  0.00  0.00     0.002 A 
ATOM     21  C   UNL d   1      60.411  48.411  49.956  0.00  0.00     0.018 A 
ENDBRANCH   4  16
BRANCH   2  22
ATOM     22  S   UNL d   1      62.375  43.790  49.962  0.00  0.00     0.271 S 
ATOM     23  O   UNL d   1      63.146  43.548  49.804  0.00  0.00    -0.200 OA
ATOM     24  O   UNL d   1      61.794  43.228  50.117  0.00  0.00    -0.200 OA
BRANCH  22  25
ATOM     25  C   UNL d   1      62.564  42.987  49.958  0.00  0.00     0.104 A 
ATOM     26  C   UNL d   1      62.346  42.514  49.310  0.00  0.00     0.013 A 
ATOM     27  C   UNL d   1      62.535  41.711  49.306  0.00  0.00     0.001 A 
ATOM     28  C   UNL d   1      62.943  41.381  49.949  0.00  0.00     0.000 A 
ATOM     29  C   UNL d   1      63.157  41.856  50.590  0.00  0.00     0.001 A 
ATOM     30  C   UNL d   1      63.132  40.578  49.945  0.00  0.00     0.000 C 
ATOM     31  C   UNL d   1      62.969  42.654  50.594  0.00  0.00     0.013 A 
ENDBRANCH  22  25
ENDBRANCH   2  22
TORSDOF 4
ENDMDL
