MODEL 1
REMARK VINA RESULT:      35.7      0.000      0.000
REMARK  3 active torsions:
REMARK  status: ('A' for Active; 'I' for Inactive)
REMARK    1  A    between atoms: C_12  and  C_4 
REMARK    2  A    between atoms: O_13  and  C_7 
REMARK    3  A    between atoms: O_14  and  C_10 
ROOT
ATOM      1  C   UNL d   1     -51.296  26.316  33.484  0.00  0.00     0.084 A 
ATOM      2  C   UNL d   1     -52.090  26.529  33.535  0.00  0.00     0.201 A 
ATOM      3  C   UNL d   1     -52.669  25.942  33.515  0.00  0.00     0.067 A 
ATOM      4  C   UNL d   1     -52.454  25.145  33.443  0.00  0.00     0.103 A 
ATOM      5  C   UNL d   1     -51.080  25.518  33.412  0.00  0.00     0.107 A 
ATOM      6  O   UNL d   1     -51.660  24.935  33.391  0.00  0.00    -0.307 OA
ATOM      7  C   UNL d   1     -50.717  26.902  33.505  0.00  0.00     0.101 A 
ATOM      8  C   UNL d   1     -50.288  25.313  33.361  0.00  0.00     0.049 A 
ATOM      9  C   UNL d   1     -49.922  26.689  33.453  0.00  0.00     0.049 A 
ATOM     10  C   UNL d   1     -49.709  25.901  33.382  0.00  0.00     0.098 A 
ATOM     11  O   UNL d   1     -52.298  27.318  33.607  0.00  0.00    -0.286 OA
ENDROOT
BRANCH   4  12
ATOM     12  C   UNL d   1     -53.036  24.567  33.423  0.00  0.00     0.023 A 
ATOM     13  C   UNL d   1     -52.823  23.778  33.372  0.00  0.00     0.002 A 
ATOM     14  C   UNL d   1     -53.401  23.191  33.351  0.00  0.00     0.000 A 
ATOM     15  C   UNL d   1     -54.207  23.404  33.382  0.00  0.00     0.000 A 
ATOM     16  C   UNL d   1     -54.410  24.194  33.433  0.00  0.00     0.000 A 
ATOM     17  C   UNL d   1     -53.831  24.782  33.454  0.00  0.00     0.002 A 
ENDBRANCH   4  12
BRANCH   7  18
ATOM     18  O   UNL d   1     -50.929  27.690  33.576  0.00  0.00    -0.328 OA
ATOM     19  C   UNL d   1     -50.369  28.276  33.449  0.00  0.00     0.181 C 
ENDBRANCH   7  18
BRANCH  10  20
ATOM     20  O   UNL d   1     -48.913  25.687  33.330  0.00  0.00    -0.328 OA
ATOM     21  C   UNL d   1     -48.698  24.900  33.452  0.00  0.00     0.181 C 
ENDBRANCH  10  20
TORSDOF 3
ENDMDL
