MODEL 1
REMARK VINA RESULT:      33.1      0.000      0.000
REMARK  4 active torsions:
REMARK  status: ('A' for Active; 'I' for Inactive)
REMARK    1  A    between atoms: C_5  and  N_1 
REMARK    2  A    between atoms: C_7  and  C_5 
REMARK    3  A    between atoms: O_10  and  C_8 
REMARK    4  A    between atoms: C_14  and  O_10 
ROOT
ATOM      1  C   UNL d   1      59.001  49.668  51.067  0.00  0.00     0.087 C 
ENDROOT
BRANCH   1   2
ATOM      2  N   UNL d   1      59.819  49.632  51.090  0.00  0.00    -0.251 N 
ATOM      3  C   UNL d   1      60.360  49.592  50.455  0.00  0.00     0.378 A 
ATOM      4  O   UNL d   1      61.129  49.565  50.772  0.00  0.00    -0.258 OA
ATOM      5  O   UNL d   1      60.164  49.581  49.654  0.00  0.00    -0.237 OA
ATOM      6  C   UNL d   1      61.070  49.588  51.595  0.00  0.00     0.121 A 
ATOM      7  C   UNL d   1      60.265  49.629  51.792  0.00  0.00     0.092 A 
ATOM      8  C   UNL d   1      61.639  49.577  52.205  0.00  0.00     0.026 A 
ATOM      9  C   UNL d   1      60.032  49.659  52.589  0.00  0.00     0.020 A 
ATOM     10  C   UNL d   1      60.600  49.649  53.185  0.00  0.00     0.002 A 
ATOM     11  C   UNL d   1      61.405  49.608  52.993  0.00  0.00     0.002 A 
ENDBRANCH   1   2
BRANCH   1  12
ATOM     12  C   UNL d   1      58.602  49.671  50.348  0.00  0.00     0.041 A 
ATOM     13  C   UNL d   1      57.783  49.666  50.330  0.00  0.00     0.101 A 
ATOM     14  C   UNL d   1      57.385  49.669  49.612  0.00  0.00     0.025 A 
ATOM     15  C   UNL d   1      57.815  49.678  48.905  0.00  0.00     0.002 A 
ATOM     16  C   UNL d   1      58.641  49.684  48.918  0.00  0.00     0.000 A 
ATOM     17  C   UNL d   1      59.036  49.680  49.641  0.00  0.00     0.004 A 
BRANCH  13  18
ATOM     18  O   UNL d   1      57.354  49.657  51.037  0.00  0.00    -0.307 OA
BRANCH  18  19
ATOM     19  C   UNL d   1      56.620  49.276  51.069  0.00  0.00     0.100 C 
ATOM     20  C   UNL d   1      56.472  48.625  50.591  0.00  0.00     0.027 C 
ATOM     21  C   UNL d   1      56.037  49.552  51.583  0.00  0.00     0.027 C 
ENDBRANCH  18  19
ENDBRANCH  13  18
ENDBRANCH   1  12
TORSDOF 4
ENDMDL
