MODEL 1
REMARK VINA RESULT:      -9.2      0.000      0.000
REMARK  1 active torsions:
REMARK  status: ('A' for Active; 'I' for Inactive)
REMARK    1  A    between atoms: C_6  and  C_2 
ROOT
ATOM      1  N   UNL d   1      53.743  32.169  53.991  0.00  0.00    -0.220 NA
ATOM      2  C   UNL d   1      53.169  32.682  53.730  0.00  0.00     0.182 A 
ATOM      3  O   UNL d   1      52.634  32.334  53.283  0.00  0.00    -0.288 OA
ATOM      4  C   UNL d   1      53.526  31.443  53.667  0.00  0.00     0.106 A 
ATOM      5  C   UNL d   1      52.836  31.545  53.226  0.00  0.00     0.119 A 
ATOM      6  C   UNL d   1      53.887  30.702  53.729  0.00  0.00     0.021 A 
ATOM      7  C   UNL d   1      52.507  30.907  52.848  0.00  0.00     0.026 A 
ATOM      8  C   UNL d   1      52.843  30.151  52.890  0.00  0.00     0.002 A 
ATOM      9  C   UNL d   1      53.558  30.045  53.346  0.00  0.00     0.002 A 
ENDROOT
BRANCH   2  10
ATOM     10  C   UNL d   1      53.132  33.485  53.902  0.00  0.00     0.041 A 
ATOM     11  C   UNL d   1      53.341  33.744  54.648  0.00  0.00     0.005 A 
ATOM     12  C   UNL d   1      53.302  34.565  54.819  0.00  0.00     0.021 A 
ATOM     13  C   UNL d   1      53.059  35.098  54.251  0.00  0.00     0.103 A 
ATOM     14  C   UNL d   1      52.846  34.824  53.487  0.00  0.00     0.021 A 
ATOM     15  N   UNL d   1      53.035  35.881  54.456  0.00  0.00    -0.148 N 
ATOM     16  C   UNL d   1      52.888  34.014  53.328  0.00  0.00     0.005 A 
ENDBRANCH   2  10
TORSDOF 1
ENDMDL
MODEL 2
REMARK VINA RESULT:      -9.2      1.927      2.884
REMARK  1 active torsions:
REMARK  status: ('A' for Active; 'I' for Inactive)
REMARK    1  A    between atoms: C_6  and  C_2 
ROOT
ATOM      1  N   UNL d   1      52.733  32.988  53.654  0.00  0.00    -0.220 NA
ATOM      2  C   UNL d   1      52.381  33.718  53.596  0.00  0.00     0.182 A 
ATOM      3  O   UNL d   1      52.740  34.260  54.026  0.00  0.00    -0.288 OA
ATOM      4  C   UNL d   1      53.364  33.109  54.171  0.00  0.00     0.106 A 
ATOM      5  C   UNL d   1      53.368  33.901  54.403  0.00  0.00     0.119 A 
ATOM      6  C   UNL d   1      53.931  32.579  54.452  0.00  0.00     0.021 A 
ATOM      7  C   UNL d   1      53.940  34.163  54.915  0.00  0.00     0.026 A 
ATOM      8  C   UNL d   1      54.524  33.657  55.216  0.00  0.00     0.002 A 
ATOM      9  C   UNL d   1      54.519  32.837  54.976  0.00  0.00     0.002 A 
ENDROOT
BRANCH   2  10
ATOM     10  C   UNL d   1      51.719  33.895  53.141  0.00  0.00     0.041 A 
ATOM     11  C   UNL d   1      50.978  33.843  53.479  0.00  0.00     0.005 A 
ATOM     12  C   UNL d   1      50.305  34.025  53.011  0.00  0.00     0.021 A 
ATOM     13  C   UNL d   1      50.387  34.250  52.231  0.00  0.00     0.103 A 
ATOM     14  C   UNL d   1      51.153  34.301  51.892  0.00  0.00     0.021 A 
ATOM     15  N   UNL d   1      49.714  34.417  51.814  0.00  0.00    -0.148 N 
ATOM     16  C   UNL d   1      51.810  34.120  52.361  0.00  0.00     0.005 A 
ENDBRANCH   2  10
TORSDOF 1
ENDMDL
MODEL 3
REMARK VINA RESULT:      -9.0      0.961      3.823
REMARK  1 active torsions:
REMARK  status: ('A' for Active; 'I' for Inactive)
REMARK    1  A    between atoms: C_6  and  C_2 
ROOT
ATOM      1  N   UNL d   1      52.842  33.277  53.138  0.00  0.00    -0.220 NA
ATOM      2  C   UNL d   1      53.085  32.707  53.663  0.00  0.00     0.182 A 
ATOM      3  O   UNL d   1      53.307  33.004  54.349  0.00  0.00    -0.288 OA
ATOM      4  C   UNL d   1      52.928  33.984  53.554  0.00  0.00     0.106 A 
ATOM      5  C   UNL d   1      53.217  33.814  54.308  0.00  0.00     0.119 A 
ATOM      6  C   UNL d   1      52.772  34.761  53.322  0.00  0.00     0.021 A 
ATOM      7  C   UNL d   1      53.351  34.421  54.829  0.00  0.00     0.026 A 
ATOM      8  C   UNL d   1      53.205  35.212  54.628  0.00  0.00     0.002 A 
ATOM      9  C   UNL d   1      52.905  35.388  53.848  0.00  0.00     0.002 A 
ENDROOT
BRANCH   2  10
ATOM     10  C   UNL d   1      53.106  31.898  53.515  0.00  0.00     0.041 A 
ATOM     11  C   UNL d   1      52.543  31.568  53.025  0.00  0.00     0.005 A 
ATOM     12  C   UNL d   1      52.568  30.742  52.877  0.00  0.00     0.021 A 
ATOM     13  C   UNL d   1      53.144  30.275  53.216  0.00  0.00     0.103 A 
ATOM     14  C   UNL d   1      53.719  30.622  53.719  0.00  0.00     0.021 A 
ATOM     15  N   UNL d   1      53.133  29.482  53.048  0.00  0.00    -0.148 N 
ATOM     16  C   UNL d   1      53.686  31.437  53.859  0.00  0.00     0.005 A 
ENDBRANCH   2  10
TORSDOF 1
ENDMDL
MODEL 4
REMARK VINA RESULT:      -8.6      1.926      2.982
REMARK  1 active torsions:
REMARK  status: ('A' for Active; 'I' for Inactive)
REMARK    1  A    between atoms: C_6  and  C_2 
ROOT
ATOM      1  N   UNL d   1      52.597  34.103  52.853  0.00  0.00    -0.220 NA
ATOM      2  C   UNL d   1      52.601  33.860  53.629  0.00  0.00     0.182 A 
ATOM      3  O   UNL d   1      51.886  33.717  53.903  0.00  0.00    -0.288 OA
ATOM      4  C   UNL d   1      51.799  34.104  52.647  0.00  0.00     0.106 A 
ATOM      5  C   UNL d   1      51.356  33.864  53.300  0.00  0.00     0.119 A 
ATOM      6  C   UNL d   1      51.434  34.299  51.932  0.00  0.00     0.021 A 
ATOM      7  C   UNL d   1      50.548  33.818  53.238  0.00  0.00     0.026 A 
ATOM      8  C   UNL d   1      50.151  34.007  52.536  0.00  0.00     0.002 A 
ATOM      9  C   UNL d   1      50.609  34.256  51.860  0.00  0.00     0.002 A 
ENDROOT
BRANCH   2  10
ATOM     10  C   UNL d   1      53.270  33.767  54.097  0.00  0.00     0.041 A 
ATOM     11  C   UNL d   1      53.452  34.339  54.650  0.00  0.00     0.005 A 
ATOM     12  C   UNL d   1      54.137  34.239  55.127  0.00  0.00     0.021 A 
ATOM     13  C   UNL d   1      54.614  33.583  55.040  0.00  0.00     0.103 A 
ATOM     14  C   UNL d   1      54.419  33.000  54.468  0.00  0.00     0.021 A 
ATOM     15  N   UNL d   1      55.265  33.525  55.518  0.00  0.00    -0.148 N 
ATOM     16  C   UNL d   1      53.743  33.107  54.004  0.00  0.00     0.005 A 
ENDBRANCH   2  10
TORSDOF 1
ENDMDL
