MODEL 1
REMARK VINA RESULT:      -7.3      0.000      0.000
REMARK  4 active torsions:
REMARK  status: ('A' for Active; 'I' for Inactive)
REMARK    1  A    between atoms: S_16  and  C_7 
REMARK    2  A    between atoms: C_10  and  N_11 
REMARK       I    between atoms: N_11  and  C_14 
REMARK    3  A    between atoms: C_14  and  C_20 
REMARK    4  A    between atoms: C_20  and  S_16 
ROOT
ATOM      1  N   UNL d   1      53.005  33.741  53.893  0.00  0.00    -0.167 N 
ATOM      2  C   UNL d   1      52.917  33.019  53.515  0.00  0.00     0.220 A 
ATOM      3  C   UNL d   1      53.611  33.860  54.447  0.00  0.00     0.301 A 
ATOM      4  S   UNL d   1      52.271  33.082  53.003  0.00  0.00    -0.019 SA
ATOM      5  N   UNL d   1      52.424  34.251  53.625  0.00  0.00    -0.147 NA
ATOM      6  N   UNL d   1      53.433  32.399  53.682  0.00  0.00    -0.121 NA
ATOM      7  C   UNL d   1      51.969  33.842  53.074  0.00  0.00     0.164 A 
ATOM      8  N   UNL d   1      54.037  32.503  54.229  0.00  0.00    -0.141 NA
ATOM      9  C   UNL d   1      54.126  33.229  54.609  0.00  0.00     0.161 A 
ATOM     10  O   UNL d   1      53.699  34.579  54.824  0.00  0.00    -0.263 OA
ATOM     11  C   UNL d   1      54.730  33.337  55.158  0.00  0.00     0.028 C 
ENDROOT
BRANCH   7  12
ATOM     12  S   UNL d   1      51.321  34.143  52.661  0.00  0.00    -0.054 SA
BRANCH  12  13
ATOM     13  C   UNL d   1      50.595  34.228  53.034  0.00  0.00     0.100 C 
BRANCH  13  14
ATOM     14  C   UNL d   1      49.963  34.574  52.626  0.00  0.00     0.288 C 
ATOM     15  N   UNL d   1      49.332  34.906  53.046  0.00  0.00    -0.182 NA
ATOM     16  O   UNL d   1      49.964  34.586  51.801  0.00  0.00    -0.265 OA
BRANCH  15  17
ATOM     17  C   UNL d   1      48.703  35.249  52.638  0.00  0.00     0.197 A 
ATOM     18  N   UNL d   1      48.366  34.972  51.931  0.00  0.00    -0.219 NA
ATOM     19  C   UNL d   1      47.757  35.481  51.723  0.00  0.00     0.108 A 
ATOM     20  C   UNL d   1      47.713  36.078  52.300  0.00  0.00     0.059 A 
ATOM     21  S   UNL d   1      48.296  35.929  52.857  0.00  0.00    -0.046 SA
ENDBRANCH  15  17
ENDBRANCH  13  14
ENDBRANCH  12  13
ENDBRANCH   7  12
TORSDOF 4
ENDMDL
MODEL 2
REMARK VINA RESULT:      -7.1      1.201      1.341
REMARK  4 active torsions:
REMARK  status: ('A' for Active; 'I' for Inactive)
REMARK    1  A    between atoms: S_16  and  C_7 
REMARK    2  A    between atoms: C_10  and  N_11 
REMARK       I    between atoms: N_11  and  C_14 
REMARK    3  A    between atoms: C_14  and  C_20 
REMARK    4  A    between atoms: C_20  and  S_16 
ROOT
ATOM      1  N   UNL d   1      52.439  33.063  53.052  0.00  0.00    -0.167 N 
ATOM      2  C   UNL d   1      52.628  33.726  53.496  0.00  0.00     0.220 A 
ATOM      3  C   UNL d   1      52.907  32.380  53.088  0.00  0.00     0.301 A 
ATOM      4  S   UNL d   1      52.059  34.304  53.338  0.00  0.00    -0.019 SA
ATOM      5  N   UNL d   1      51.761  33.220  52.621  0.00  0.00    -0.147 NA
ATOM      6  N   UNL d   1      53.290  33.720  53.985  0.00  0.00    -0.121 NA
ATOM      7  C   UNL d   1      51.526  33.989  52.798  0.00  0.00     0.164 A 
ATOM      8  N   UNL d   1      53.764  33.051  54.030  0.00  0.00    -0.141 NA
ATOM      9  C   UNL d   1      53.573  32.383  53.584  0.00  0.00     0.161 A 
ATOM     10  O   UNL d   1      52.719  31.719  52.646  0.00  0.00    -0.263 OA
ATOM     11  C   UNL d   1      54.045  31.710  53.626  0.00  0.00     0.028 C 
ENDROOT
BRANCH   7  12
ATOM     12  S   UNL d   1      50.868  34.378  52.488  0.00  0.00    -0.054 SA
BRANCH  12  13
ATOM     13  C   UNL d   1      50.158  34.386  52.898  0.00  0.00     0.100 C 
BRANCH  13  14
ATOM     14  C   UNL d   1      49.503  34.777  52.577  0.00  0.00     0.288 C 
ATOM     15  N   UNL d   1      48.990  35.199  53.072  0.00  0.00    -0.182 NA
ATOM     16  O   UNL d   1      49.363  34.746  51.765  0.00  0.00    -0.265 OA
BRANCH  15  17
ATOM     17  C   UNL d   1      48.338  35.588  52.751  0.00  0.00     0.197 A 
ATOM     18  N   UNL d   1      47.919  35.364  52.070  0.00  0.00    -0.219 NA
ATOM     19  C   UNL d   1      47.314  35.907  51.954  0.00  0.00     0.108 A 
ATOM     20  C   UNL d   1      47.356  36.472  52.563  0.00  0.00     0.059 A 
ATOM     21  S   UNL d   1      47.986  36.270  53.047  0.00  0.00    -0.046 SA
ENDBRANCH  15  17
ENDBRANCH  13  14
ENDBRANCH  12  13
ENDBRANCH   7  12
TORSDOF 4
ENDMDL
MODEL 3
REMARK VINA RESULT:      -6.7      1.213      5.248
REMARK  4 active torsions:
REMARK  status: ('A' for Active; 'I' for Inactive)
REMARK    1  A    between atoms: S_16  and  C_7 
REMARK    2  A    between atoms: C_10  and  N_11 
REMARK       I    between atoms: N_11  and  C_14 
REMARK    3  A    between atoms: C_14  and  C_20 
REMARK    4  A    between atoms: C_20  and  S_16 
ROOT
ATOM      1  N   UNL d   1      49.040  35.206  52.732  0.00  0.00    -0.167 N 
ATOM      2  C   UNL d   1      49.022  34.829  52.004  0.00  0.00     0.220 A 
ATOM      3  C   UNL d   1      48.479  35.785  52.924  0.00  0.00     0.301 A 
ATOM      4  S   UNL d   1      49.648  34.289  51.988  0.00  0.00    -0.019 SA
ATOM      5  N   UNL d   1      49.666  34.909  53.167  0.00  0.00    -0.147 NA
ATOM      6  N   UNL d   1      48.443  35.023  51.452  0.00  0.00    -0.121 NA
ATOM      7  C   UNL d   1      50.043  34.341  52.706  0.00  0.00     0.164 A 
ATOM      8  N   UNL d   1      47.881  35.595  51.629  0.00  0.00    -0.141 NA
ATOM      9  C   UNL d   1      47.899  35.974  52.361  0.00  0.00     0.161 A 
ATOM     10  O   UNL d   1      48.496  36.161  53.649  0.00  0.00    -0.263 OA
ATOM     11  C   UNL d   1      47.337  36.548  52.543  0.00  0.00     0.028 C 
ENDROOT
BRANCH   7  12
ATOM     12  S   UNL d   1      50.704  33.899  52.925  0.00  0.00    -0.054 SA
BRANCH  12  13
ATOM     13  C   UNL d   1      51.432  34.263  53.032  0.00  0.00     0.100 C 
BRANCH  13  14
ATOM     14  C   UNL d   1      52.065  33.830  53.341  0.00  0.00     0.288 C 
ATOM     15  N   UNL d   1      52.766  34.217  53.551  0.00  0.00    -0.182 NA
ATOM     16  O   UNL d   1      51.996  33.014  53.439  0.00  0.00    -0.265 OA
BRANCH  15  17
ATOM     17  C   UNL d   1      53.397  33.784  53.860  0.00  0.00     0.197 A 
ATOM     18  N   UNL d   1      53.893  33.270  53.436  0.00  0.00    -0.219 NA
ATOM     19  C   UNL d   1      54.444  32.959  53.960  0.00  0.00     0.108 A 
ATOM     20  C   UNL d   1      54.291  33.279  54.712  0.00  0.00     0.059 A 
ATOM     21  S   UNL d   1      53.648  33.783  54.643  0.00  0.00    -0.046 SA
ENDBRANCH  15  17
ENDBRANCH  13  14
ENDBRANCH  12  13
ENDBRANCH   7  12
TORSDOF 4
ENDMDL
MODEL 4
REMARK VINA RESULT:      -6.3      1.254      5.379
REMARK  4 active torsions:
REMARK  status: ('A' for Active; 'I' for Inactive)
REMARK    1  A    between atoms: S_16  and  C_7 
REMARK    2  A    between atoms: C_10  and  N_11 
REMARK       I    between atoms: N_11  and  C_14 
REMARK    3  A    between atoms: C_14  and  C_20 
REMARK    4  A    between atoms: C_20  and  S_16 
ROOT
ATOM      1  N   UNL d   1      48.926  34.930  52.088  0.00  0.00    -0.167 N 
ATOM      2  C   UNL d   1      49.114  35.233  52.827  0.00  0.00     0.220 A 
ATOM      3  C   UNL d   1      48.213  35.133  51.715  0.00  0.00     0.301 A 
ATOM      4  S   UNL d   1      49.851  34.927  53.041  0.00  0.00    -0.019 SA
ATOM      5  N   UNL d   1      49.534  34.442  51.841  0.00  0.00    -0.147 NA
ATOM      6  N   UNL d   1      48.594  35.745  53.208  0.00  0.00    -0.121 NA
ATOM      7  C   UNL d   1      50.108  34.440  52.432  0.00  0.00     0.164 A 
ATOM      8  N   UNL d   1      47.885  35.954  52.850  0.00  0.00    -0.141 NA
ATOM      9  C   UNL d   1      47.696  35.650  52.107  0.00  0.00     0.161 A 
ATOM     10  O   UNL d   1      48.026  34.832  50.979  0.00  0.00    -0.263 OA
ATOM     11  C   UNL d   1      46.986  35.857  51.745  0.00  0.00     0.028 C 
ENDROOT
BRANCH   7  12
ATOM     12  S   UNL d   1      50.819  34.022  52.416  0.00  0.00    -0.054 SA
BRANCH  12  13
ATOM     13  C   UNL d   1      51.159  33.755  53.113  0.00  0.00     0.100 C 
BRANCH  13  14
ATOM     14  C   UNL d   1      51.892  33.371  53.091  0.00  0.00     0.288 C 
ATOM     15  N   UNL d   1      52.343  33.301  53.782  0.00  0.00    -0.182 NA
ATOM     16  O   UNL d   1      52.171  33.059  52.380  0.00  0.00    -0.265 OA
BRANCH  15  17
ATOM     17  C   UNL d   1      53.073  32.918  53.757  0.00  0.00     0.197 A 
ATOM     18  N   UNL d   1      53.196  32.099  53.699  0.00  0.00    -0.219 NA
ATOM     19  C   UNL d   1      54.006  31.963  53.693  0.00  0.00     0.108 A 
ATOM     20  C   UNL d   1      54.389  32.699  53.748  0.00  0.00     0.059 A 
ATOM     21  S   UNL d   1      53.811  33.279  53.788  0.00  0.00    -0.046 SA
ENDBRANCH  15  17
ENDBRANCH  13  14
ENDBRANCH  12  13
ENDBRANCH   7  12
TORSDOF 4
ENDMDL
MODEL 5
REMARK VINA RESULT:      -5.5      3.001      5.130
REMARK  4 active torsions:
REMARK  status: ('A' for Active; 'I' for Inactive)
REMARK    1  A    between atoms: S_16  and  C_7 
REMARK    2  A    between atoms: C_10  and  N_11 
REMARK       I    between atoms: N_11  and  C_14 
REMARK    3  A    between atoms: C_14  and  C_20 
REMARK    4  A    between atoms: C_20  and  S_16 
ROOT
ATOM      1  N   UNL d   1      53.289  34.022  54.060  0.00  0.00    -0.167 N 
ATOM      2  C   UNL d   1      52.777  33.993  53.420  0.00  0.00     0.220 A 
ATOM      3  C   UNL d   1      53.349  34.706  54.525  0.00  0.00     0.301 A 
ATOM      4  S   UNL d   1      52.847  33.244  53.077  0.00  0.00    -0.019 SA
ATOM      5  N   UNL d   1      53.676  33.303  54.120  0.00  0.00    -0.147 NA
ATOM      6  N   UNL d   1      52.314  34.647  53.231  0.00  0.00    -0.121 NA
ATOM      7  C   UNL d   1      53.402  32.821  53.511  0.00  0.00     0.164 A 
ATOM      8  N   UNL d   1      52.363  35.331  53.683  0.00  0.00    -0.141 NA
ATOM      9  C   UNL d   1      52.879  35.360  54.327  0.00  0.00     0.161 A 
ATOM     10  O   UNL d   1      53.859  34.735  55.162  0.00  0.00    -0.263 OA
ATOM     11  C   UNL d   1      52.932  36.044  54.782  0.00  0.00     0.028 C 
ENDROOT
BRANCH   7  12
ATOM     12  S   UNL d   1      53.643  32.047  53.360  0.00  0.00    -0.054 SA
BRANCH  12  13
ATOM     13  C   UNL d   1      53.095  31.436  53.351  0.00  0.00     0.100 C 
BRANCH  13  14
ATOM     14  C   UNL d   1      53.327  30.674  53.577  0.00  0.00     0.288 C 
ATOM     15  N   UNL d   1      52.873  30.250  54.125  0.00  0.00    -0.182 NA
ATOM     16  O   UNL d   1      54.009  30.340  53.256  0.00  0.00    -0.265 OA
BRANCH  15  17
ATOM     17  C   UNL d   1      53.105  29.491  54.349  0.00  0.00     0.197 A 
ATOM     18  N   UNL d   1      53.116  28.818  53.864  0.00  0.00    -0.219 NA
ATOM     19  C   UNL d   1      53.384  28.185  54.313  0.00  0.00     0.108 A 
ATOM     20  C   UNL d   1      53.540  28.464  55.081  0.00  0.00     0.059 A 
ATOM     21  S   UNL d   1      53.367  29.265  55.095  0.00  0.00    -0.046 SA
ENDBRANCH  15  17
ENDBRANCH  13  14
ENDBRANCH  12  13
ENDBRANCH   7  12
TORSDOF 4
ENDMDL
MODEL 6
REMARK VINA RESULT:      -5.5     10.104     10.951
REMARK  4 active torsions:
REMARK  status: ('A' for Active; 'I' for Inactive)
REMARK    1  A    between atoms: S_16  and  C_7 
REMARK    2  A    between atoms: C_10  and  N_11 
REMARK       I    between atoms: N_11  and  C_14 
REMARK    3  A    between atoms: C_14  and  C_20 
REMARK    4  A    between atoms: C_20  and  S_16 
ROOT
ATOM      1  N   UNL d   1      44.763  29.056  57.357  0.00  0.00    -0.167 N 
ATOM      2  C   UNL d   1      45.055  28.925  58.111  0.00  0.00     0.220 A 
ATOM      3  C   UNL d   1      44.647  29.826  57.073  0.00  0.00     0.301 A 
ATOM      4  S   UNL d   1      45.104  28.107  58.222  0.00  0.00    -0.019 SA
ATOM      5  N   UNL d   1      44.629  28.333  56.997  0.00  0.00    -0.147 NA
ATOM      6  N   UNL d   1      45.239  29.562  58.599  0.00  0.00    -0.121 NA
ATOM      7  C   UNL d   1      44.841  27.745  57.534  0.00  0.00     0.164 A 
ATOM      8  N   UNL d   1      45.130  30.331  58.332  0.00  0.00    -0.141 NA
ATOM      9  C   UNL d   1      44.835  30.462  57.572  0.00  0.00     0.161 A 
ATOM     10  O   UNL d   1      44.356  29.957  56.321  0.00  0.00    -0.263 OA
ATOM     11  C   UNL d   1      44.724  31.231  57.300  0.00  0.00     0.028 C 
ENDROOT
BRANCH   7  12
ATOM     12  S   UNL d   1      44.797  26.931  57.404  0.00  0.00    -0.054 SA
BRANCH  12  13
ATOM     13  C   UNL d   1      45.023  26.613  56.682  0.00  0.00     0.100 C 
BRANCH  13  14
ATOM     14  C   UNL d   1      44.877  25.813  56.524  0.00  0.00     0.288 C 
ATOM     15  N   UNL d   1      45.065  25.499  55.782  0.00  0.00    -0.182 NA
ATOM     16  O   UNL d   1      44.545  25.333  57.107  0.00  0.00    -0.265 OA
BRANCH  15  17
ATOM     17  C   UNL d   1      44.920  24.702  55.625  0.00  0.00     0.197 A 
ATOM     18  N   UNL d   1      45.356  24.057  55.915  0.00  0.00    -0.219 NA
ATOM     19  C   UNL d   1      45.019  23.369  55.621  0.00  0.00     0.108 A 
ATOM     20  C   UNL d   1      44.370  23.585  55.146  0.00  0.00     0.059 A 
ATOM     21  S   UNL d   1      44.317  24.402  55.154  0.00  0.00    -0.046 SA
ENDBRANCH  15  17
ENDBRANCH  13  14
ENDBRANCH  12  13
ENDBRANCH   7  12
TORSDOF 4
ENDMDL
MODEL 7
REMARK VINA RESULT:      -5.4     10.600     11.325
REMARK  4 active torsions:
REMARK  status: ('A' for Active; 'I' for Inactive)
REMARK    1  A    between atoms: S_16  and  C_7 
REMARK    2  A    between atoms: C_10  and  N_11 
REMARK       I    between atoms: N_11  and  C_14 
REMARK    3  A    between atoms: C_14  and  C_20 
REMARK    4  A    between atoms: C_20  and  S_16 
ROOT
ATOM      1  N   UNL d   1      44.373  30.420  61.512  0.00  0.00    -0.167 N 
ATOM      2  C   UNL d   1      44.385  31.083  61.029  0.00  0.00     0.220 A 
ATOM      3  C   UNL d   1      44.389  30.495  62.337  0.00  0.00     0.301 A 
ATOM      4  S   UNL d   1      44.365  30.822  60.245  0.00  0.00    -0.019 SA
ATOM      5  N   UNL d   1      44.345  29.752  61.040  0.00  0.00    -0.147 NA
ATOM      6  N   UNL d   1      44.414  31.835  61.362  0.00  0.00    -0.121 NA
ATOM      7  C   UNL d   1      44.340  30.001  60.255  0.00  0.00     0.164 A 
ATOM      8  N   UNL d   1      44.430  31.924  62.179  0.00  0.00    -0.141 NA
ATOM      9  C   UNL d   1      44.417  31.257  62.664  0.00  0.00     0.161 A 
ATOM     10  O   UNL d   1      44.377  29.834  62.818  0.00  0.00    -0.263 OA
ATOM     11  C   UNL d   1      44.433  31.342  63.483  0.00  0.00     0.028 C 
ENDROOT
BRANCH   7  12
ATOM     12  S   UNL d   1      44.314  29.513  59.591  0.00  0.00    -0.054 SA
BRANCH  12  13
ATOM     13  C   UNL d   1      44.987  29.113  59.342  0.00  0.00     0.100 C 
BRANCH  13  14
ATOM     14  C   UNL d   1      44.952  28.631  58.671  0.00  0.00     0.288 C 
ATOM     15  N   UNL d   1      45.242  27.856  58.705  0.00  0.00    -0.182 NA
ATOM     16  O   UNL d   1      44.628  28.923  57.971  0.00  0.00    -0.265 OA
BRANCH  15  17
ATOM     17  C   UNL d   1      45.206  27.376  58.035  0.00  0.00     0.197 A 
ATOM     18  N   UNL d   1      45.720  27.405  57.383  0.00  0.00    -0.219 NA
ATOM     19  C   UNL d   1      45.482  26.830  56.846  0.00  0.00     0.108 A 
ATOM     20  C   UNL d   1      44.818  26.442  57.164  0.00  0.00     0.059 A 
ATOM     21  S   UNL d   1      44.656  26.781  57.892  0.00  0.00    -0.046 SA
ENDBRANCH  15  17
ENDBRANCH  13  14
ENDBRANCH  12  13
ENDBRANCH   7  12
TORSDOF 4
ENDMDL
MODEL 8
REMARK VINA RESULT:      -5.2     10.308     10.983
REMARK  4 active torsions:
REMARK  status: ('A' for Active; 'I' for Inactive)
REMARK    1  A    between atoms: S_16  and  C_7 
REMARK    2  A    between atoms: C_10  and  N_11 
REMARK       I    between atoms: N_11  and  C_14 
REMARK    3  A    between atoms: C_14  and  C_20 
REMARK    4  A    between atoms: C_20  and  S_16 
ROOT
ATOM      1  N   UNL d   1      44.750  29.539  59.849  0.00  0.00    -0.167 N 
ATOM      2  C   UNL d   1      44.953  30.158  59.350  0.00  0.00     0.220 A 
ATOM      3  C   UNL d   1      44.557  29.680  60.643  0.00  0.00     0.301 A 
ATOM      4  S   UNL d   1      45.111  29.836  58.605  0.00  0.00    -0.019 SA
ATOM      5  N   UNL d   1      44.779  28.839  59.426  0.00  0.00    -0.147 NA
ATOM      6  N   UNL d   1      44.968  30.930  59.634  0.00  0.00    -0.121 NA
ATOM      7  C   UNL d   1      45.003  29.023  58.655  0.00  0.00     0.164 A 
ATOM      8  N   UNL d   1      44.779  31.084  60.418  0.00  0.00    -0.141 NA
ATOM      9  C   UNL d   1      44.575  30.462  60.921  0.00  0.00     0.161 A 
ATOM     10  O   UNL d   1      44.355  29.064  61.140  0.00  0.00    -0.263 OA
ATOM     11  C   UNL d   1      44.386  30.612  61.707  0.00  0.00     0.028 C 
ENDROOT
BRANCH   7  12
ATOM     12  S   UNL d   1      45.103  28.485  58.038  0.00  0.00    -0.054 SA
BRANCH  12  13
ATOM     13  C   UNL d   1      45.044  27.678  58.176  0.00  0.00     0.100 C 
BRANCH  13  14
ATOM     14  C   UNL d   1      45.085  27.150  57.540  0.00  0.00     0.288 C 
ATOM     15  N   UNL d   1      44.545  26.525  57.488  0.00  0.00    -0.182 NA
ATOM     16  O   UNL d   1      45.664  27.248  56.961  0.00  0.00    -0.265 OA
BRANCH  15  17
ATOM     17  C   UNL d   1      44.587  25.999  56.854  0.00  0.00     0.197 A 
ATOM     18  N   UNL d   1      44.899  25.229  56.874  0.00  0.00    -0.219 NA
ATOM     19  C   UNL d   1      44.829  24.906  56.122  0.00  0.00     0.108 A 
ATOM     20  C   UNL d   1      44.473  25.476  55.632  0.00  0.00     0.059 A 
ATOM     21  S   UNL d   1      44.328  26.141  56.087  0.00  0.00    -0.046 SA
ENDBRANCH  15  17
ENDBRANCH  13  14
ENDBRANCH  12  13
ENDBRANCH   7  12
TORSDOF 4
ENDMDL
MODEL 9
REMARK VINA RESULT:      -4.9      3.108      4.149
REMARK  4 active torsions:
REMARK  status: ('A' for Active; 'I' for Inactive)
REMARK    1  A    between atoms: S_16  and  C_7 
REMARK    2  A    between atoms: C_10  and  N_11 
REMARK       I    between atoms: N_11  and  C_14 
REMARK    3  A    between atoms: C_14  and  C_20 
REMARK    4  A    between atoms: C_20  and  S_16 
ROOT
ATOM      1  N   UNL d   1      53.243  30.319  53.999  0.00  0.00    -0.167 N 
ATOM      2  C   UNL d   1      52.930  30.138  53.263  0.00  0.00     0.220 A 
ATOM      3  C   UNL d   1      53.376  29.726  54.563  0.00  0.00     0.301 A 
ATOM      4  S   UNL d   1      52.866  30.843  52.837  0.00  0.00    -0.019 SA
ATOM      5  N   UNL d   1      53.374  31.126  54.037  0.00  0.00    -0.147 NA
ATOM      6  N   UNL d   1      52.744  29.358  53.074  0.00  0.00    -0.121 NA
ATOM      7  C   UNL d   1      53.141  31.451  53.317  0.00  0.00     0.164 A 
ATOM      8  N   UNL d   1      52.871  28.760  53.623  0.00  0.00    -0.141 NA
ATOM      9  C   UNL d   1      53.186  28.943  54.363  0.00  0.00     0.161 A 
ATOM     10  O   UNL d   1      53.687  29.907  55.296  0.00  0.00    -0.263 OA
ATOM     11  C   UNL d   1      53.315  28.347  54.916  0.00  0.00     0.028 C 
ENDROOT
BRANCH   7  12
ATOM     12  S   UNL d   1      53.176  32.249  53.111  0.00  0.00    -0.054 SA
BRANCH  12  13
ATOM     13  C   UNL d   1      52.638  32.783  53.426  0.00  0.00     0.100 C 
BRANCH  13  14
ATOM     14  C   UNL d   1      52.880  33.557  53.593  0.00  0.00     0.288 C 
ATOM     15  N   UNL d   1      52.682  33.904  54.318  0.00  0.00    -0.182 NA
ATOM     16  O   UNL d   1      53.319  33.980  53.037  0.00  0.00    -0.265 OA
BRANCH  15  17
ATOM     17  C   UNL d   1      52.923  34.675  54.483  0.00  0.00     0.197 A 
ATOM     18  N   UNL d   1      53.602  34.896  54.908  0.00  0.00    -0.219 NA
ATOM     19  C   UNL d   1      53.626  35.716  54.939  0.00  0.00     0.108 A 
ATOM     20  C   UNL d   1      52.961  36.008  54.534  0.00  0.00     0.059 A 
ATOM     21  S   UNL d   1      52.535  35.364  54.258  0.00  0.00    -0.046 SA
ENDBRANCH  15  17
ENDBRANCH  13  14
ENDBRANCH  12  13
ENDBRANCH   7  12
TORSDOF 4
ENDMDL
