MODEL 1
REMARK VINA RESULT:      -9.0      0.000      0.000
REMARK  5 active torsions:
REMARK  status: ('A' for Active; 'I' for Inactive)
REMARK    1  A    between atoms: C_7  and  C_1 
REMARK    2  A    between atoms: C_10  and  C_6 
REMARK    3  A    between atoms: O_18  and  C_7 
REMARK    4  A    between atoms: N_8  and  C_10 
REMARK    5  A    between atoms: C_23  and  O_18 
ROOT
ATOM      1  C   UNL d   1      53.489  32.765  53.893  0.00  0.00     0.081 A 
ATOM      2  C   UNL d   1      54.003  32.603  54.518  0.00  0.00     0.069 A 
ATOM      3  C   UNL d   1      53.247  33.562  53.965  0.00  0.00     0.027 A 
ATOM      4  N   UNL d   1      54.083  33.281  54.975  0.00  0.00    -0.304 N 
ATOM      5  C   UNL d   1      53.613  33.880  54.633  0.00  0.00     0.065 A 
ATOM      6  C   UNL d   1      52.747  34.019  53.510  0.00  0.00     0.058 A 
ATOM      7  C   UNL d   1      53.481  34.658  54.848  0.00  0.00     0.021 A 
ATOM      8  C   UNL d   1      52.610  34.804  53.722  0.00  0.00     0.197 A 
ATOM      9  C   UNL d   1      52.978  35.124  54.392  0.00  0.00     0.044 A 
ATOM     10  C   UNL d   1      54.373  31.870  54.655  0.00  0.00     0.019 C 
ATOM     11  C   UNL d   1      54.546  33.362  55.655  0.00  0.00     0.099 C 
ATOM     12  O   UNL d   1      52.103  35.276  53.263  0.00  0.00    -0.286 OA
ENDROOT
BRANCH   6  13
ATOM     13  C   UNL d   1      52.383  33.697  52.844  0.00  0.00     0.083 C 
BRANCH  13  14
ATOM     14  N   UNL d   1      51.600  33.896  52.670  0.00  0.00    -0.302 N 
ATOM     15  C   UNL d   1      51.009  33.748  53.220  0.00  0.00     0.080 A 
ATOM     16  C   UNL d   1      50.221  33.948  53.045  0.00  0.00     0.019 A 
ATOM     17  C   UNL d   1      50.035  34.294  52.321  0.00  0.00     0.003 A 
ATOM     18  C   UNL d   1      50.629  34.442  51.768  0.00  0.00     0.019 A 
ATOM     19  C   UNL d   1      49.253  34.491  52.151  0.00  0.00     0.000 C 
ATOM     20  C   UNL d   1      51.415  34.242  51.944  0.00  0.00     0.080 A 
ENDBRANCH  13  14
ENDBRANCH   6  13
BRANCH   1  21
ATOM     21  C   UNL d   1      53.253  32.242  53.299  0.00  0.00     0.302 C 
ATOM     22  O   UNL d   1      53.516  32.350  52.521  0.00  0.00    -0.259 OA
BRANCH  21  23
ATOM     23  O   UNL d   1      52.755  31.615  53.489  0.00  0.00    -0.271 OA
BRANCH  23  24
ATOM     24  C   UNL d   1      52.748  30.936  53.015  0.00  0.00     0.126 C 
ATOM     25  C   UNL d   1      52.262  30.302  53.209  0.00  0.00     0.029 C 
ENDBRANCH  23  24
ENDBRANCH  21  23
ENDBRANCH   1  21
TORSDOF 5
ENDMDL
MODEL 2
REMARK VINA RESULT:      -8.4      1.146      3.301
REMARK  5 active torsions:
REMARK  status: ('A' for Active; 'I' for Inactive)
REMARK    1  A    between atoms: C_7  and  C_1 
REMARK    2  A    between atoms: C_10  and  C_6 
REMARK    3  A    between atoms: O_18  and  C_7 
REMARK    4  A    between atoms: N_8  and  C_10 
REMARK    5  A    between atoms: C_23  and  O_18 
ROOT
ATOM      1  C   UNL d   1      52.602  33.994  53.862  0.00  0.00     0.081 A 
ATOM      2  C   UNL d   1      52.653  34.694  54.296  0.00  0.00     0.069 A 
ATOM      3  C   UNL d   1      53.334  33.597  53.937  0.00  0.00     0.027 A 
ATOM      4  N   UNL d   1      53.399  34.737  54.638  0.00  0.00    -0.304 N 
ATOM      5  C   UNL d   1      53.825  34.055  54.415  0.00  0.00     0.065 A 
ATOM      6  C   UNL d   1      53.599  32.888  53.631  0.00  0.00     0.058 A 
ATOM      7  C   UNL d   1      54.585  33.807  54.590  0.00  0.00     0.021 A 
ATOM      8  C   UNL d   1      54.363  32.632  53.803  0.00  0.00     0.197 A 
ATOM      9  C   UNL d   1      54.857  33.092  54.284  0.00  0.00     0.044 A 
ATOM     10  C   UNL d   1      52.043  35.257  54.370  0.00  0.00     0.019 C 
ATOM     11  C   UNL d   1      53.683  35.348  55.118  0.00  0.00     0.099 C 
ATOM     12  O   UNL d   1      54.640  31.911  53.496  0.00  0.00    -0.286 OA
ENDROOT
BRANCH   6  13
ATOM     13  C   UNL d   1      53.104  32.432  53.153  0.00  0.00     0.083 C 
BRANCH  13  14
ATOM     14  N   UNL d   1      53.069  31.614  53.265  0.00  0.00    -0.302 N 
ATOM     15  C   UNL d   1      53.014  31.306  54.024  0.00  0.00     0.080 A 
ATOM     16  C   UNL d   1      52.979  30.483  54.134  0.00  0.00     0.019 A 
ATOM     17  C   UNL d   1      53.000  29.978  53.484  0.00  0.00     0.003 A 
ATOM     18  C   UNL d   1      53.055  30.288  52.722  0.00  0.00     0.019 A 
ATOM     19  C   UNL d   1      52.965  29.163  53.598  0.00  0.00     0.000 C 
ATOM     20  C   UNL d   1      53.090  31.110  52.612  0.00  0.00     0.080 A 
ENDBRANCH  13  14
ENDBRANCH   6  13
BRANCH   1  21
ATOM     21  C   UNL d   1      51.951  33.727  53.429  0.00  0.00     0.302 C 
ATOM     22  O   UNL d   1      51.388  33.235  53.787  0.00  0.00    -0.259 OA
BRANCH  21  23
ATOM     23  O   UNL d   1      51.869  33.955  52.644  0.00  0.00    -0.271 OA
BRANCH  23  24
ATOM     24  C   UNL d   1      51.113  34.051  52.319  0.00  0.00     0.126 C 
ATOM     25  C   UNL d   1      51.025  34.202  51.516  0.00  0.00     0.029 C 
ENDBRANCH  23  24
ENDBRANCH  21  23
ENDBRANCH   1  21
TORSDOF 5
ENDMDL
MODEL 3
REMARK VINA RESULT:      -8.2      1.447      3.814
REMARK  5 active torsions:
REMARK  status: ('A' for Active; 'I' for Inactive)
REMARK    1  A    between atoms: C_7  and  C_1 
REMARK    2  A    between atoms: C_10  and  C_6 
REMARK    3  A    between atoms: O_18  and  C_7 
REMARK    4  A    between atoms: N_8  and  C_10 
REMARK    5  A    between atoms: C_23  and  O_18 
ROOT
ATOM      1  C   UNL d   1      53.262  33.598  53.681  0.00  0.00     0.081 A 
ATOM      2  C   UNL d   1      52.890  34.334  53.708  0.00  0.00     0.069 A 
ATOM      3  C   UNL d   1      52.705  33.045  53.393  0.00  0.00     0.027 A 
ATOM      4  N   UNL d   1      52.117  34.248  53.443  0.00  0.00    -0.304 N 
ATOM      5  C   UNL d   1      51.999  33.445  53.246  0.00  0.00     0.065 A 
ATOM      6  C   UNL d   1      52.761  32.243  53.252  0.00  0.00     0.058 A 
ATOM      7  C   UNL d   1      51.346  33.046  52.957  0.00  0.00     0.021 A 
ATOM      8  C   UNL d   1      52.107  31.834  52.961  0.00  0.00     0.197 A 
ATOM      9  C   UNL d   1      51.398  32.237  52.813  0.00  0.00     0.044 A 
ATOM     10  C   UNL d   1      53.248  35.041  53.963  0.00  0.00     0.019 C 
ATOM     11  C   UNL d   1      51.551  34.848  53.381  0.00  0.00     0.099 C 
ATOM     12  O   UNL d   1      52.157  31.018  52.815  0.00  0.00    -0.286 OA
ENDROOT
BRANCH   6  13
ATOM     13  C   UNL d   1      53.469  31.845  53.399  0.00  0.00     0.083 C 
BRANCH  13  14
ATOM     14  N   UNL d   1      53.450  31.073  53.695  0.00  0.00    -0.302 N 
ATOM     15  C   UNL d   1      53.203  30.937  54.467  0.00  0.00     0.080 A 
ATOM     16  C   UNL d   1      53.184  30.161  54.763  0.00  0.00     0.019 A 
ATOM     17  C   UNL d   1      53.412  29.531  54.284  0.00  0.00     0.003 A 
ATOM     18  C   UNL d   1      53.660  29.668  53.510  0.00  0.00     0.019 A 
ATOM     19  C   UNL d   1      53.392  28.763  54.582  0.00  0.00     0.000 C 
ATOM     20  C   UNL d   1      53.679  30.444  53.214  0.00  0.00     0.080 A 
ENDBRANCH  13  14
ENDBRANCH   6  13
BRANCH   1  21
ATOM     21  C   UNL d   1      54.040  33.429  53.897  0.00  0.00     0.302 C 
ATOM     22  O   UNL d   1      54.607  33.267  53.314  0.00  0.00    -0.259 OA
BRANCH  21  23
ATOM     23  O   UNL d   1      54.245  33.423  54.693  0.00  0.00    -0.271 OA
BRANCH  23  24
ATOM     24  C   UNL d   1      55.023  33.594  54.920  0.00  0.00     0.126 C 
ATOM     25  C   UNL d   1      55.220  33.645  55.717  0.00  0.00     0.029 C 
ENDBRANCH  23  24
ENDBRANCH  21  23
ENDBRANCH   1  21
TORSDOF 5
ENDMDL
MODEL 4
REMARK VINA RESULT:      -7.2      0.835      2.401
REMARK  5 active torsions:
REMARK  status: ('A' for Active; 'I' for Inactive)
REMARK    1  A    between atoms: C_7  and  C_1 
REMARK    2  A    between atoms: C_10  and  C_6 
REMARK    3  A    between atoms: O_18  and  C_7 
REMARK    4  A    between atoms: N_8  and  C_10 
REMARK    5  A    between atoms: C_23  and  O_18 
ROOT
ATOM      1  C   UNL d   1      53.620  33.689  54.300  0.00  0.00     0.081 A 
ATOM      2  C   UNL d   1      54.045  33.337  54.913  0.00  0.00     0.069 A 
ATOM      3  C   UNL d   1      53.262  33.077  53.857  0.00  0.00     0.027 A 
ATOM      4  N   UNL d   1      53.958  32.522  54.859  0.00  0.00    -0.304 N 
ATOM      5  C   UNL d   1      53.470  32.357  54.202  0.00  0.00     0.065 A 
ATOM      6  C   UNL d   1      52.782  33.094  53.197  0.00  0.00     0.058 A 
ATOM      7  C   UNL d   1      53.200  31.651  53.889  0.00  0.00     0.021 A 
ATOM      8  C   UNL d   1      52.507  32.387  52.876  0.00  0.00     0.197 A 
ATOM      9  C   UNL d   1      52.716  31.664  53.223  0.00  0.00     0.044 A 
ATOM     10  C   UNL d   1      54.487  33.749  55.486  0.00  0.00     0.019 C 
ATOM     11  C   UNL d   1      54.293  31.959  55.365  0.00  0.00     0.099 C 
ATOM     12  O   UNL d   1      52.018  32.397  52.204  0.00  0.00    -0.286 OA
ENDROOT
BRANCH   6  13
ATOM     13  C   UNL d   1      52.575  33.816  52.855  0.00  0.00     0.083 C 
BRANCH  13  14
ATOM     14  N   UNL d   1      51.788  33.959  52.647  0.00  0.00    -0.302 N 
ATOM     15  C   UNL d   1      51.192  33.847  53.200  0.00  0.00     0.080 A 
ATOM     16  C   UNL d   1      50.401  33.991  52.989  0.00  0.00     0.019 A 
ATOM     17  C   UNL d   1      50.216  34.245  52.228  0.00  0.00     0.003 A 
ATOM     18  C   UNL d   1      50.815  34.357  51.672  0.00  0.00     0.019 A 
ATOM     19  C   UNL d   1      49.431  34.386  52.023  0.00  0.00     0.000 C 
ATOM     20  C   UNL d   1      51.605  34.213  51.884  0.00  0.00     0.080 A 
ENDBRANCH  13  14
ENDBRANCH   6  13
BRANCH   1  21
ATOM     21  C   UNL d   1      53.554  34.497  54.144  0.00  0.00     0.302 C 
ATOM     22  O   UNL d   1      53.920  34.822  53.475  0.00  0.00    -0.259 OA
BRANCH  21  23
ATOM     23  O   UNL d   1      53.123  34.973  54.658  0.00  0.00    -0.271 OA
BRANCH  23  24
ATOM     24  C   UNL d   1      53.247  35.792  54.663  0.00  0.00     0.126 C 
ATOM     25  C   UNL d   1      52.733  36.285  55.074  0.00  0.00     0.029 C 
ENDBRANCH  23  24
ENDBRANCH  21  23
ENDBRANCH   1  21
TORSDOF 5
ENDMDL
