MODEL 1
REMARK VINA RESULT:       7.1      0.000      0.000
REMARK  0 active torsions:
REMARK  status: ('A' for Active; 'I' for Inactive)
ROOT
ATOM      1  N   UNL d   1     -54.860-101.143 -36.804  0.00  0.00    -0.183 NA
ATOM      2  C   UNL d   1     -54.947-101.525 -36.076  0.00  0.00     0.339 A 
ATOM      3  N   UNL d   1     -54.973-102.780 -36.749  0.00  0.00    -0.201 NA
ATOM      4  C   UNL d   1     -55.004-102.336 -36.049  0.00  0.00     0.337 A 
ATOM      5  C   UNL d   1     -54.829-101.581 -37.501  0.00  0.00     0.184 A 
ATOM      6  C   UNL d   1     -54.886-102.392 -37.474  0.00  0.00     0.121 A 
ATOM      7  N   UNL d   1     -54.742-101.199 -38.228  0.00  0.00    -0.223 NA
ATOM      8  C   UNL d   1     -54.856-102.836 -38.173  0.00  0.00     0.031 A 
ATOM      9  O   UNL d   1     -54.978-101.087 -35.371  0.00  0.00    -0.260 OA
ATOM     10  O   UNL d   1     -55.092-102.724 -35.316  0.00  0.00    -0.260 OA
ATOM     11  C   UNL d   1     -54.768-102.448 -38.900  0.00  0.00     0.055 A 
ATOM     12  C   UNL d   1     -54.711-101.636 -38.927  0.00  0.00     0.107 A 
ATOM     13 BR   UNL d   1     -54.737-102.880 -39.602  0.00  0.00    -0.048 Br
ENDROOT
TORSDOF 0
ENDMDL
