MODEL 1
REMARK VINA RESULT:      85.2      0.000      0.000
REMARK  6 active torsions:
REMARK  status: ('A' for Active; 'I' for Inactive)
REMARK    1  A    between atoms: C_9  and  N_1 
REMARK    2  A    between atoms: C_8  and  C_3 
REMARK       I    between atoms: N_12  and  C_8 
REMARK    3  A    between atoms: C_17  and  C_9 
REMARK    4  A    between atoms: C_23  and  N_12 
REMARK    5  A    between atoms: C_13  and  C_23 
REMARK    6  A    between atoms: C_20  and  C_17 
ROOT
ATOM      1  N   UNL d   1     -50.828  26.664  34.404  0.00  0.00    -0.273 N 
ATOM      2  C   UNL d   1     -50.119  26.944  34.103  0.00  0.00     0.177 A 
ATOM      3  C   UNL d   1     -49.653  27.200  34.737  0.00  0.00     0.115 A 
ATOM      4  C   UNL d   1     -50.812  26.741  35.227  0.00  0.00     0.167 A 
ATOM      5  C   UNL d   1     -50.085  27.073  35.433  0.00  0.00     0.123 A 
ATOM      6  N   UNL d   1     -51.361  26.554  35.812  0.00  0.00    -0.225 NA
ATOM      7  N   UNL d   1     -49.907  27.218  36.223  0.00  0.00    -0.241 NA
ATOM      8  C   UNL d   1     -51.182  26.699  36.603  0.00  0.00     0.101 A 
ATOM      9  C   UNL d   1     -50.456  27.030  36.809  0.00  0.00     0.099 A 
ATOM     10  N   UNL d   1     -49.908  26.967  33.306  0.00  0.00    -0.128 N 
ATOM     11  C   UNL d   1     -51.731  26.511  37.188  0.00  0.00     0.021 A 
ATOM     12  C   UNL d   1     -50.277  27.175  37.600  0.00  0.00     0.021 A 
ATOM     13  C   UNL d   1     -51.554  26.656  37.983  0.00  0.00     0.002 A 
ATOM     14  C   UNL d   1     -50.827  26.988  38.189  0.00  0.00     0.002 A 
ENDROOT
BRANCH   1  15
ATOM     15  C   UNL d   1     -51.457  26.354  33.967  0.00  0.00     0.083 C 
BRANCH  15  16
ATOM     16  C   UNL d   1     -51.309  25.807  33.365  0.00  0.00     0.021 C 
BRANCH  16  17
ATOM     17  C   UNL d   1     -51.729  25.098  33.352  0.00  0.00     0.029 A 
ATOM     18  C   UNL d   1     -51.320  24.388  33.334  0.00  0.00     0.140 A 
ATOM     19  F   UNL d   1     -50.508  24.574  33.331  0.00  0.00    -0.204 F 
ATOM     20  C   UNL d   1     -51.725  23.682  33.321  0.00  0.00     0.030 A 
ATOM     21  C   UNL d   1     -52.556  23.685  33.328  0.00  0.00     0.002 A 
ATOM     22  C   UNL d   1     -52.959  24.399  33.347  0.00  0.00     0.000 A 
ATOM     23  C   UNL d   1     -52.546  25.103  33.359  0.00  0.00     0.002 A 
ENDBRANCH  16  17
ENDBRANCH  15  16
ENDBRANCH   1  15
BRANCH   3  24
ATOM     24  C   UNL d   1     -48.894  27.524  34.692  0.00  0.00     0.284 C 
ATOM     25  N   UNL d   1     -48.768  28.295  34.958  0.00  0.00    -0.204 NA
ATOM     26  O   UNL d   1     -48.269  27.084  34.386  0.00  0.00    -0.265 OA
BRANCH  25  27
ATOM     27  C   UNL d   1     -48.002  28.625  34.914  0.00  0.00     0.127 C 
BRANCH  27  28
ATOM     28  C   UNL d   1     -47.862  29.379  35.200  0.00  0.00     0.119 A 
ATOM     29  O   UNL d   1     -48.238  30.067  34.947  0.00  0.00    -0.304 OA
ATOM     30  C   UNL d   1     -47.930  30.697  35.381  0.00  0.00     0.123 A 
ATOM     31  C   UNL d   1     -47.360  30.383  35.904  0.00  0.00     0.029 A 
ATOM     32  C   UNL d   1     -47.323  29.584  35.789  0.00  0.00     0.028 A 
ENDBRANCH  27  28
ENDBRANCH  25  27
ENDBRANCH   3  24
TORSDOF 6
ENDMDL
