MODEL 1
REMARK VINA RESULT:      61.7      0.000      0.000
REMARK  2 active torsions:
REMARK  status: ('A' for Active; 'I' for Inactive)
REMARK    1  A    between atoms: C_3  and  C_1 
REMARK       I    between atoms: N_2  and  C_3 
REMARK    2  A    between atoms: O_16  and  C_15 
ROOT
ATOM      1  C   UNL d   1     -47.169  31.692  34.626  0.00  0.00     0.121 A 
ATOM      2  C   UNL d   1     -46.918  31.844  35.400  0.00  0.00     0.305 A 
ATOM      3  O   UNL d   1     -46.992  31.252  35.984  0.00  0.00    -0.271 OA
ATOM      4  C   UNL d   1     -47.495  30.949  34.426  0.00  0.00     0.012 A 
ATOM      5  C   UNL d   1     -47.311  30.523  35.792  0.00  0.00     0.125 A 
ATOM      6  C   UNL d   1     -47.563  30.369  35.011  0.00  0.00     0.025 A 
ATOM      7  O   UNL d   1     -46.598  32.574  35.595  0.00  0.00    -0.259 OA
ATOM      8  C   UNL d   1     -47.388  29.928  36.366  0.00  0.00     0.117 A 
ATOM      9  C   UNL d   1     -47.886  29.631  34.818  0.00  0.00     0.002 A 
ATOM     10  C   UNL d   1     -47.955  29.051  35.400  0.00  0.00     0.002 A 
ATOM     11  C   UNL d   1     -47.708  29.198  36.170  0.00  0.00     0.026 A 
ENDROOT
BRANCH   1  12
ATOM     12  C   UNL d   1     -47.096  32.274  34.052  0.00  0.00     0.285 C 
ATOM     13  N   UNL d   1     -47.733  32.755  33.865  0.00  0.00    -0.193 N 
ATOM     14  N   UNL d   1     -48.480  32.716  34.208  0.00  0.00    -0.163 NA
ATOM     15  C   UNL d   1     -47.740  33.356  33.306  0.00  0.00     0.105 A 
ATOM     16  C   UNL d   1     -48.947  33.296  33.858  0.00  0.00     0.103 A 
ATOM     17  C   UNL d   1     -49.740  33.450  34.039  0.00  0.00     0.022 C 
ATOM     18  C   UNL d   1     -48.491  33.687  33.306  0.00  0.00     0.042 A 
ATOM     19  O   UNL d   1     -46.381  32.380  33.660  0.00  0.00    -0.265 OA
ENDBRANCH   1  12
BRANCH   8  20
ATOM     20  O   UNL d   1     -47.137  30.084  37.134  0.00  0.00    -0.326 OA
ATOM     21  C   UNL d   1     -46.550  29.630  37.483  0.00  0.00     0.181 C 
ENDBRANCH   8  20
TORSDOF 2
ENDMDL
MODEL 2
REMARK VINA RESULT:      63.8      6.153      7.533
REMARK  2 active torsions:
REMARK  status: ('A' for Active; 'I' for Inactive)
REMARK    1  A    between atoms: C_3  and  C_1 
REMARK       I    between atoms: N_2  and  C_3 
REMARK    2  A    between atoms: O_16  and  C_15 
ROOT
ATOM      1  C   UNL d   1     -51.261  26.032  33.883  0.00  0.00     0.121 A 
ATOM      2  C   UNL d   1     -52.086  26.096  33.875  0.00  0.00     0.305 A 
ATOM      3  O   UNL d   1     -52.554  25.419  33.733  0.00  0.00    -0.271 OA
ATOM      4  C   UNL d   1     -50.893  25.293  33.749  0.00  0.00     0.012 A 
ATOM      5  C   UNL d   1     -52.197  24.694  33.601  0.00  0.00     0.125 A 
ATOM      6  C   UNL d   1     -51.365  24.629  33.609  0.00  0.00     0.025 A 
ATOM      7  O   UNL d   1     -52.446  26.822  34.007  0.00  0.00    -0.259 OA
ATOM      8  C   UNL d   1     -52.653  24.015  33.459  0.00  0.00     0.117 A 
ATOM      9  C   UNL d   1     -51.005  23.895  33.476  0.00  0.00     0.002 A 
ATOM     10  C   UNL d   1     -51.473  23.231  33.336  0.00  0.00     0.002 A 
ATOM     11  C   UNL d   1     -52.293  23.290  33.328  0.00  0.00     0.026 A 
ENDROOT
BRANCH   1  12
ATOM     12  C   UNL d   1     -50.802  26.698  34.023  0.00  0.00     0.285 C 
ATOM     13  N   UNL d   1     -50.765  27.028  34.772  0.00  0.00    -0.193 N 
ATOM     14  N   UNL d   1     -51.160  26.749  35.438  0.00  0.00    -0.163 NA
ATOM     15  C   UNL d   1     -50.331  27.690  34.991  0.00  0.00     0.105 A 
ATOM     16  C   UNL d   1     -50.967  27.242  36.068  0.00  0.00     0.103 A 
ATOM     17  C   UNL d   1     -51.244  27.163  36.844  0.00  0.00     0.022 C 
ATOM     18  C   UNL d   1     -50.459  27.818  35.791  0.00  0.00     0.042 A 
ATOM     19  O   UNL d   1     -50.374  27.040  33.408  0.00  0.00    -0.265 OA
ENDBRANCH   1  12
BRANCH   8  20
ATOM     20  O   UNL d   1     -53.473  24.084  33.453  0.00  0.00    -0.326 OA
ATOM     21  C   UNL d   1     -53.947  23.471  33.722  0.00  0.00     0.181 C 
ENDBRANCH   8  20
TORSDOF 2
ENDMDL
MODEL 3
REMARK VINA RESULT:      64.5      1.364      3.698
REMARK  2 active torsions:
REMARK  status: ('A' for Active; 'I' for Inactive)
REMARK    1  A    between atoms: C_3  and  C_1 
REMARK       I    between atoms: N_2  and  C_3 
REMARK    2  A    between atoms: O_16  and  C_15 
ROOT
ATOM      1  C   UNL d   1     -47.465  31.095  35.415  0.00  0.00     0.121 A 
ATOM      2  C   UNL d   1     -46.946  31.739  35.419  0.00  0.00     0.305 A 
ATOM      3  O   UNL d   1     -47.065  32.372  34.888  0.00  0.00    -0.271 OA
ATOM      4  C   UNL d   1     -48.108  31.074  34.882  0.00  0.00     0.012 A 
ATOM      5  C   UNL d   1     -47.694  32.356  34.364  0.00  0.00     0.125 A 
ATOM      6  C   UNL d   1     -48.218  31.705  34.359  0.00  0.00     0.025 A 
ATOM      7  O   UNL d   1     -46.314  31.759  35.943  0.00  0.00    -0.259 OA
ATOM      8  C   UNL d   1     -47.822  32.980  33.832  0.00  0.00     0.117 A 
ATOM      9  C   UNL d   1     -48.854  31.689  33.829  0.00  0.00     0.002 A 
ATOM     10  C   UNL d   1     -48.966  32.318  33.307  0.00  0.00     0.002 A 
ATOM     11  C   UNL d   1     -48.453  32.959  33.308  0.00  0.00     0.026 A 
ENDROOT
BRANCH   1  12
ATOM     12  C   UNL d   1     -47.346  30.473  35.938  0.00  0.00     0.285 C 
ATOM     13  N   UNL d   1     -47.640  29.726  35.770  0.00  0.00    -0.193 N 
ATOM     14  N   UNL d   1     -48.064  29.520  35.096  0.00  0.00    -0.163 NA
ATOM     15  C   UNL d   1     -47.563  29.058  36.239  0.00  0.00     0.105 A 
ATOM     16  C   UNL d   1     -48.250  28.720  35.152  0.00  0.00     0.103 A 
ATOM     17  C   UNL d   1     -48.674  28.283  34.592  0.00  0.00     0.022 C 
ATOM     18  C   UNL d   1     -47.941  28.439  35.853  0.00  0.00     0.042 A 
ATOM     19  O   UNL d   1     -46.930  30.596  36.637  0.00  0.00    -0.265 OA
ENDBRANCH   1  12
BRANCH   8  20
ATOM     20  O   UNL d   1     -47.303  33.619  33.840  0.00  0.00    -0.326 OA
ATOM     21  C   UNL d   1     -46.680  33.659  33.307  0.00  0.00     0.181 C 
ENDBRANCH   8  20
TORSDOF 2
ENDMDL
