MODEL 1
REMARK VINA RESULT:      20.5      0.000      0.000
REMARK  5 active torsions:
REMARK  status: ('A' for Active; 'I' for Inactive)
REMARK    1  A    between atoms: S_10  and  C_6 
REMARK    2  A    between atoms: C_15  and  S_10 
REMARK    3  A    between atoms: C_12  and  C_15 
REMARK       I    between atoms: N_16  and  C_12 
REMARK    4  A    between atoms: C_14  and  C_20 
REMARK    5  A    between atoms: C_20  and  N_16 
ROOT
ATOM      1  C   UNL d   1      14.506  11.845  -2.138  0.00  0.00     0.117 A 
ATOM      2  C   UNL d   1      14.061  11.834  -1.455  0.00  0.00     0.082 A 
ATOM      3  N   UNL d   1      14.122  11.831  -2.882  0.00  0.00    -0.214 NA
ATOM      4  C   UNL d   1      13.244  11.811  -1.485  0.00  0.00     0.283 A 
ATOM      5  N   UNL d   1      12.860  11.797  -2.230  0.00  0.00    -0.183 NA
ATOM      6  C   UNL d   1      13.307  11.808  -2.915  0.00  0.00     0.198 A 
ATOM      7  S   UNL d   1      15.303  11.868  -1.925  0.00  0.00    -0.068 SA
ATOM      8  C   UNL d   1      14.585  11.851  -0.824  0.00  0.00     0.013 A 
ATOM      9  C   UNL d   1      15.367  11.873  -1.104  0.00  0.00     0.031 A 
ATOM     10  O   UNL d   1      12.789  11.800  -0.772  0.00  0.00    -0.265 OA
ATOM     11  C   UNL d   1      14.379  11.848  -0.014  0.00  0.00     0.001 C 
ATOM     12  C   UNL d   1      16.071  11.894  -0.639  0.00  0.00     0.007 C 
ENDROOT
BRANCH   6  13
ATOM     13  S   UNL d   1      12.925  11.795  -3.655  0.00  0.00    -0.043 SA
BRANCH  13  14
ATOM     14  C   UNL d   1      12.769  12.496  -4.040  0.00  0.00     0.101 C 
BRANCH  14  15
ATOM     15  C   UNL d   1      13.044  12.608  -4.843  0.00  0.00     0.286 C 
ATOM     16  O   UNL d   1      13.192  11.945  -5.318  0.00  0.00    -0.265 OA
ATOM     17  N   UNL d   1      13.158  13.364  -5.132  0.00  0.00    -0.206 NA
BRANCH  17  18
ATOM     18  C   UNL d   1      13.011  14.016  -4.658  0.00  0.00     0.102 C 
BRANCH  18  19
ATOM     19  C   UNL d   1      13.311  14.749  -4.859  0.00  0.00     0.021 C 
ATOM     20  C   UNL d   1      13.093  15.422  -4.435  0.00  0.00     0.002 C 
ENDBRANCH  18  19
ENDBRANCH  17  18
ENDBRANCH  14  15
ENDBRANCH  13  14
ENDBRANCH   6  13
TORSDOF 5
ENDMDL
MODEL 2
REMARK VINA RESULT:      22.1      1.288      4.106
REMARK  5 active torsions:
REMARK  status: ('A' for Active; 'I' for Inactive)
REMARK    1  A    between atoms: S_10  and  C_6 
REMARK    2  A    between atoms: C_15  and  S_10 
REMARK    3  A    between atoms: C_12  and  C_15 
REMARK       I    between atoms: N_16  and  C_12 
REMARK    4  A    between atoms: C_14  and  C_20 
REMARK    5  A    between atoms: C_20  and  N_16 
ROOT
ATOM      1  C   UNL d   1      13.302  13.436  -3.555  0.00  0.00     0.117 A 
ATOM      2  C   UNL d   1      13.193  13.019  -4.247  0.00  0.00     0.082 A 
ATOM      3  N   UNL d   1      13.496  13.025  -2.851  0.00  0.00    -0.214 NA
ATOM      4  C   UNL d   1      13.271  12.205  -4.265  0.00  0.00     0.283 A 
ATOM      5  N   UNL d   1      13.465  11.794  -3.560  0.00  0.00    -0.183 NA
ATOM      6  C   UNL d   1      13.574  12.214  -2.866  0.00  0.00     0.198 A 
ATOM      7  S   UNL d   1      13.187  14.237  -3.717  0.00  0.00    -0.068 SA
ATOM      8  C   UNL d   1      13.011  13.564  -4.832  0.00  0.00     0.013 A 
ATOM      9  C   UNL d   1      13.004  14.332  -4.514  0.00  0.00     0.031 A 
ATOM     10  O   UNL d   1      13.156  11.779  -4.987  0.00  0.00    -0.265 OA
ATOM     11  C   UNL d   1      12.854  13.390  -5.634  0.00  0.00     0.001 C 
ATOM     12  C   UNL d   1      12.842  15.050  -4.927  0.00  0.00     0.007 C 
ENDROOT
BRANCH   6  13
ATOM     13  S   UNL d   1      13.767  11.805  -2.167  0.00  0.00    -0.043 SA
BRANCH  13  14
ATOM     14  C   UNL d   1      14.184  12.188  -1.579  0.00  0.00     0.101 C 
BRANCH  14  15
ATOM     15  C   UNL d   1      13.912  12.140  -0.768  0.00  0.00     0.286 C 
ATOM     16  O   UNL d   1      13.184  11.779  -0.604  0.00  0.00    -0.265 OA
ATOM     17  N   UNL d   1      14.370  12.451  -0.167  0.00  0.00    -0.206 NA
BRANCH  17  18
ATOM     18  C   UNL d   1      15.089  12.807  -0.334  0.00  0.00     0.102 C 
BRANCH  18  19
ATOM     19  C   UNL d   1      15.273  13.536  -0.014  0.00  0.00     0.021 C 
ATOM     20  C   UNL d   1      15.904  13.978  -0.312  0.00  0.00     0.002 C 
ENDBRANCH  18  19
ENDBRANCH  17  18
ENDBRANCH  14  15
ENDBRANCH  13  14
ENDBRANCH   6  13
TORSDOF 5
ENDMDL
