MODEL 1
REMARK VINA RESULT:      -8.2      0.000      0.000
REMARK  8 active torsions:
REMARK  status: ('A' for Active; 'I' for Inactive)
REMARK    1  A    between atoms: C_7  and  C_1 
REMARK    2  A    between atoms: C_2  and  O_5 
REMARK    3  A    between atoms: C_4  and  C_2 
REMARK    4  A    between atoms: O_5  and  C_3 
REMARK    5  A    between atoms: C_6  and  C_7 
REMARK    6  A    between atoms: C_8  and  C_6 
REMARK    7  A    between atoms: C_11  and  C_8 
REMARK    8  A    between atoms: O_22  and  C_18 
ROOT
ATOM      1  C   UNL d   1      52.033  33.996  53.611  0.00  0.00     0.062 A 
ATOM      2  C   UNL d   1      52.677  33.473  53.516  0.00  0.00     0.106 A 
ATOM      3  C   UNL d   1      52.166  34.752  53.911  0.00  0.00     0.012 A 
ATOM      4  C   UNL d   1      53.433  33.719  53.721  0.00  0.00     0.025 A 
ATOM      5  C   UNL d   1      52.925  34.990  54.114  0.00  0.00     0.035 A 
ATOM      6  C   UNL d   1      53.563  34.473  54.019  0.00  0.00     0.009 A 
ATOM      7 BR   UNL d   1      53.056  35.749  54.414  0.00  0.00    -0.049 Br
ENDROOT
BRANCH   1   8
ATOM      8  C   UNL d   1      51.271  33.754  53.407  0.00  0.00     0.198 C 
ATOM      9  O   UNL d   1      50.907  33.143  53.828  0.00  0.00    -0.286 OA
BRANCH   8  10
ATOM     10  C   UNL d   1      50.875  34.120  52.785  0.00  0.00     0.042 C 
BRANCH  10  11
ATOM     11  C   UNL d   1      50.077  34.317  52.862  0.00  0.00     0.005 C 
BRANCH  11  12
ATOM     12  C   UNL d   1      49.622  34.488  52.187  0.00  0.00     0.022 A 
ATOM     13  C   UNL d   1      48.968  35.002  52.279  0.00  0.00     0.094 A 
ATOM     14  C   UNL d   1      48.519  35.163  51.582  0.00  0.00     0.024 A 
ATOM     15  C   UNL d   1      48.718  34.829  50.852  0.00  0.00     0.002 A 
ATOM     16  C   UNL d   1      49.380  34.318  50.798  0.00  0.00     0.000 A 
ATOM     17  C   UNL d   1      49.829  34.152  51.470  0.00  0.00     0.002 A 
BRANCH  13  18
ATOM     18  O   UNL d   1      48.766  35.337  53.003  0.00  0.00    -0.328 OA
ATOM     19  C   UNL d   1      48.122  35.853  53.059  0.00  0.00     0.181 C 
ENDBRANCH  13  18
ENDBRANCH  11  12
ENDBRANCH  10  11
ENDBRANCH   8  10
ENDBRANCH   1   8
BRANCH   2  20
ATOM     20  O   UNL d   1      52.546  32.719  53.218  0.00  0.00    -0.271 OA
BRANCH  20  21
ATOM     21  C   UNL d   1      53.189  32.219  53.076  0.00  0.00     0.323 C 
ATOM     22  O   UNL d   1      53.941  32.532  52.921  0.00  0.00    -0.257 OA
BRANCH  21  23
ATOM     23  C   UNL d   1      53.087  31.401  53.089  0.00  0.00     0.163 A 
ATOM     24  O   UNL d   1      52.643  30.963  52.550  0.00  0.00    -0.300 OA
ATOM     25  C   UNL d   1      52.692  30.158  52.773  0.00  0.00     0.123 A 
ATOM     26  C   UNL d   1      53.166  30.109  53.446  0.00  0.00     0.029 A 
ATOM     27  C   UNL d   1      53.410  30.877  53.641  0.00  0.00     0.032 A 
ENDBRANCH  21  23
ENDBRANCH  20  21
ENDBRANCH   2  20
TORSDOF 8
ENDMDL
MODEL 2
REMARK VINA RESULT:      -8.1      1.529      4.624
REMARK  8 active torsions:
REMARK  status: ('A' for Active; 'I' for Inactive)
REMARK    1  A    between atoms: C_7  and  C_1 
REMARK    2  A    between atoms: C_2  and  O_5 
REMARK    3  A    between atoms: C_4  and  C_2 
REMARK    4  A    between atoms: O_5  and  C_3 
REMARK    5  A    between atoms: C_6  and  C_7 
REMARK    6  A    between atoms: C_8  and  C_6 
REMARK    7  A    between atoms: C_11  and  C_8 
REMARK    8  A    between atoms: O_22  and  C_18 
ROOT
ATOM      1  C   UNL d   1      54.033  33.089  54.166  0.00  0.00     0.062 A 
ATOM      2  C   UNL d   1      53.501  33.719  54.032  0.00  0.00     0.106 A 
ATOM      3  C   UNL d   1      54.533  33.114  54.821  0.00  0.00     0.012 A 
ATOM      4  C   UNL d   1      53.484  34.352  54.554  0.00  0.00     0.025 A 
ATOM      5  C   UNL d   1      54.508  33.751  55.339  0.00  0.00     0.035 A 
ATOM      6  C   UNL d   1      53.982  34.375  55.206  0.00  0.00     0.009 A 
ATOM      7 BR   UNL d   1      55.010  33.773  55.995  0.00  0.00    -0.049 Br
ENDROOT
BRANCH   1   8
ATOM      8  C   UNL d   1      54.056  32.450  53.645  0.00  0.00     0.198 C 
ATOM      9  O   UNL d   1      54.611  32.439  53.033  0.00  0.00    -0.286 OA
BRANCH   8  10
ATOM     10  C   UNL d   1      53.529  31.825  53.735  0.00  0.00     0.042 C 
BRANCH  10  11
ATOM     11  C   UNL d   1      53.796  31.047  53.684  0.00  0.00     0.005 C 
BRANCH  11  12
ATOM     12  C   UNL d   1      53.274  30.439  53.462  0.00  0.00     0.022 A 
ATOM     13  C   UNL d   1      53.235  29.761  53.953  0.00  0.00     0.094 A 
ATOM     14  C   UNL d   1      52.699  29.155  53.710  0.00  0.00     0.024 A 
ATOM     15  C   UNL d   1      52.240  29.231  53.026  0.00  0.00     0.002 A 
ATOM     16  C   UNL d   1      52.306  29.925  52.559  0.00  0.00     0.000 A 
ATOM     17  C   UNL d   1      52.826  30.525  52.783  0.00  0.00     0.002 A 
BRANCH  13  18
ATOM     18  O   UNL d   1      53.689  29.681  54.634  0.00  0.00    -0.328 OA
ATOM     19  C   UNL d   1      53.624  29.002  55.101  0.00  0.00     0.181 C 
ENDBRANCH  13  18
ENDBRANCH  11  12
ENDBRANCH  10  11
ENDBRANCH   8  10
ENDBRANCH   1   8
BRANCH   2  20
ATOM     20  O   UNL d   1      53.003  33.696  53.380  0.00  0.00    -0.271 OA
BRANCH  20  21
ATOM     21  C   UNL d   1      52.552  34.362  53.188  0.00  0.00     0.323 C 
ATOM     22  O   UNL d   1      52.846  35.126  53.326  0.00  0.00    -0.257 OA
BRANCH  21  23
ATOM     23  C   UNL d   1      51.803  34.272  52.856  0.00  0.00     0.163 A 
ATOM     24  O   UNL d   1      51.093  34.225  53.273  0.00  0.00    -0.300 OA
ATOM     25  C   UNL d   1      50.475  34.135  52.717  0.00  0.00     0.123 A 
ATOM     26  C   UNL d   1      50.810  34.128  51.963  0.00  0.00     0.029 A 
ATOM     27  C   UNL d   1      51.630  34.212  52.048  0.00  0.00     0.032 A 
ENDBRANCH  21  23
ENDBRANCH  20  21
ENDBRANCH   2  20
TORSDOF 8
ENDMDL
MODEL 3
REMARK VINA RESULT:      -7.5      1.790      3.166
REMARK  8 active torsions:
REMARK  status: ('A' for Active; 'I' for Inactive)
REMARK    1  A    between atoms: C_7  and  C_1 
REMARK    2  A    between atoms: C_2  and  O_5 
REMARK    3  A    between atoms: C_4  and  C_2 
REMARK    4  A    between atoms: O_5  and  C_3 
REMARK    5  A    between atoms: C_6  and  C_7 
REMARK    6  A    between atoms: C_8  and  C_6 
REMARK    7  A    between atoms: C_11  and  C_8 
REMARK    8  A    between atoms: O_22  and  C_18 
ROOT
ATOM      1  C   UNL d   1      52.863  31.939  53.065  0.00  0.00     0.062 A 
ATOM      2  C   UNL d   1      53.411  31.928  53.695  0.00  0.00     0.106 A 
ATOM      3  C   UNL d   1      52.556  31.228  52.782  0.00  0.00     0.012 A 
ATOM      4  C   UNL d   1      53.636  31.210  54.023  0.00  0.00     0.025 A 
ATOM      5  C   UNL d   1      52.787  30.514  53.116  0.00  0.00     0.035 A 
ATOM      6  C   UNL d   1      53.330  30.503  53.740  0.00  0.00     0.009 A 
ATOM      7 BR   UNL d   1      52.478  29.803  52.831  0.00  0.00    -0.049 Br
ENDROOT
BRANCH   1   8
ATOM      8  C   UNL d   1      52.632  32.657  52.731  0.00  0.00     0.198 C 
ATOM      9  O   UNL d   1      53.133  33.041  52.197  0.00  0.00    -0.286 OA
BRANCH   8  10
ATOM     10  C   UNL d   1      51.906  32.990  52.928  0.00  0.00     0.042 C 
BRANCH  10  11
ATOM     11  C   UNL d   1      51.558  33.549  52.431  0.00  0.00     0.005 C 
BRANCH  11  12
ATOM     12  C   UNL d   1      50.918  34.007  52.700  0.00  0.00     0.022 A 
ATOM     13  C   UNL d   1      50.352  34.254  52.134  0.00  0.00     0.094 A 
ATOM     14  C   UNL d   1      49.710  34.718  52.428  0.00  0.00     0.024 A 
ATOM     15  C   UNL d   1      49.648  34.915  53.228  0.00  0.00     0.002 A 
ATOM     16  C   UNL d   1      50.234  34.649  53.766  0.00  0.00     0.000 A 
ATOM     17  C   UNL d   1      50.868  34.195  53.495  0.00  0.00     0.002 A 
BRANCH  13  18
ATOM     18  O   UNL d   1      50.409  34.061  51.336  0.00  0.00    -0.328 OA
ATOM     19  C   UNL d   1      49.821  34.300  50.806  0.00  0.00     0.181 C 
ENDBRANCH  13  18
ENDBRANCH  11  12
ENDBRANCH  10  11
ENDBRANCH   8  10
ENDBRANCH   1   8
BRANCH   2  20
ATOM     20  O   UNL d   1      53.717  32.635  53.978  0.00  0.00    -0.271 OA
BRANCH  20  21
ATOM     21  C   UNL d   1      54.074  32.656  54.724  0.00  0.00     0.323 C 
ATOM     22  O   UNL d   1      53.873  32.098  55.303  0.00  0.00    -0.257 OA
BRANCH  21  23
ATOM     23  C   UNL d   1      54.635  33.235  54.897  0.00  0.00     0.163 A 
ATOM     24  O   UNL d   1      55.331  33.373  54.476  0.00  0.00    -0.300 OA
ATOM     25  C   UNL d   1      55.730  34.008  54.844  0.00  0.00     0.123 A 
ATOM     26  C   UNL d   1      55.277  34.255  55.488  0.00  0.00     0.029 A 
ATOM     27  C   UNL d   1      54.601  33.778  55.520  0.00  0.00     0.032 A 
ENDBRANCH  21  23
ENDBRANCH  20  21
ENDBRANCH   2  20
TORSDOF 8
ENDMDL
MODEL 4
REMARK VINA RESULT:      -7.0      1.861      4.453
REMARK  8 active torsions:
REMARK  status: ('A' for Active; 'I' for Inactive)
REMARK    1  A    between atoms: C_7  and  C_1 
REMARK    2  A    between atoms: C_2  and  O_5 
REMARK    3  A    between atoms: C_4  and  C_2 
REMARK    4  A    between atoms: O_5  and  C_3 
REMARK    5  A    between atoms: C_6  and  C_7 
REMARK    6  A    between atoms: C_8  and  C_6 
REMARK    7  A    between atoms: C_11  and  C_8 
REMARK    8  A    between atoms: O_22  and  C_18 
ROOT
ATOM      1  C   UNL d   1      51.918  33.440  52.919  0.00  0.00     0.062 A 
ATOM      2  C   UNL d   1      52.279  33.970  53.455  0.00  0.00     0.106 A 
ATOM      3  C   UNL d   1      51.144  33.579  52.672  0.00  0.00     0.012 A 
ATOM      4  C   UNL d   1      51.858  34.621  53.726  0.00  0.00     0.025 A 
ATOM      5  C   UNL d   1      50.730  34.232  52.949  0.00  0.00     0.035 A 
ATOM      6  C   UNL d   1      51.087  34.757  53.479  0.00  0.00     0.009 A 
ATOM      7 BR   UNL d   1      49.954  34.368  52.699  0.00  0.00    -0.049 Br
ENDROOT
BRANCH   1   8
ATOM      8  C   UNL d   1      52.335  32.785  52.643  0.00  0.00     0.198 C 
ATOM      9  O   UNL d   1      52.867  32.872  52.015  0.00  0.00    -0.286 OA
BRANCH   8  10
ATOM     10  C   UNL d   1      52.223  32.047  52.989  0.00  0.00     0.042 C 
BRANCH  10  11
ATOM     11  C   UNL d   1      52.710  31.414  52.783  0.00  0.00     0.005 C 
BRANCH  11  12
ATOM     12  C   UNL d   1      52.652  30.692  53.191  0.00  0.00     0.022 A 
ATOM     13  C   UNL d   1      53.366  30.314  53.415  0.00  0.00     0.094 A 
ATOM     14  C   UNL d   1      53.285  29.582  53.828  0.00  0.00     0.024 A 
ATOM     15  C   UNL d   1      52.543  29.260  53.999  0.00  0.00     0.002 A 
ATOM     16  C   UNL d   1      51.850  29.667  53.758  0.00  0.00     0.000 A 
ATOM     17  C   UNL d   1      51.912  30.383  53.354  0.00  0.00     0.002 A 
BRANCH  13  18
ATOM     18  O   UNL d   1      54.107  30.630  53.248  0.00  0.00    -0.328 OA
ATOM     19  C   UNL d   1      54.778  30.148  53.260  0.00  0.00     0.181 C 
ENDBRANCH  13  18
ENDBRANCH  11  12
ENDBRANCH  10  11
ENDBRANCH   8  10
ENDBRANCH   1   8
BRANCH   2  20
ATOM     20  O   UNL d   1      53.050  33.834  53.702  0.00  0.00    -0.271 OA
BRANCH  20  21
ATOM     21  C   UNL d   1      53.362  34.277  54.326  0.00  0.00     0.323 C 
ATOM     22  O   UNL d   1      53.059  35.028  54.504  0.00  0.00    -0.257 OA
BRANCH  21  23
ATOM     23  C   UNL d   1      53.982  33.974  54.779  0.00  0.00     0.163 A 
ATOM     24  O   UNL d   1      53.901  33.502  55.450  0.00  0.00    -0.300 OA
ATOM     25  C   UNL d   1      54.669  33.323  55.729  0.00  0.00     0.123 A 
ATOM     26  C   UNL d   1      55.214  33.686  55.227  0.00  0.00     0.029 A 
ATOM     27  C   UNL d   1      54.789  34.088  54.640  0.00  0.00     0.032 A 
ENDBRANCH  21  23
ENDBRANCH  20  21
ENDBRANCH   2  20
TORSDOF 8
ENDMDL
MODEL 5
REMARK VINA RESULT:      -6.2      1.567      3.079
REMARK  8 active torsions:
REMARK  status: ('A' for Active; 'I' for Inactive)
REMARK    1  A    between atoms: C_7  and  C_1 
REMARK    2  A    between atoms: C_2  and  O_5 
REMARK    3  A    between atoms: C_4  and  C_2 
REMARK    4  A    between atoms: O_5  and  C_3 
REMARK    5  A    between atoms: C_6  and  C_7 
REMARK    6  A    between atoms: C_8  and  C_6 
REMARK    7  A    between atoms: C_11  and  C_8 
REMARK    8  A    between atoms: O_22  and  C_18 
ROOT
ATOM      1  C   UNL d   1      52.631  32.601  52.968  0.00  0.00     0.062 A 
ATOM      2  C   UNL d   1      53.183  32.881  53.529  0.00  0.00     0.106 A 
ATOM      3  C   UNL d   1      52.524  31.789  52.876  0.00  0.00     0.012 A 
ATOM      4  C   UNL d   1      53.611  32.344  53.978  0.00  0.00     0.025 A 
ATOM      5  C   UNL d   1      52.957  31.258  53.330  0.00  0.00     0.035 A 
ATOM      6  C   UNL d   1      53.504  31.536  53.885  0.00  0.00     0.009 A 
ATOM      7 BR   UNL d   1      52.848  30.445  53.234  0.00  0.00    -0.049 Br
ENDROOT
BRANCH   1   8
ATOM      8  C   UNL d   1      52.197  33.135  52.513  0.00  0.00     0.198 C 
ATOM      9  O   UNL d   1      52.520  33.436  51.814  0.00  0.00    -0.286 OA
BRANCH   8  10
ATOM     10  C   UNL d   1      51.445  33.367  52.754  0.00  0.00     0.042 C 
BRANCH  10  11
ATOM     11  C   UNL d   1      50.931  33.725  52.217  0.00  0.00     0.005 C 
BRANCH  11  12
ATOM     12  C   UNL d   1      50.321  34.221  52.489  0.00  0.00     0.022 A 
ATOM     13  C   UNL d   1      49.736  34.457  51.937  0.00  0.00     0.094 A 
ATOM     14  C   UNL d   1      49.126  34.960  52.233  0.00  0.00     0.024 A 
ATOM     15  C   UNL d   1      49.111  35.204  53.024  0.00  0.00     0.002 A 
ATOM     16  C   UNL d   1      49.714  34.947  53.547  0.00  0.00     0.000 A 
ATOM     17  C   UNL d   1      50.317  34.455  53.273  0.00  0.00     0.002 A 
BRANCH  13  18
ATOM     18  O   UNL d   1      49.747  34.217  51.150  0.00  0.00    -0.328 OA
ATOM     19  C   UNL d   1      49.082  34.326  50.672  0.00  0.00     0.181 C 
ENDBRANCH  13  18
ENDBRANCH  11  12
ENDBRANCH  10  11
ENDBRANCH   8  10
ENDBRANCH   1   8
BRANCH   2  20
ATOM     20  O   UNL d   1      53.290  33.689  53.623  0.00  0.00    -0.271 OA
BRANCH  20  21
ATOM     21  C   UNL d   1      53.707  33.972  54.278  0.00  0.00     0.323 C 
ATOM     22  O   UNL d   1      54.315  33.522  54.618  0.00  0.00    -0.257 OA
BRANCH  21  23
ATOM     23  C   UNL d   1      53.520  34.708  54.600  0.00  0.00     0.163 A 
ATOM     24  O   UNL d   1      53.282  34.848  55.377  0.00  0.00    -0.300 OA
ATOM     25  C   UNL d   1      53.152  35.670  55.460  0.00  0.00     0.123 A 
ATOM     26  C   UNL d   1      53.312  36.028  54.734  0.00  0.00     0.029 A 
ATOM     27  C   UNL d   1      53.540  35.434  54.203  0.00  0.00     0.032 A 
ENDBRANCH  21  23
ENDBRANCH  20  21
ENDBRANCH   2  20
TORSDOF 8
ENDMDL
MODEL 6
REMARK VINA RESULT:      -5.9      1.856      4.735
REMARK  8 active torsions:
REMARK  status: ('A' for Active; 'I' for Inactive)
REMARK    1  A    between atoms: C_7  and  C_1 
REMARK    2  A    between atoms: C_2  and  O_5 
REMARK    3  A    between atoms: C_4  and  C_2 
REMARK    4  A    between atoms: O_5  and  C_3 
REMARK    5  A    between atoms: C_6  and  C_7 
REMARK    6  A    between atoms: C_8  and  C_6 
REMARK    7  A    between atoms: C_11  and  C_8 
REMARK    8  A    between atoms: O_22  and  C_18 
ROOT
ATOM      1  C   UNL d   1      53.219  31.510  53.259  0.00  0.00     0.062 A 
ATOM      2  C   UNL d   1      52.407  31.588  53.082  0.00  0.00     0.106 A 
ATOM      3  C   UNL d   1      53.520  30.770  53.462  0.00  0.00     0.012 A 
ATOM      4  C   UNL d   1      51.921  30.927  53.112  0.00  0.00     0.025 A 
ATOM      5  C   UNL d   1      53.027  30.114  53.489  0.00  0.00     0.035 A 
ATOM      6  C   UNL d   1      52.222  30.191  53.314  0.00  0.00     0.009 A 
ATOM      7 BR   UNL d   1      53.332  29.374  53.693  0.00  0.00    -0.049 Br
ENDROOT
BRANCH   1   8
ATOM      8  C   UNL d   1      53.713  32.170  53.231  0.00  0.00     0.198 C 
ATOM      9  O   UNL d   1      53.941  32.481  52.500  0.00  0.00    -0.286 OA
BRANCH   8  10
ATOM     10  C   UNL d   1      53.978  32.518  53.928  0.00  0.00     0.042 C 
BRANCH  10  11
ATOM     11  C   UNL d   1      54.186  33.316  53.940  0.00  0.00     0.005 C 
BRANCH  11  12
ATOM     12  C   UNL d   1      54.401  33.682  54.655  0.00  0.00     0.022 A 
ATOM     13  C   UNL d   1      54.088  34.443  54.813  0.00  0.00     0.094 A 
ATOM     14  C   UNL d   1      54.318  34.797  55.544  0.00  0.00     0.024 A 
ATOM     15  C   UNL d   1      54.825  34.411  56.071  0.00  0.00     0.002 A 
ATOM     16  C   UNL d   1      55.119  33.649  55.879  0.00  0.00     0.000 A 
ATOM     17  C   UNL d   1      54.903  33.290  55.169  0.00  0.00     0.002 A 
BRANCH  13  18
ATOM     18  O   UNL d   1      53.583  34.831  54.291  0.00  0.00    -0.328 OA
ATOM     19  C   UNL d   1      53.281  35.577  54.480  0.00  0.00     0.181 C 
ENDBRANCH  13  18
ENDBRANCH  11  12
ENDBRANCH  10  11
ENDBRANCH   8  10
ENDBRANCH   1   8
BRANCH   2  20
ATOM     20  O   UNL d   1      52.105  32.324  52.881  0.00  0.00    -0.271 OA
BRANCH  20  21
ATOM     21  C   UNL d   1      51.299  32.477  52.985  0.00  0.00     0.323 C 
ATOM     22  O   UNL d   1      50.796  31.896  53.297  0.00  0.00    -0.257 OA
BRANCH  21  23
ATOM     23  C   UNL d   1      50.988  33.213  52.779  0.00  0.00     0.163 A 
ATOM     24  O   UNL d   1      51.132  33.616  52.074  0.00  0.00    -0.300 OA
ATOM     25  C   UNL d   1      50.706  34.335  52.100  0.00  0.00     0.123 A 
ATOM     26  C   UNL d   1      50.306  34.368  52.821  0.00  0.00     0.029 A 
ATOM     27  C   UNL d   1      50.480  33.675  53.240  0.00  0.00     0.032 A 
ENDBRANCH  21  23
ENDBRANCH  20  21
ENDBRANCH   2  20
TORSDOF 8
ENDMDL
