MODEL 1
REMARK VINA RESULT:      38.7      0.000      0.000
REMARK  6 active torsions:
REMARK  status: ('A' for Active; 'I' for Inactive)
REMARK       I    between atoms: N_2  and  C_1 
REMARK    1  A    between atoms: C_3  and  C_1 
REMARK    2  A    between atoms: C_5  and  N_2 
REMARK    3  A    between atoms: C_6  and  C_3 
REMARK    4  A    between atoms: C_8  and  C_5 
REMARK    5  A    between atoms: O_7  and  C_6 
REMARK    6  A    between atoms: C_9  and  O_7 
ROOT
ATOM      1  C   UNL d   1      60.491  49.252  51.125  0.00  0.00     0.330 C 
ATOM      2  N   UNL d   1      60.886  48.669  50.708  0.00  0.00    -0.362 NA
ATOM      3  O   UNL d   1      60.658  49.375  51.914  0.00  0.00    -0.251 OA
ENDROOT
BRANCH   1   4
ATOM      4  C   UNL d   1      59.931  49.707  50.748  0.00  0.00     0.103 C 
BRANCH   4   5
ATOM      5  C   UNL d   1      59.129  49.497  50.807  0.00  0.00     0.129 C 
BRANCH   5   6
ATOM      6  O   UNL d   1      58.600  49.707  50.198  0.00  0.00    -0.305 OA
BRANCH   6   7
ATOM      7  C   UNL d   1      57.784  49.671  50.325  0.00  0.00     0.100 A 
ATOM      8  C   UNL d   1      57.491  49.679  51.078  0.00  0.00     0.025 A 
ATOM      9  C   UNL d   1      56.666  49.643  51.215  0.00  0.00     0.002 A 
ATOM     10  C   UNL d   1      56.159  49.599  50.560  0.00  0.00     0.000 A 
ATOM     11  C   UNL d   1      56.452  49.591  49.807  0.00  0.00     0.002 A 
ATOM     12  C   UNL d   1      57.264  49.627  49.679  0.00  0.00     0.025 A 
ENDBRANCH   6   7
ENDBRANCH   5   6
ENDBRANCH   4   5
ENDBRANCH   1   4
BRANCH   2  13
ATOM     13  C   UNL d   1      61.275  48.088  50.275  0.00  0.00     0.165 C 
BRANCH  13  14
ATOM     14  C   UNL d   1      61.178  47.291  50.449  0.00  0.00     0.032 A 
ATOM     15  C   UNL d   1      60.605  47.057  50.994  0.00  0.00     0.003 A 
ATOM     16  C   UNL d   1      60.507  46.249  51.171  0.00  0.00     0.000 A 
ATOM     17  C   UNL d   1      60.983  45.683  50.800  0.00  0.00     0.000 A 
ATOM     18  C   UNL d   1      61.551  45.923  50.259  0.00  0.00     0.000 A 
ATOM     19  C   UNL d   1      61.649  46.732  50.083  0.00  0.00     0.003 A 
ENDBRANCH  13  14
ENDBRANCH   2  13
TORSDOF 6
ENDMDL
MODEL 2
REMARK VINA RESULT:      40.3      1.002      4.565
REMARK  6 active torsions:
REMARK  status: ('A' for Active; 'I' for Inactive)
REMARK       I    between atoms: N_2  and  C_1 
REMARK    1  A    between atoms: C_3  and  C_1 
REMARK    2  A    between atoms: C_5  and  N_2 
REMARK    3  A    between atoms: C_6  and  C_3 
REMARK    4  A    between atoms: C_8  and  C_5 
REMARK    5  A    between atoms: O_7  and  C_6 
REMARK    6  A    between atoms: C_9  and  O_7 
ROOT
ATOM      1  C   UNL d   1      60.270  49.304  50.425  0.00  0.00     0.330 C 
ATOM      2  N   UNL d   1      59.526  49.510  50.696  0.00  0.00    -0.362 NA
ATOM      3  O   UNL d   1      60.582  49.675  49.769  0.00  0.00    -0.251 OA
ENDROOT
BRANCH   1   4
ATOM      4  C   UNL d   1      60.695  48.728  50.812  0.00  0.00     0.103 C 
BRANCH   4   5
ATOM      5  C   UNL d   1      60.744  47.968  50.481  0.00  0.00     0.129 C 
BRANCH   5   6
ATOM      6  O   UNL d   1      61.402  47.485  50.650  0.00  0.00    -0.305 OA
BRANCH   6   7
ATOM      7  C   UNL d   1      61.519  46.780  50.233  0.00  0.00     0.100 A 
ATOM      8  C   UNL d   1      62.033  46.758  49.610  0.00  0.00     0.025 A 
ATOM      9  C   UNL d   1      62.157  46.048  49.184  0.00  0.00     0.002 A 
ATOM     10  C   UNL d   1      61.739  45.371  49.417  0.00  0.00     0.000 A 
ATOM     11  C   UNL d   1      61.225  45.393  50.040  0.00  0.00     0.002 A 
ATOM     12  C   UNL d   1      61.107  46.093  50.455  0.00  0.00     0.025 A 
ENDBRANCH   6   7
ENDBRANCH   5   6
ENDBRANCH   4   5
ENDBRANCH   1   4
BRANCH   2  13
ATOM     13  C   UNL d   1      58.779  49.705  50.982  0.00  0.00     0.165 C 
BRANCH  13  14
ATOM     14  C   UNL d   1      58.106  49.590  50.527  0.00  0.00     0.032 A 
ATOM     15  C   UNL d   1      57.402  49.357  50.888  0.00  0.00     0.003 A 
ATOM     16  C   UNL d   1      56.718  49.240  50.427  0.00  0.00     0.000 A 
ATOM     17  C   UNL d   1      56.746  49.359  49.609  0.00  0.00     0.000 A 
ATOM     18  C   UNL d   1      57.449  49.591  49.256  0.00  0.00     0.000 A 
ATOM     19  C   UNL d   1      58.132  49.707  49.717  0.00  0.00     0.003 A 
ENDBRANCH  13  14
ENDBRANCH   2  13
TORSDOF 6
ENDMDL
