MODEL 1
REMARK VINA RESULT:     -11.4      0.000      0.000
REMARK  3 active torsions:
REMARK  status: ('A' for Active; 'I' for Inactive)
REMARK    1  A    between atoms: C_8  and  C_1 
REMARK    2  A    between atoms: O_12  and  C_8 
REMARK    3  A    between atoms: C_21  and  O_12 
ROOT
ATOM      1  C   UNL d   1      52.210  33.779  53.215  0.00  0.00     0.084 A 
ATOM      2  C   UNL d   1      52.545  33.044  53.305  0.00  0.00     0.065 A 
ATOM      3  C   UNL d   1      53.176  33.104  53.896  0.00  0.00     0.107 A 
ATOM      4  N   UNL d   1      53.224  33.865  54.161  0.00  0.00    -0.302 N 
ATOM      5  C   UNL d   1      52.624  34.283  53.737  0.00  0.00     0.070 A 
ATOM      6  C   UNL d   1      52.368  32.330  52.938  0.00  0.00     0.197 A 
ATOM      7  C   UNL d   1      53.627  32.449  54.115  0.00  0.00     0.212 A 
ATOM      8  C   UNL d   1      52.814  31.684  53.155  0.00  0.00     0.042 A 
ATOM      9  C   UNL d   1      53.446  31.744  53.746  0.00  0.00     0.043 A 
ATOM     10  C   UNL d   1      53.738  34.241  54.736  0.00  0.00     0.080 A 
ATOM     11  C   UNL d   1      52.541  35.077  53.892  0.00  0.00     0.018 A 
ATOM     12  O   UNL d   1      51.748  32.271  52.357  0.00  0.00    -0.286 OA
ATOM     13  O   UNL d   1      54.248  32.503  54.695  0.00  0.00    -0.285 OA
ATOM     14  C   UNL d   1      53.652  35.029  54.887  0.00  0.00     0.019 A 
ATOM     15  C   UNL d   1      53.047  35.451  54.461  0.00  0.00     0.003 A 
ATOM     16  C   UNL d   1      52.634  30.970  52.784  0.00  0.00     0.003 A 
ATOM     17  C   UNL d   1      53.890  31.089  53.958  0.00  0.00     0.003 A 
ATOM     18  C   UNL d   1      53.084  30.320  53.004  0.00  0.00     0.000 A 
ATOM     19  C   UNL d   1      53.709  30.379  53.588  0.00  0.00     0.000 A 
ENDROOT
BRANCH   1  20
ATOM     20  C   UNL d   1      51.567  33.970  52.687  0.00  0.00     0.302 C 
ATOM     21  O   UNL d   1      51.731  34.226  51.937  0.00  0.00    -0.259 OA
BRANCH  20  22
ATOM     22  O   UNL d   1      50.770  33.904  52.913  0.00  0.00    -0.273 OA
BRANCH  22  23
ATOM     23  C   UNL d   1      50.144  34.351  52.525  0.00  0.00     0.103 C 
ATOM     24  C   UNL d   1      49.658  34.884  52.986  0.00  0.00     0.027 C 
ATOM     25  C   UNL d   1      50.008  34.263  51.689  0.00  0.00     0.027 C 
ENDBRANCH  22  23
ENDBRANCH  20  22
ENDBRANCH   1  20
TORSDOF 3
ENDMDL
MODEL 2
REMARK VINA RESULT:     -10.6      0.996      3.357
REMARK  3 active torsions:
REMARK  status: ('A' for Active; 'I' for Inactive)
REMARK    1  A    between atoms: C_8  and  C_1 
REMARK    2  A    between atoms: O_12  and  C_8 
REMARK    3  A    between atoms: C_21  and  O_12 
ROOT
ATOM      1  C   UNL d   1      53.276  32.498  53.656  0.00  0.00     0.084 A 
ATOM      2  C   UNL d   1      52.668  33.004  53.469  0.00  0.00     0.065 A 
ATOM      3  C   UNL d   1      52.807  33.757  53.876  0.00  0.00     0.107 A 
ATOM      4  N   UNL d   1      53.490  33.708  54.305  0.00  0.00    -0.302 N 
ATOM      5  C   UNL d   1      53.780  32.926  54.167  0.00  0.00     0.070 A 
ATOM      6  C   UNL d   1      52.010  32.892  52.989  0.00  0.00     0.197 A 
ATOM      7  C   UNL d   1      52.286  34.392  53.801  0.00  0.00     0.212 A 
ATOM      8  C   UNL d   1      51.497  33.519  52.915  0.00  0.00     0.042 A 
ATOM      9  C   UNL d   1      51.636  34.272  53.323  0.00  0.00     0.043 A 
ATOM     10  C   UNL d   1      53.893  34.274  54.808  0.00  0.00     0.080 A 
ATOM     11  C   UNL d   1      54.474  32.715  54.534  0.00  0.00     0.018 A 
ATOM     12  O   UNL d   1      51.874  32.152  52.588  0.00  0.00    -0.286 OA
ATOM     13  O   UNL d   1      52.418  35.133  54.199  0.00  0.00    -0.285 OA
ATOM     14  C   UNL d   1      54.581  34.060  55.170  0.00  0.00     0.019 A 
ATOM     15  C   UNL d   1      54.874  33.272  55.032  0.00  0.00     0.003 A 
ATOM     16  C   UNL d   1      50.838  33.403  52.433  0.00  0.00     0.003 A 
ATOM     17  C   UNL d   1      51.114  34.898  53.243  0.00  0.00     0.003 A 
ATOM     18  C   UNL d   1      50.322  34.036  52.359  0.00  0.00     0.000 A 
ATOM     19  C   UNL d   1      50.459  34.780  52.762  0.00  0.00     0.000 A 
ENDROOT
BRANCH   1  20
ATOM     20  C   UNL d   1      53.359  31.696  53.373  0.00  0.00     0.302 C 
ATOM     21  O   UNL d   1      53.619  31.566  52.618  0.00  0.00    -0.259 OA
BRANCH  20  22
ATOM     22  O   UNL d   1      53.183  31.037  53.847  0.00  0.00    -0.273 OA
BRANCH  22  23
ATOM     23  C   UNL d   1      53.344  30.230  53.590  0.00  0.00     0.103 C 
ATOM     24  C   UNL d   1      52.693  29.711  53.393  0.00  0.00     0.027 C 
ATOM     25  C   UNL d   1      54.147  29.950  53.532  0.00  0.00     0.027 C 
ENDBRANCH  22  23
ENDBRANCH  20  22
ENDBRANCH   1  20
TORSDOF 3
ENDMDL
MODEL 3
REMARK VINA RESULT:     -10.0      1.198      3.375
REMARK  3 active torsions:
REMARK  status: ('A' for Active; 'I' for Inactive)
REMARK    1  A    between atoms: C_8  and  C_1 
REMARK    2  A    between atoms: O_12  and  C_8 
REMARK    3  A    between atoms: C_21  and  O_12 
ROOT
ATOM      1  C   UNL d   1      52.688  32.428  53.315  0.00  0.00     0.084 A 
ATOM      2  C   UNL d   1      53.167  32.906  53.764  0.00  0.00     0.065 A 
ATOM      3  C   UNL d   1      52.769  33.669  53.867  0.00  0.00     0.107 A 
ATOM      4  N   UNL d   1      52.057  33.654  53.486  0.00  0.00    -0.302 N 
ATOM      5  C   UNL d   1      52.008  32.882  53.144  0.00  0.00     0.070 A 
ATOM      6  C   UNL d   1      53.907  32.761  54.094  0.00  0.00     0.197 A 
ATOM      7  C   UNL d   1      53.113  34.282  54.300  0.00  0.00     0.212 A 
ATOM      8  C   UNL d   1      54.245  33.366  54.520  0.00  0.00     0.042 A 
ATOM      9  C   UNL d   1      53.846  34.129  54.623  0.00  0.00     0.043 A 
ATOM     10  C   UNL d   1      51.439  34.242  53.402  0.00  0.00     0.080 A 
ATOM     11  C   UNL d   1      51.338  32.704  52.718  0.00  0.00     0.018 A 
ATOM     12  O   UNL d   1      54.298  32.011  53.992  0.00  0.00    -0.286 OA
ATOM     13  O   UNL d   1      52.725  35.033  54.404  0.00  0.00    -0.285 OA
ATOM     14  C   UNL d   1      50.776  34.061  52.979  0.00  0.00     0.019 A 
ATOM     15  C   UNL d   1      50.726  33.284  52.634  0.00  0.00     0.003 A 
ATOM     16  C   UNL d   1      54.986  33.217  54.849  0.00  0.00     0.003 A 
ATOM     17  C   UNL d   1      54.194  34.733  55.054  0.00  0.00     0.003 A 
ATOM     18  C   UNL d   1      55.326  33.828  55.278  0.00  0.00     0.000 A 
ATOM     19  C   UNL d   1      54.932  34.582  55.380  0.00  0.00     0.000 A 
ENDROOT
BRANCH   1  20
ATOM     20  C   UNL d   1      52.866  31.626  53.080  0.00  0.00     0.302 C 
ATOM     21  O   UNL d   1      53.322  31.496  52.424  0.00  0.00    -0.259 OA
BRANCH  20  22
ATOM     22  O   UNL d   1      52.588  30.966  53.502  0.00  0.00    -0.273 OA
BRANCH  22  23
ATOM     23  C   UNL d   1      52.781  30.159  53.271  0.00  0.00     0.103 C 
ATOM     24  C   UNL d   1      53.108  29.620  53.851  0.00  0.00     0.027 C 
ATOM     25  C   UNL d   1      52.649  29.898  52.471  0.00  0.00     0.027 C 
ENDBRANCH  22  23
ENDBRANCH  20  22
ENDBRANCH   1  20
TORSDOF 3
ENDMDL
MODEL 4
REMARK VINA RESULT:      -9.2      1.262      3.060
REMARK  3 active torsions:
REMARK  status: ('A' for Active; 'I' for Inactive)
REMARK    1  A    between atoms: C_8  and  C_1 
REMARK    2  A    between atoms: O_12  and  C_8 
REMARK    3  A    between atoms: C_21  and  O_12 
ROOT
ATOM      1  C   UNL d   1      53.616  33.079  53.694  0.00  0.00     0.084 A 
ATOM      2  C   UNL d   1      53.382  32.312  53.566  0.00  0.00     0.065 A 
ATOM      3  C   UNL d   1      52.624  32.326  53.144  0.00  0.00     0.107 A 
ATOM      4  N   UNL d   1      52.403  33.093  53.018  0.00  0.00    -0.302 N 
ATOM      5  C   UNL d   1      53.020  33.559  53.360  0.00  0.00     0.070 A 
ATOM      6  C   UNL d   1      53.744  31.602  53.770  0.00  0.00     0.197 A 
ATOM      7  C   UNL d   1      52.235  31.632  52.930  0.00  0.00     0.212 A 
ATOM      8  C   UNL d   1      53.359  30.918  53.558  0.00  0.00     0.042 A 
ATOM      9  C   UNL d   1      52.602  30.932  53.137  0.00  0.00     0.043 A 
ATOM     10  C   UNL d   1      51.716  33.435  52.635  0.00  0.00     0.080 A 
ATOM     11  C   UNL d   1      52.945  34.367  53.315  0.00  0.00     0.018 A 
ATOM     12  O   UNL d   1      54.489  31.588  54.184  0.00  0.00    -0.286 OA
ATOM     13  O   UNL d   1      51.491  31.641  52.516  0.00  0.00    -0.285 OA
ATOM     14  C   UNL d   1      51.646  34.237  52.593  0.00  0.00     0.019 A 
ATOM     15  C   UNL d   1      52.268  34.709  52.937  0.00  0.00     0.003 A 
ATOM     16  C   UNL d   1      53.726  30.208  53.765  0.00  0.00     0.003 A 
ATOM     17  C   UNL d   1      52.221  30.238  52.927  0.00  0.00     0.003 A 
ATOM     18  C   UNL d   1      53.336  29.519  53.551  0.00  0.00     0.000 A 
ATOM     19  C   UNL d   1      52.588  29.533  53.134  0.00  0.00     0.000 A 
ENDROOT
BRANCH   1  20
ATOM     20  C   UNL d   1      54.333  33.319  54.092  0.00  0.00     0.302 C 
ATOM     21  O   UNL d   1      55.046  33.224  53.720  0.00  0.00    -0.259 OA
BRANCH  20  22
ATOM     22  O   UNL d   1      54.329  33.650  54.854  0.00  0.00    -0.273 OA
BRANCH  22  23
ATOM     23  C   UNL d   1      55.056  33.871  55.262  0.00  0.00     0.103 C 
ATOM     24  C   UNL d   1      55.149  33.680  56.092  0.00  0.00     0.027 C 
ATOM     25  C   UNL d   1      55.678  34.275  54.844  0.00  0.00     0.027 C 
ENDBRANCH  22  23
ENDBRANCH  20  22
ENDBRANCH   1  20
TORSDOF 3
ENDMDL
MODEL 5
REMARK VINA RESULT:      -9.1      1.169      3.933
REMARK  3 active torsions:
REMARK  status: ('A' for Active; 'I' for Inactive)
REMARK    1  A    between atoms: C_8  and  C_1 
REMARK    2  A    between atoms: O_12  and  C_8 
REMARK    3  A    between atoms: C_21  and  O_12 
ROOT
ATOM      1  C   UNL d   1      53.580  32.603  53.674  0.00  0.00     0.084 A 
ATOM      2  C   UNL d   1      52.865  32.940  53.483  0.00  0.00     0.065 A 
ATOM      3  C   UNL d   1      52.322  32.307  53.244  0.00  0.00     0.107 A 
ATOM      4  N   UNL d   1      52.703  31.596  53.290  0.00  0.00    -0.302 N 
ATOM      5  C   UNL d   1      53.483  31.781  53.557  0.00  0.00     0.070 A 
ATOM      6  C   UNL d   1      52.628  33.727  53.491  0.00  0.00     0.197 A 
ATOM      7  C   UNL d   1      51.546  32.466  53.015  0.00  0.00     0.212 A 
ATOM      8  C   UNL d   1      51.862  33.883  53.265  0.00  0.00     0.042 A 
ATOM      9  C   UNL d   1      51.319  33.250  53.026  0.00  0.00     0.043 A 
ATOM     10  C   UNL d   1      52.444  30.796  53.123  0.00  0.00     0.080 A 
ATOM     11  C   UNL d   1      54.001  31.162  53.656  0.00  0.00     0.018 A 
ATOM     12  O   UNL d   1      53.161  34.348  53.726  0.00  0.00    -0.286 OA
ATOM     13  O   UNL d   1      51.010  31.849  52.780  0.00  0.00    -0.285 OA
ATOM     14  C   UNL d   1      52.961  30.184  53.223  0.00  0.00     0.019 A 
ATOM     15  C   UNL d   1      53.748  30.370  53.492  0.00  0.00     0.003 A 
ATOM     16  C   UNL d   1      51.628  34.673  53.274  0.00  0.00     0.003 A 
ATOM     17  C   UNL d   1      50.550  33.416  52.799  0.00  0.00     0.003 A 
ATOM     18  C   UNL d   1      50.855  34.829  53.045  0.00  0.00     0.000 A 
ATOM     19  C   UNL d   1      50.319  34.204  52.809  0.00  0.00     0.000 A 
ENDROOT
BRANCH   1  20
ATOM     20  C   UNL d   1      54.273  33.026  53.939  0.00  0.00     0.302 C 
ATOM     21  O   UNL d   1      54.742  33.399  53.396  0.00  0.00    -0.259 OA
BRANCH  20  22
ATOM     22  O   UNL d   1      54.488  33.071  54.740  0.00  0.00    -0.273 OA
BRANCH  22  23
ATOM     23  C   UNL d   1      55.143  33.560  55.013  0.00  0.00     0.103 C 
ATOM     24  C   UNL d   1      55.108  33.920  55.789  0.00  0.00     0.027 C 
ATOM     25  C   UNL d   1      55.823  33.684  54.514  0.00  0.00     0.027 C 
ENDBRANCH  22  23
ENDBRANCH  20  22
ENDBRANCH   1  20
TORSDOF 3
ENDMDL
MODEL 6
REMARK VINA RESULT:      -9.1      0.903      2.746
REMARK  3 active torsions:
REMARK  status: ('A' for Active; 'I' for Inactive)
REMARK    1  A    between atoms: C_8  and  C_1 
REMARK    2  A    between atoms: O_12  and  C_8 
REMARK    3  A    between atoms: C_21  and  O_12 
ROOT
ATOM      1  C   UNL d   1      52.410  33.029  53.188  0.00  0.00     0.084 A 
ATOM      2  C   UNL d   1      52.996  33.256  53.704  0.00  0.00     0.065 A 
ATOM      3  C   UNL d   1      53.450  32.551  53.925  0.00  0.00     0.107 A 
ATOM      4  N   UNL d   1      53.143  31.906  53.548  0.00  0.00    -0.302 N 
ATOM      5  C   UNL d   1      52.498  32.204  53.091  0.00  0.00     0.070 A 
ATOM      6  C   UNL d   1      53.183  33.998  54.005  0.00  0.00     0.197 A 
ATOM      7  C   UNL d   1      54.088  32.593  54.446  0.00  0.00     0.212 A 
ATOM      8  C   UNL d   1      53.813  34.038  54.519  0.00  0.00     0.042 A 
ATOM      9  C   UNL d   1      54.267  33.333  54.740  0.00  0.00     0.043 A 
ATOM     10  C   UNL d   1      53.365  31.078  53.557  0.00  0.00     0.080 A 
ATOM     11  C   UNL d   1      52.078  31.670  52.644  0.00  0.00     0.018 A 
ATOM     12  O   UNL d   1      52.737  34.690  53.788  0.00  0.00    -0.286 OA
ATOM     13  O   UNL d   1      54.537  31.904  54.665  0.00  0.00    -0.285 OA
ATOM     14  C   UNL d   1      52.946  30.551  53.113  0.00  0.00     0.019 A 
ATOM     15  C   UNL d   1      52.295  30.851  52.652  0.00  0.00     0.003 A 
ATOM     16  C   UNL d   1      53.998  34.783  54.819  0.00  0.00     0.003 A 
ATOM     17  C   UNL d   1      54.900  33.383  55.258  0.00  0.00     0.003 A 
ATOM     18  C   UNL d   1      54.633  34.822  55.337  0.00  0.00     0.000 A 
ATOM     19  C   UNL d   1      55.082  34.126  55.555  0.00  0.00     0.000 A 
ENDROOT
BRANCH   1  20
ATOM     20  C   UNL d   1      51.834  33.550  52.832  0.00  0.00     0.302 C 
ATOM     21  O   UNL d   1      52.045  33.999  52.192  0.00  0.00    -0.259 OA
BRANCH  20  22
ATOM     22  O   UNL d   1      51.057  33.616  53.118  0.00  0.00    -0.273 OA
BRANCH  22  23
ATOM     23  C   UNL d   1      50.460  34.094  52.720  0.00  0.00     0.103 C 
ATOM     24  C   UNL d   1      49.999  34.657  53.172  0.00  0.00     0.027 C 
ATOM     25  C   UNL d   1      50.329  34.009  51.883  0.00  0.00     0.027 C 
ENDBRANCH  22  23
ENDBRANCH  20  22
ENDBRANCH   1  20
TORSDOF 3
ENDMDL
