MODEL 1
REMARK VINA RESULT:      64.5      0.000      0.000
REMARK  4 active torsions:
REMARK  status: ('A' for Active; 'I' for Inactive)
REMARK    1  A    between atoms: C_7  and  N_1 
REMARK    2  A    between atoms: N_6  and  C_2 
REMARK    3  A    between atoms: C_10  and  N_6 
REMARK    4  A    between atoms: C_12  and  C_7 
ROOT
ATOM      1  N   UNL d   1     -47.088  30.006  35.513  0.00  0.00    -0.239 N 
ATOM      2  C   UNL d   1     -47.067  31.317  35.187  0.00  0.00     0.151 A 
ATOM      3  C   UNL d   1     -47.357  30.762  35.766  0.00  0.00     0.285 A 
ATOM      4  C   UNL d   1     -46.635  30.113  34.780  0.00  0.00     0.269 A 
ATOM      5  C   UNL d   1     -46.642  30.913  34.612  0.00  0.00     0.086 A 
ATOM      6  O   UNL d   1     -47.730  30.946  36.310  0.00  0.00    -0.265 OA
ATOM      7  O   UNL d   1     -46.390  29.549  34.521  0.00  0.00    -0.267 OA
ENDROOT
BRANCH   2   8
ATOM      8  N   UNL d   1     -47.182  32.139  35.183  0.00  0.00    -0.181 N 
ATOM      9  O   UNL d   1     -46.849  32.418  35.799  0.00  0.00    -0.080 OA
BRANCH   8  10
ATOM     10  C   UNL d   1     -47.602  32.496  34.567  0.00  0.00     0.090 A 
ATOM     11  C   UNL d   1     -48.418  32.372  34.476  0.00  0.00     0.020 A 
ATOM     12  C   UNL d   1     -48.834  32.736  33.850  0.00  0.00     0.002 A 
ATOM     13  C   UNL d   1     -48.444  33.229  33.306  0.00  0.00     0.000 A 
ATOM     14  C   UNL d   1     -47.629  33.351  33.399  0.00  0.00     0.002 A 
ATOM     15  C   UNL d   1     -47.209  32.992  34.019  0.00  0.00     0.020 A 
ENDBRANCH   8  10
ENDBRANCH   2   8
BRANCH   1  16
ATOM     16  C   UNL d   1     -47.173  29.290  35.807  0.00  0.00     0.086 C 
BRANCH  16  17
ATOM     17  C   UNL d   1     -47.858  28.871  35.682  0.00  0.00     0.018 A 
ATOM     18  C   UNL d   1     -47.981  28.506  34.964  0.00  0.00     0.002 A 
ATOM     19  C   UNL d   1     -48.666  28.087  34.838  0.00  0.00     0.000 A 
ATOM     20  C   UNL d   1     -49.224  28.029  35.418  0.00  0.00     0.000 A 
ATOM     21  C   UNL d   1     -49.098  28.399  36.146  0.00  0.00     0.000 A 
ATOM     22  C   UNL d   1     -48.405  28.826  36.279  0.00  0.00     0.002 A 
ENDBRANCH  16  17
ENDBRANCH   1  16
TORSDOF 4
ENDMDL
MODEL 2
REMARK VINA RESULT:      64.9      0.555      3.921
REMARK  4 active torsions:
REMARK  status: ('A' for Active; 'I' for Inactive)
REMARK    1  A    between atoms: C_7  and  N_1 
REMARK    2  A    between atoms: N_6  and  C_2 
REMARK    3  A    between atoms: C_10  and  N_6 
REMARK    4  A    between atoms: C_12  and  C_7 
ROOT
ATOM      1  N   UNL d   1     -46.983  31.675  34.884  0.00  0.00    -0.239 N 
ATOM      2  C   UNL d   1     -47.035  30.404  35.338  0.00  0.00     0.151 A 
ATOM      3  C   UNL d   1     -46.873  30.875  34.646  0.00  0.00     0.285 A 
ATOM      4  C   UNL d   1     -47.211  31.677  35.722  0.00  0.00     0.269 A 
ATOM      5  C   UNL d   1     -47.233  30.897  35.964  0.00  0.00     0.086 A 
ATOM      6  O   UNL d   1     -46.694  30.608  34.042  0.00  0.00    -0.265 OA
ATOM      7  O   UNL d   1     -47.315  32.284  35.979  0.00  0.00    -0.267 OA
ENDROOT
BRANCH   2   8
ATOM      8  N   UNL d   1     -47.004  29.576  35.395  0.00  0.00    -0.181 N 
ATOM      9  O   UNL d   1     -46.287  29.368  35.292  0.00  0.00    -0.080 OA
BRANCH   8  10
ATOM     10  C   UNL d   1     -47.694  29.145  35.541  0.00  0.00     0.090 A 
ATOM     11  C   UNL d   1     -48.043  28.681  34.948  0.00  0.00     0.020 A 
ATOM     12  C   UNL d   1     -48.740  28.249  35.105  0.00  0.00     0.002 A 
ATOM     13  C   UNL d   1     -49.100  28.272  35.854  0.00  0.00     0.000 A 
ATOM     14  C   UNL d   1     -48.749  28.736  36.445  0.00  0.00     0.002 A 
ATOM     15  C   UNL d   1     -48.056  29.169  36.296  0.00  0.00     0.020 A 
ENDBRANCH   8  10
ENDBRANCH   2   8
BRANCH   1  16
ATOM     16  C   UNL d   1     -46.918  32.352  34.505  0.00  0.00     0.086 C 
BRANCH  16  17
ATOM     17  C   UNL d   1     -47.553  32.664  34.104  0.00  0.00     0.018 A 
ATOM     18  C   UNL d   1     -48.262  32.265  34.100  0.00  0.00     0.002 A 
ATOM     19  C   UNL d   1     -48.897  32.576  33.699  0.00  0.00     0.000 A 
ATOM     20  C   UNL d   1     -48.829  33.277  33.306  0.00  0.00     0.000 A 
ATOM     21  C   UNL d   1     -48.109  33.682  33.310  0.00  0.00     0.000 A 
ATOM     22  C   UNL d   1     -47.462  33.370  33.715  0.00  0.00     0.002 A 
ENDBRANCH  16  17
ENDBRANCH   1  16
TORSDOF 4
ENDMDL
MODEL 3
REMARK VINA RESULT:      65.0      5.439      6.725
REMARK  4 active torsions:
REMARK  status: ('A' for Active; 'I' for Inactive)
REMARK    1  A    between atoms: C_7  and  N_1 
REMARK    2  A    between atoms: N_6  and  C_2 
REMARK    3  A    between atoms: C_10  and  N_6 
REMARK    4  A    between atoms: C_12  and  C_7 
ROOT
ATOM      1  N   UNL d   1     -51.013  25.854  33.919  0.00  0.00    -0.239 N 
ATOM      2  C   UNL d   1     -50.945  26.592  35.048  0.00  0.00     0.151 A 
ATOM      3  C   UNL d   1     -50.582  25.939  34.637  0.00  0.00     0.285 A 
ATOM      4  C   UNL d   1     -51.634  26.460  33.905  0.00  0.00     0.269 A 
ATOM      5  C   UNL d   1     -51.565  26.887  34.599  0.00  0.00     0.086 A 
ATOM      6  O   UNL d   1     -50.050  25.587  34.885  0.00  0.00    -0.265 OA
ATOM      7  O   UNL d   1     -52.017  26.451  33.358  0.00  0.00    -0.267 OA
ENDROOT
BRANCH   2   8
ATOM      8  N   UNL d   1     -50.724  26.899  35.787  0.00  0.00    -0.181 N 
ATOM      9  O   UNL d   1     -50.180  27.407  35.668  0.00  0.00    -0.080 OA
BRANCH   8  10
ATOM     10  C   UNL d   1     -51.096  26.630  36.476  0.00  0.00     0.090 A 
ATOM     11  C   UNL d   1     -50.661  26.485  37.168  0.00  0.00     0.020 A 
ATOM     12  C   UNL d   1     -51.045  26.214  37.858  0.00  0.00     0.002 A 
ATOM     13  C   UNL d   1     -51.866  26.083  37.870  0.00  0.00     0.000 A 
ATOM     14  C   UNL d   1     -52.298  26.229  37.176  0.00  0.00     0.002 A 
ATOM     15  C   UNL d   1     -51.923  26.499  36.486  0.00  0.00     0.020 A 
ENDBRANCH   8  10
ENDBRANCH   2   8
BRANCH   1  16
ATOM     16  C   UNL d   1     -50.947  25.361  33.319  0.00  0.00     0.086 C 
BRANCH  16  17
ATOM     17  C   UNL d   1     -51.319  24.639  33.336  0.00  0.00     0.018 A 
ATOM     18  C   UNL d   1     -50.875  23.957  33.342  0.00  0.00     0.002 A 
ATOM     19  C   UNL d   1     -51.247  23.234  33.358  0.00  0.00     0.000 A 
ATOM     20  C   UNL d   1     -52.052  23.188  33.368  0.00  0.00     0.000 A 
ATOM     21  C   UNL d   1     -52.503  23.881  33.361  0.00  0.00     0.000 A 
ATOM     22  C   UNL d   1     -52.130  24.616  33.345  0.00  0.00     0.002 A 
ENDBRANCH  16  17
ENDBRANCH   1  16
TORSDOF 4
ENDMDL
MODEL 4
REMARK VINA RESULT:      67.4      3.149      5.556
REMARK  4 active torsions:
REMARK  status: ('A' for Active; 'I' for Inactive)
REMARK    1  A    between atoms: C_7  and  N_1 
REMARK    2  A    between atoms: N_6  and  C_2 
REMARK    3  A    between atoms: C_10  and  N_6 
REMARK    4  A    between atoms: C_12  and  C_7 
ROOT
ATOM      1  N   UNL d   1     -49.060  27.404  34.564  0.00  0.00    -0.239 N 
ATOM      2  C   UNL d   1     -50.124  27.014  33.829  0.00  0.00     0.151 A 
ATOM      3  C   UNL d   1     -49.845  27.109  34.629  0.00  0.00     0.285 A 
ATOM      4  C   UNL d   1     -48.872  27.485  33.720  0.00  0.00     0.269 A 
ATOM      5  C   UNL d   1     -49.534  27.242  33.306  0.00  0.00     0.086 A 
ATOM      6  O   UNL d   1     -50.224  26.960  35.180  0.00  0.00    -0.265 OA
ATOM      7  O   UNL d   1     -48.259  27.716  33.594  0.00  0.00    -0.267 OA
ENDROOT
BRANCH   2   8
ATOM      8  N   UNL d   1     -50.870  26.738  33.591  0.00  0.00    -0.181 N 
ATOM      9  O   UNL d   1     -51.316  27.338  33.500  0.00  0.00    -0.080 OA
BRANCH   8  10
ATOM     10  C   UNL d   1     -51.000  25.926  33.497  0.00  0.00     0.090 A 
ATOM     11  C   UNL d   1     -50.368  25.388  33.492  0.00  0.00     0.020 A 
ATOM     12  C   UNL d   1     -50.510  24.571  33.397  0.00  0.00     0.002 A 
ATOM     13  C   UNL d   1     -51.282  24.277  33.306  0.00  0.00     0.000 A 
ATOM     14  C   UNL d   1     -51.912  24.817  33.311  0.00  0.00     0.002 A 
ATOM     15  C   UNL d   1     -51.779  25.631  33.405  0.00  0.00     0.020 A 
ENDBRANCH   8  10
ENDBRANCH   2   8
BRANCH   1  16
ATOM     16  C   UNL d   1     -48.524  27.598  35.095  0.00  0.00     0.086 C 
BRANCH  16  17
ATOM     17  C   UNL d   1     -48.337  28.378  35.226  0.00  0.00     0.018 A 
ATOM     18  C   UNL d   1     -48.789  28.964  34.888  0.00  0.00     0.002 A 
ATOM     19  C   UNL d   1     -48.602  29.744  35.019  0.00  0.00     0.000 A 
ATOM     20  C   UNL d   1     -47.972  29.942  35.482  0.00  0.00     0.000 A 
ATOM     21  C   UNL d   1     -47.513  29.347  35.825  0.00  0.00     0.000 A 
ATOM     22  C   UNL d   1     -47.698  28.555  35.695  0.00  0.00     0.002 A 
ENDBRANCH  16  17
ENDBRANCH   1  16
TORSDOF 4
ENDMDL
