MODEL 1
REMARK VINA RESULT:      58.6      0.000      0.000
REMARK  3 active torsions:
REMARK  status: ('A' for Active; 'I' for Inactive)
REMARK    1  A    between atoms: N_2  and  C_1 
REMARK    2  A    between atoms: N_3  and  C_1 
REMARK       I    between atoms: C_4  and  N_3 
REMARK    3  A    between atoms: C_7  and  C_4 
ROOT
ATOM      1  C   UNL d   1     -49.945  26.536  33.600  0.00  0.00     0.209 C 
ATOM      2  S   UNL d   1     -49.396  25.982  33.309  0.00  0.00    -0.038 SA
ENDROOT
BRANCH   1   3
ATOM      3  N   UNL d   1     -50.750  26.411  33.505  0.00  0.00    -0.282 N 
ATOM      4  C   UNL d   1     -51.044  25.635  33.463  0.00  0.00     0.066 A 
ATOM      5  C   UNL d   1     -51.850  25.511  33.368  0.00  0.00     0.016 A 
ATOM      6  C   UNL d   1     -50.537  24.995  33.514  0.00  0.00     0.018 A 
ATOM      7  C   UNL d   1     -52.148  24.749  33.325  0.00  0.00     0.001 A 
ATOM      8  C   UNL d   1     -52.367  26.150  33.315  0.00  0.00     0.003 A 
ATOM      9  C   UNL d   1     -51.638  24.108  33.377  0.00  0.00     0.000 A 
ATOM     10  C   UNL d   1     -50.833  24.224  33.471  0.00  0.00     0.002 A 
ATOM     11  C   UNL d   1     -52.070  26.920  33.358  0.00  0.00     0.019 A 
ATOM     12  C   UNL d   1     -51.263  27.049  33.453  0.00  0.00     0.082 A 
ENDBRANCH   1   3
BRANCH   1  13
ATOM     13  N   UNL d   1     -49.673  27.218  33.988  0.00  0.00    -0.180 NA
ATOM     14  C   UNL d   1     -48.857  27.322  34.108  0.00  0.00     0.281 C 
ATOM     15  O   UNL d   1     -48.321  26.757  33.847  0.00  0.00    -0.265 OA
BRANCH  14  16
ATOM     16  C   UNL d   1     -48.582  28.011  34.501  0.00  0.00     0.058 A 
ATOM     17  C   UNL d   1     -48.085  27.933  35.161  0.00  0.00     0.005 A 
ATOM     18  C   UNL d   1     -47.814  28.615  35.549  0.00  0.00     0.007 A 
ATOM     19  C   UNL d   1     -48.037  29.364  35.279  0.00  0.00     0.035 A 
ATOM     20  C   UNL d   1     -48.539  29.432  34.611  0.00  0.00     0.007 A 
ATOM     21 BR   UNL d   1     -47.765  30.046  35.667  0.00  0.00    -0.049 Br
ATOM     22  C   UNL d   1     -48.808  28.756  34.227  0.00  0.00     0.005 A 
ENDBRANCH  14  16
ENDBRANCH   1  13
TORSDOF 3
ENDMDL
MODEL 2
REMARK VINA RESULT:      60.1      2.351      4.728
REMARK  3 active torsions:
REMARK  status: ('A' for Active; 'I' for Inactive)
REMARK    1  A    between atoms: N_2  and  C_1 
REMARK    2  A    between atoms: N_3  and  C_1 
REMARK       I    between atoms: C_4  and  N_3 
REMARK    3  A    between atoms: C_7  and  C_4 
ROOT
ATOM      1  C   UNL d   1     -50.487  25.998  33.517  0.00  0.00     0.209 C 
ATOM      2  S   UNL d   1     -49.776  25.581  33.631  0.00  0.00    -0.038 SA
ENDROOT
BRANCH   1   3
ATOM      3  N   UNL d   1     -50.493  26.819  33.521  0.00  0.00    -0.282 N 
ATOM      4  C   UNL d   1     -49.808  27.234  33.744  0.00  0.00     0.066 A 
ATOM      5  C   UNL d   1     -49.814  28.055  33.749  0.00  0.00     0.016 A 
ATOM      6  C   UNL d   1     -49.129  26.830  33.959  0.00  0.00     0.018 A 
ATOM      7  C   UNL d   1     -49.143  28.471  33.968  0.00  0.00     0.001 A 
ATOM      8  C   UNL d   1     -50.494  28.467  33.534  0.00  0.00     0.003 A 
ATOM      9  C   UNL d   1     -48.463  28.065  34.183  0.00  0.00     0.000 A 
ATOM     10  C   UNL d   1     -48.450  27.247  34.180  0.00  0.00     0.002 A 
ATOM     11  C   UNL d   1     -51.173  28.051  33.313  0.00  0.00     0.019 A 
ATOM     12  C   UNL d   1     -51.170  27.228  33.307  0.00  0.00     0.082 A 
ENDBRANCH   1   3
BRANCH   1  13
ATOM     13  N   UNL d   1     -51.194  25.579  33.397  0.00  0.00    -0.180 NA
ATOM     14  C   UNL d   1     -51.327  24.874  33.816  0.00  0.00     0.281 C 
ATOM     15  O   UNL d   1     -50.766  24.591  34.345  0.00  0.00    -0.265 OA
BRANCH  14  16
ATOM     16  C   UNL d   1     -52.041  24.450  33.695  0.00  0.00     0.058 A 
ATOM     17  C   UNL d   1     -52.756  24.867  33.627  0.00  0.00     0.005 A 
ATOM     18  C   UNL d   1     -53.463  24.447  33.507  0.00  0.00     0.007 A 
ATOM     19  C   UNL d   1     -53.452  23.622  33.457  0.00  0.00     0.035 A 
ATOM     20  C   UNL d   1     -52.726  23.211  33.528  0.00  0.00     0.007 A 
ATOM     21 BR   UNL d   1     -54.159  23.203  33.337  0.00  0.00    -0.049 Br
ATOM     22  C   UNL d   1     -52.026  23.627  33.646  0.00  0.00     0.005 A 
ENDBRANCH  14  16
ENDBRANCH   1  13
TORSDOF 3
ENDMDL
