MODEL 1
REMARK VINA RESULT:      -2.4      0.000      0.000
REMARK  4 active torsions:
REMARK  status: ('A' for Active; 'I' for Inactive)
REMARK    1  A    between atoms: N_9  and  C_3 
REMARK    2  A    between atoms: C_11  and  C_5 
REMARK    3  A    between atoms: C_15  and  C_10 
REMARK    4  A    between atoms: C_18  and  C_15 
ROOT
ATOM      1  N   UNL d   1      31.075  17.892 -24.381  0.00  0.00    -0.196 N 
ATOM      2  C   UNL d   1      30.547  17.255 -24.259  0.00  0.00     0.167 A 
ATOM      3  C   UNL d   1      31.858  17.792 -24.174  0.00  0.00     0.152 A 
ATOM      4  N   UNL d   1      30.011  18.675 -24.902  0.00  0.00    -0.163 NA
ATOM      5  C   UNL d   1      29.765  17.334 -24.458  0.00  0.00     0.055 A 
ATOM      6  C   UNL d   1      29.483  18.038 -24.781  0.00  0.00     0.104 A 
ATOM      7  N   UNL d   1      30.829  16.551 -23.937  0.00  0.00    -0.227 NA
ATOM      8  C   UNL d   1      32.145  17.105 -23.857  0.00  0.00     0.057 A 
ATOM      9  C   UNL d   1      31.617  16.468 -23.735  0.00  0.00     0.086 A 
ATOM     10  C   UNL d   1      28.697  18.124 -24.983  0.00  0.00     0.023 C 
ENDROOT
BRANCH   5  11
ATOM     11  C   UNL d   1      29.245  16.706 -24.338  0.00  0.00     0.004 A 
ATOM     12  C   UNL d   1      28.779  16.690 -23.661  0.00  0.00     0.000 A 
ATOM     13  C   UNL d   1      28.260  16.063 -23.542  0.00  0.00     0.000 A 
ATOM     14  C   UNL d   1      28.205  15.453 -24.099  0.00  0.00     0.000 A 
ATOM     15  C   UNL d   1      28.671  15.468 -24.779  0.00  0.00     0.000 A 
ATOM     16  C   UNL d   1      29.199  16.105 -24.900  0.00  0.00     0.000 A 
ENDBRANCH   5  11
BRANCH   3  17
ATOM     17  N   UNL d   1      32.402  18.449 -24.299  0.00  0.00    -0.289 N 
ATOM     18  C   UNL d   1      32.701  18.569 -24.978  0.00  0.00     0.082 A 
ATOM     19  C   UNL d   1      33.171  19.136 -25.086  0.00  0.00     0.021 A 
ATOM     20  C   UNL d   1      33.052  19.472 -23.843  0.00  0.00     0.021 A 
ATOM     21  C   UNL d   1      32.574  18.895 -23.732  0.00  0.00     0.082 A 
ENDBRANCH   3  17
BRANCH   9  22
ATOM     22  C   UNL d   1      31.905  15.733 -23.399  0.00  0.00     0.019 C 
BRANCH  22  23
ATOM     23  C   UNL d   1      32.756  15.583 -23.329  0.00  0.00     0.002 C 
ATOM     24  C   UNL d   1      33.108  15.453 -22.566  0.00  0.00     0.000 C 
ENDBRANCH  22  23
ENDBRANCH   9  22
TORSDOF 4
ENDMDL
MODEL 2
REMARK VINA RESULT:      -0.0      0.926      3.631
REMARK  4 active torsions:
REMARK  status: ('A' for Active; 'I' for Inactive)
REMARK    1  A    between atoms: N_9  and  C_3 
REMARK    2  A    between atoms: C_11  and  C_5 
REMARK    3  A    between atoms: C_15  and  C_10 
REMARK    4  A    between atoms: C_18  and  C_15 
ROOT
ATOM      1  N   UNL d   1      29.952  16.854 -24.114  0.00  0.00    -0.196 N 
ATOM      2  C   UNL d   1      30.739  17.134 -24.137  0.00  0.00     0.167 A 
ATOM      3  C   UNL d   1      29.811  16.121 -23.783  0.00  0.00     0.152 A 
ATOM      4  N   UNL d   1      29.510  18.046 -24.747  0.00  0.00    -0.163 NA
ATOM      5  C   UNL d   1      30.902  17.859 -24.461  0.00  0.00     0.055 A 
ATOM      6  C   UNL d   1      30.297  18.326 -24.769  0.00  0.00     0.104 A 
ATOM      7  N   UNL d   1      31.345  16.667 -23.828  0.00  0.00    -0.227 NA
ATOM      8  C   UNL d   1      30.397  15.656 -23.477  0.00  0.00     0.057 A 
ATOM      9  C   UNL d   1      31.185  15.936 -23.500  0.00  0.00     0.086 A 
ATOM     10  C   UNL d   1      30.453  19.056 -25.097  0.00  0.00     0.023 C 
ENDROOT
BRANCH   5  11
ATOM     11  C   UNL d   1      31.678  18.135 -24.483  0.00  0.00     0.004 A 
ATOM     12  C   UNL d   1      32.189  17.862 -25.066  0.00  0.00     0.000 A 
ATOM     13  C   UNL d   1      32.964  18.138 -25.089  0.00  0.00     0.000 A 
ATOM     14  C   UNL d   1      33.228  18.687 -24.528  0.00  0.00     0.000 A 
ATOM     15  C   UNL d   1      32.717  18.962 -23.942  0.00  0.00     0.000 A 
ATOM     16  C   UNL d   1      31.930  18.682 -23.920  0.00  0.00     0.000 A 
ENDBRANCH   5  11
BRANCH   3  17
ATOM     17  N   UNL d   1      28.999  15.832 -23.760  0.00  0.00    -0.289 N 
ATOM     18  C   UNL d   1      28.662  15.702 -23.101  0.00  0.00     0.082 A 
ATOM     19  C   UNL d   1      27.960  15.453 -23.080  0.00  0.00     0.021 A 
ATOM     20  C   UNL d   1      27.921  15.459 -24.374  0.00  0.00     0.021 A 
ATOM     21  C   UNL d   1      28.634  15.713 -24.394  0.00  0.00     0.082 A 
ENDBRANCH   3  17
BRANCH   9  22
ATOM     22  C   UNL d   1      31.819  15.454 -23.180  0.00  0.00     0.019 C 
BRANCH  22  23
ATOM     23  C   UNL d   1      32.167  15.638 -22.408  0.00  0.00     0.002 C 
ATOM     24  C   UNL d   1      33.012  15.635 -22.306  0.00  0.00     0.000 C 
ENDBRANCH  22  23
ENDBRANCH   9  22
TORSDOF 4
ENDMDL
