MODEL 1
REMARK VINA RESULT:      -4.6      0.000      0.000
REMARK  4 active torsions:
REMARK  status: ('A' for Active; 'I' for Inactive)
REMARK    1  A    between atoms: C_3  and  C_1 
REMARK    2  A    between atoms: C_2  and  C_3 
REMARK    3  A    between atoms: C_6  and  C_2 
REMARK    4  A    between atoms: C_4  and  C_6 
ROOT
ATOM      1  C   UNL d   1     -41.370-122.678 -53.142  0.00  0.00     0.043 C 
ENDROOT
BRANCH   1   2
ATOM      2  C   UNL d   1     -41.460-123.013 -53.884  0.00  0.00     0.202 C 
ATOM      3  O   UNL d   1     -41.280-123.796 -54.045  0.00  0.00    -0.286 OA
BRANCH   2   4
ATOM      4  C   UNL d   1     -41.747-122.562 -54.536  0.00  0.00     0.068 A 
ATOM      5  S   UNL d   1     -41.328-122.307 -55.195  0.00  0.00    -0.083 SA
ATOM      6  C   UNL d   1     -41.817-121.887 -55.692  0.00  0.00     0.035 A 
ATOM      7  C   UNL d   1     -42.565-121.882 -55.325  0.00  0.00     0.008 A 
ATOM      8  C   UNL d   1     -42.542-122.284 -54.627  0.00  0.00     0.010 A 
ENDBRANCH   2   4
ENDBRANCH   1   2
BRANCH   1   9
ATOM      9  C   UNL d   1     -41.123-123.161 -52.518  0.00  0.00     0.010 C 
BRANCH   9  10
ATOM     10  C   UNL d   1     -41.150-122.856 -51.748  0.00  0.00     0.030 A 
ATOM     11  S   UNL d   1     -41.126-122.094 -51.453  0.00  0.00    -0.086 SA
ATOM     12  C   UNL d   1     -41.175-122.144 -50.627  0.00  0.00     0.035 A 
ATOM     13  C   UNL d   1     -41.225-122.894 -50.447  0.00  0.00     0.007 A 
ATOM     14  C   UNL d   1     -41.213-123.352 -51.091  0.00  0.00     0.007 A 
ENDBRANCH   9  10
ENDBRANCH   1   9
TORSDOF 4
ENDMDL
MODEL 2
REMARK VINA RESULT:      -4.4      1.521      3.928
REMARK  4 active torsions:
REMARK  status: ('A' for Active; 'I' for Inactive)
REMARK    1  A    between atoms: C_3  and  C_1 
REMARK    2  A    between atoms: C_2  and  C_3 
REMARK    3  A    between atoms: C_6  and  C_2 
REMARK    4  A    between atoms: C_4  and  C_6 
ROOT
ATOM      1  C   UNL d   1     -41.467-122.744 -51.870  0.00  0.00     0.043 C 
ENDROOT
BRANCH   1   2
ATOM      2  C   UNL d   1     -41.459-122.292 -51.187  0.00  0.00     0.202 C 
ATOM      3  O   UNL d   1     -41.124-121.544 -51.149  0.00  0.00    -0.286 OA
BRANCH   2   4
ATOM      4  C   UNL d   1     -41.801-122.576 -50.470  0.00  0.00     0.068 A 
ATOM      5  S   UNL d   1     -41.446-123.043 -49.895  0.00  0.00    -0.083 SA
ATOM      6  C   UNL d   1     -41.973-123.192 -49.292  0.00  0.00     0.035 A 
ATOM      7  C   UNL d   1     -42.678-122.801 -49.504  0.00  0.00     0.008 A 
ATOM      8  C   UNL d   1     -42.593-122.425 -50.211  0.00  0.00     0.010 A 
ENDBRANCH   2   4
ENDBRANCH   1   2
BRANCH   1   9
ATOM      9  C   UNL d   1     -41.171-122.411 -52.566  0.00  0.00     0.010 C 
BRANCH   9  10
ATOM     10  C   UNL d   1     -41.246-122.841 -53.272  0.00  0.00     0.030 A 
ATOM     11  S   UNL d   1     -41.135-123.629 -53.454  0.00  0.00    -0.086 SA
ATOM     12  C   UNL d   1     -41.297-123.725 -54.262  0.00  0.00     0.035 A 
ATOM     13  C   UNL d   1     -41.493-123.029 -54.537  0.00  0.00     0.007 A 
ATOM     14  C   UNL d   1     -41.475-122.474 -53.975  0.00  0.00     0.007 A 
ENDBRANCH   9  10
ENDBRANCH   1   9
TORSDOF 4
ENDMDL
MODEL 3
REMARK VINA RESULT:      -3.6      2.480      3.860
REMARK  4 active torsions:
REMARK  status: ('A' for Active; 'I' for Inactive)
REMARK    1  A    between atoms: C_3  and  C_1 
REMARK    2  A    between atoms: C_2  and  C_3 
REMARK    3  A    between atoms: C_6  and  C_2 
REMARK    4  A    between atoms: C_4  and  C_6 
ROOT
ATOM      1  C   UNL d   1     -41.792-123.136 -49.395  0.00  0.00     0.043 C 
ENDROOT
BRANCH   1   2
ATOM      2  C   UNL d   1     -42.058-123.298 -50.153  0.00  0.00     0.202 C 
ATOM      3  O   UNL d   1     -42.672-123.817 -50.309  0.00  0.00    -0.286 OA
BRANCH   2   4
ATOM      4  C   UNL d   1     -41.707-122.932 -50.827  0.00  0.00     0.068 A 
ATOM      5  S   UNL d   1     -41.414-123.297 -51.502  0.00  0.00    -0.083 SA
ATOM      6  C   UNL d   1     -41.123-122.739 -52.018  0.00  0.00     0.035 A 
ATOM      7  C   UNL d   1     -41.243-122.002 -51.647  0.00  0.00     0.008 A 
ATOM      8  C   UNL d   1     -41.594-122.099 -50.928  0.00  0.00     0.010 A 
ENDBRANCH   2   4
ENDBRANCH   1   2
BRANCH   1   9
ATOM      9  C   UNL d   1     -42.119-123.557 -48.764  0.00  0.00     0.010 C 
BRANCH   9  10
ATOM     10  C   UNL d   1     -41.859-123.383 -47.996  0.00  0.00     0.030 A 
ATOM     11  S   UNL d   1     -41.123-123.403 -47.643  0.00  0.00    -0.086 SA
ATOM     12  C   UNL d   1     -41.216-123.165 -46.854  0.00  0.00     0.035 A 
ATOM     13  C   UNL d   1     -41.967-123.014 -46.751  0.00  0.00     0.007 A 
ATOM     14  C   UNL d   1     -42.385-123.132 -47.411  0.00  0.00     0.007 A 
ENDBRANCH   9  10
ENDBRANCH   1   9
TORSDOF 4
ENDMDL
MODEL 4
REMARK VINA RESULT:      -2.6      2.012      4.369
REMARK  4 active torsions:
REMARK  status: ('A' for Active; 'I' for Inactive)
REMARK    1  A    between atoms: C_3  and  C_1 
REMARK    2  A    between atoms: C_2  and  C_3 
REMARK    3  A    between atoms: C_6  and  C_2 
REMARK    4  A    between atoms: C_4  and  C_6 
ROOT
ATOM      1  C   UNL d   1     -41.811-122.829 -50.691  0.00  0.00     0.043 C 
ENDROOT
BRANCH   1   2
ATOM      2  C   UNL d   1     -41.750-123.305 -50.026  0.00  0.00     0.202 C 
ATOM      3  O   UNL d   1     -41.123-123.817 -49.900  0.00  0.00    -0.286 OA
BRANCH   2   4
ATOM      4  C   UNL d   1     -42.340-123.293 -49.424  0.00  0.00     0.068 A 
ATOM      5  S   UNL d   1     -43.010-123.765 -49.367  0.00  0.00    -0.083 SA
ATOM      6  C   UNL d   1     -43.432-123.572 -48.699  0.00  0.00     0.035 A 
ATOM      7  C   UNL d   1     -43.006-122.958 -48.330  0.00  0.00     0.008 A 
ATOM      8  C   UNL d   1     -42.345-122.776 -48.753  0.00  0.00     0.010 A 
ENDBRANCH   2   4
ENDBRANCH   1   2
BRANCH   1   9
ATOM      9  C   UNL d   1     -41.146-122.737 -51.172  0.00  0.00     0.010 C 
BRANCH   9  10
ATOM     10  C   UNL d   1     -41.261-122.553 -51.973  0.00  0.00     0.030 A 
ATOM     11  S   UNL d   1     -41.388-123.014 -52.634  0.00  0.00    -0.086 SA
ATOM     12  C   UNL d   1     -41.462-122.505 -53.285  0.00  0.00     0.035 A 
ATOM     13  C   UNL d   1     -41.383-121.784 -53.018  0.00  0.00     0.007 A 
ATOM     14  C   UNL d   1     -41.260-121.771 -52.237  0.00  0.00     0.007 A 
ENDBRANCH   9  10
ENDBRANCH   1   9
TORSDOF 4
ENDMDL
