MODEL 1
REMARK VINA RESULT:      39.7      0.000      0.000
REMARK  5 active torsions:
REMARK  status: ('A' for Active; 'I' for Inactive)
REMARK    1  A    between atoms: N_4  and  C_1 
REMARK       I    between atoms: C_7  and  N_4 
REMARK    2  A    between atoms: C_8  and  C_7 
REMARK    3  A    between atoms: C_12  and  C_8 
REMARK    4  A    between atoms: S_10  and  C_12 
REMARK    5  A    between atoms: C_11  and  S_10 
ROOT
ATOM      1  C   UNL d   1     -49.386  26.917  33.515  0.00  0.00     0.070 C 
ENDROOT
BRANCH   1   2
ATOM      2  C   UNL d   1     -48.955  27.338  34.066  0.00  0.00     0.281 C 
ATOM      3  N   UNL d   1     -49.097  28.140  34.193  0.00  0.00    -0.187 NA
ATOM      4  O   UNL d   1     -48.368  26.937  34.497  0.00  0.00    -0.265 OA
BRANCH   3   5
ATOM      5  C   UNL d   1     -48.627  28.580  34.788  0.00  0.00     0.194 A 
ATOM      6  N   UNL d   1     -48.888  28.488  35.566  0.00  0.00    -0.107 NA
ATOM      7  O   UNL d   1     -48.401  28.927  36.054  0.00  0.00    -0.210 OA
ATOM      8  C   UNL d   1     -47.833  29.295  35.574  0.00  0.00     0.128 A 
ATOM      9  C   UNL d   1     -47.985  29.070  34.791  0.00  0.00     0.068 A 
ATOM     10  C   UNL d   1     -47.233  29.788  35.835  0.00  0.00     0.029 C 
ENDBRANCH   3   5
ENDBRANCH   1   2
BRANCH   1  11
ATOM     11  C   UNL d   1     -49.986  26.401  33.730  0.00  0.00     0.040 C 
BRANCH  11  12
ATOM     12  S   UNL d   1     -50.097  25.695  33.319  0.00  0.00    -0.086 SA
BRANCH  12  13
ATOM     13  C   UNL d   1     -50.852  25.331  33.315  0.00  0.00     0.029 A 
ATOM     14  C   UNL d   1     -51.534  25.797  33.315  0.00  0.00     0.007 A 
ATOM     15  C   UNL d   1     -52.289  25.433  33.312  0.00  0.00     0.012 A 
ATOM     16  C   UNL d   1     -52.341  24.610  33.309  0.00  0.00     0.058 A 
ATOM     17  C   UNL d   1     -51.656  24.148  33.310  0.00  0.00     0.012 A 
ATOM     18 CL   UNL d   1     -53.094  24.250  33.306  0.00  0.00    -0.082 Cl
ATOM     19  C   UNL d   1     -50.914  24.510  33.313  0.00  0.00     0.007 A 
ENDBRANCH  12  13
ENDBRANCH  11  12
ENDBRANCH   1  11
TORSDOF 5
ENDMDL
MODEL 2
REMARK VINA RESULT:      41.2      2.698      5.264
REMARK  5 active torsions:
REMARK  status: ('A' for Active; 'I' for Inactive)
REMARK    1  A    between atoms: N_4  and  C_1 
REMARK       I    between atoms: C_7  and  N_4 
REMARK    2  A    between atoms: C_8  and  C_7 
REMARK    3  A    between atoms: C_12  and  C_8 
REMARK    4  A    between atoms: S_10  and  C_12 
REMARK    5  A    between atoms: C_11  and  S_10 
ROOT
ATOM      1  C   UNL d   1     -49.765  26.881  33.491  0.00  0.00     0.070 C 
ENDROOT
BRANCH   1   2
ATOM      2  C   UNL d   1     -50.409  26.378  33.490  0.00  0.00     0.281 C 
ATOM      3  N   UNL d   1     -50.323  25.578  33.311  0.00  0.00    -0.187 NA
ATOM      4  O   UNL d   1     -51.156  26.695  33.674  0.00  0.00    -0.265 OA
BRANCH   3   5
ATOM      5  C   UNL d   1     -51.022  25.050  33.313  0.00  0.00     0.194 A 
ATOM      6  N   UNL d   1     -50.842  24.245  33.325  0.00  0.00    -0.107 NA
ATOM      7  O   UNL d   1     -51.544  23.825  33.326  0.00  0.00    -0.210 OA
ATOM      8  C   UNL d   1     -52.164  24.375  33.314  0.00  0.00     0.128 A 
ATOM      9  C   UNL d   1     -51.826  25.132  33.306  0.00  0.00     0.068 A 
ATOM     10  C   UNL d   1     -52.964  24.195  33.310  0.00  0.00     0.029 C 
ENDBRANCH   3   5
ENDBRANCH   1   2
BRANCH   1  11
ATOM     11  C   UNL d   1     -49.594  27.370  34.127  0.00  0.00     0.040 C 
BRANCH  11  12
ATOM     12  S   UNL d   1     -48.838  27.375  34.458  0.00  0.00    -0.086 SA
BRANCH  12  13
ATOM     13  C   UNL d   1     -48.533  28.085  34.784  0.00  0.00     0.029 A 
ATOM     14  C   UNL d   1     -48.631  28.244  35.589  0.00  0.00     0.007 A 
ATOM     15  C   UNL d   1     -48.326  28.953  35.914  0.00  0.00     0.012 A 
ATOM     16  C   UNL d   1     -47.931  29.486  35.425  0.00  0.00     0.058 A 
ATOM     17  C   UNL d   1     -47.836  29.323  34.621  0.00  0.00     0.012 A 
ATOM     18 CL   UNL d   1     -47.628  30.192  35.752  0.00  0.00    -0.082 Cl
ATOM     19  C   UNL d   1     -48.137  28.623  34.302  0.00  0.00     0.007 A 
ENDBRANCH  12  13
ENDBRANCH  11  12
ENDBRANCH   1  11
TORSDOF 5
ENDMDL
