MODEL 1
REMARK VINA RESULT:      34.2      0.000      0.000
REMARK  4 active torsions:
REMARK  status: ('A' for Active; 'I' for Inactive)
REMARK    1  A    between atoms: C_8  and  N_1 
REMARK    2  A    between atoms: C_6  and  C_5 
REMARK    3  A    between atoms: C_7  and  C_6 
REMARK       I    between atoms: N_10  and  C_7 
REMARK    4  A    between atoms: C_13  and  N_10 
ROOT
ATOM      1  N   UNL d   1      13.245  13.270  -4.394  0.00  0.00    -0.236 N 
ATOM      2  C   UNL d   1      13.417  12.584  -4.817  0.00  0.00     0.298 A 
ATOM      3  C   UNL d   1      12.997  13.056  -3.645  0.00  0.00     0.274 A 
ATOM      4  S   UNL d   1      13.272  11.940  -4.319  0.00  0.00    -0.022 SA
ATOM      5  C   UNL d   1      13.012  12.233  -3.592  0.00  0.00     0.095 A 
ATOM      6  O   UNL d   1      13.686  12.539  -5.597  0.00  0.00    -0.259 OA
ATOM      7  O   UNL d   1      12.770  13.568  -3.041  0.00  0.00    -0.266 OA
ENDROOT
BRANCH   5   8
ATOM      8  C   UNL d   1      12.804  11.779  -2.933  0.00  0.00     0.074 C 
BRANCH   8   9
ATOM      9  C   UNL d   1      13.195  11.892  -2.223  0.00  0.00     0.280 C 
ATOM     10  N   UNL d   1      14.013  11.798  -2.181  0.00  0.00    -0.208 NA
ATOM     11  O   UNL d   1      12.769  12.100  -1.546  0.00  0.00    -0.265 OA
BRANCH  10  12
ATOM     12  C   UNL d   1      14.409  11.911  -1.467  0.00  0.00     0.085 A 
ATOM     13  C   UNL d   1      13.991  11.902  -0.756  0.00  0.00     0.019 A 
ATOM     14  C   UNL d   1      14.388  12.015  -0.040  0.00  0.00     0.002 A 
ATOM     15  C   UNL d   1      15.203  12.138  -0.030  0.00  0.00     0.000 A 
ATOM     16  C   UNL d   1      15.617  12.146  -0.756  0.00  0.00     0.002 A 
ATOM     17  C   UNL d   1      15.221  12.034  -1.458  0.00  0.00     0.019 A 
ENDBRANCH  10  12
ENDBRANCH   8   9
ENDBRANCH   5   8
BRANCH   1  18
ATOM     18  C   UNL d   1      13.312  14.042  -4.676  0.00  0.00     0.070 A 
ATOM     19  C   UNL d   1      12.813  14.635  -4.387  0.00  0.00     0.018 A 
ATOM     20  C   UNL d   1      12.884  15.404  -4.673  0.00  0.00     0.002 A 
ATOM     21  C   UNL d   1      13.444  15.585  -5.241  0.00  0.00     0.000 A 
ATOM     22  C   UNL d   1      13.946  14.992  -5.533  0.00  0.00     0.002 A 
ATOM     23  C   UNL d   1      13.878  14.222  -5.250  0.00  0.00     0.018 A 
ENDBRANCH   1  18
TORSDOF 4
ENDMDL
