MODEL 1
REMARK VINA RESULT:      -5.4      0.000      0.000
REMARK  4 active torsions:
REMARK  status: ('A' for Active; 'I' for Inactive)
REMARK    1  A    between atoms: C_2  and  S_1 
REMARK    2  A    between atoms: N_3  and  S_1 
REMARK    3  A    between atoms: C_7  and  C_14 
REMARK       I    between atoms: N_9  and  C_7 
REMARK    4  A    between atoms: C_13  and  N_10 
ROOT
ATOM      1  N   UNL d   1     -48.588  13.632  22.760  0.00  0.00    -0.229 N 
ATOM      2  C   UNL d   1     -47.197  12.760  23.023  0.00  0.00     0.060 A 
ATOM      3  C   UNL d   1     -48.520  12.868  22.453  0.00  0.00     0.092 A 
ATOM      4  C   UNL d   1     -47.965  13.954  23.192  0.00  0.00     0.092 A 
ATOM      5  C   UNL d   1     -47.278  13.523  23.323  0.00  0.00     0.025 A 
ATOM      6  C   UNL d   1     -47.816  12.427  22.586  0.00  0.00     0.025 A 
ENDROOT
BRANCH   2   7
ATOM      7  C   UNL d   1     -46.508  12.329  23.153  0.00  0.00     0.265 C 
ATOM      8  N   UNL d   1     -45.824  12.510  22.759  0.00  0.00    -0.269 N 
ATOM      9  C   UNL d   1     -45.810  13.138  22.215  0.00  0.00     0.102 A 
ATOM     10  C   UNL d   1     -45.136  12.078  22.890  0.00  0.00     0.102 A 
ATOM     11  C   UNL d   1     -45.118  13.330  21.809  0.00  0.00     0.100 A 
ATOM     12  N   UNL d   1     -44.427  12.889  21.946  0.00  0.00    -0.301 N 
ATOM     13  C   UNL d   1     -44.441  12.260  22.491  0.00  0.00     0.100 A 
ATOM     14  O   UNL d   1     -46.523  11.700  23.698  0.00  0.00    -0.267 OA
BRANCH  12  15
ATOM     15  C   UNL d   1     -43.621  12.734  21.798  0.00  0.00     0.064 A 
ATOM     16  C   UNL d   1     -42.968  12.237  21.893  0.00  0.00     0.020 A 
ATOM     17  C   UNL d   1     -42.238  12.448  21.556  0.00  0.00     0.031 A 
ATOM     18  C   UNL d   1     -42.179  13.161  21.127  0.00  0.00     0.140 A 
ATOM     19  C   UNL d   1     -42.833  13.653  21.036  0.00  0.00     0.031 A 
ATOM     20  F   UNL d   1     -41.444  13.383  20.783  0.00  0.00    -0.204 F 
ATOM     21  C   UNL d   1     -43.560  13.435  21.376  0.00  0.00     0.020 A 
ENDBRANCH  12  15
ENDBRANCH   2   7
BRANCH   1  22
ATOM     22  S   UNL d   1     -49.277  14.064  22.629  0.00  0.00     0.275 S 
ATOM     23  O   UNL d   1     -49.708  13.478  23.032  0.00  0.00    -0.199 OA
ATOM     24  O   UNL d   1     -48.831  14.645  22.227  0.00  0.00    -0.199 OA
BRANCH  22  25
ATOM     25  C   UNL d   1     -49.973  14.500  22.498  0.00  0.00     0.148 A 
ATOM     26  C   UNL d   1     -50.356  15.072  22.944  0.00  0.00     0.139 A 
ATOM     27  O   UNL d   1     -51.026  15.311  22.534  0.00  0.00    -0.210 OA
ATOM     28  C   UNL d   1     -50.102  15.355  23.680  0.00  0.00     0.030 C 
ATOM     29  N   UNL d   1     -51.064  14.886  21.826  0.00  0.00    -0.126 NA
ATOM     30  C   UNL d   1     -50.401  14.377  21.806  0.00  0.00     0.122 A 
ATOM     31  C   UNL d   1     -50.214  13.846  21.197  0.00  0.00     0.024 C 
ENDBRANCH  22  25
ENDBRANCH   1  22
TORSDOF 4
ENDMDL
MODEL 2
REMARK VINA RESULT:      -4.5      1.646      2.003
REMARK  4 active torsions:
REMARK  status: ('A' for Active; 'I' for Inactive)
REMARK    1  A    between atoms: C_2  and  S_1 
REMARK    2  A    between atoms: N_3  and  S_1 
REMARK    3  A    between atoms: C_7  and  C_14 
REMARK       I    between atoms: N_9  and  C_7 
REMARK    4  A    between atoms: C_13  and  N_10 
ROOT
ATOM      1  N   UNL d   1     -49.335  13.154  22.681  0.00  0.00    -0.229 N 
ATOM      2  C   UNL d   1     -48.461  11.821  23.152  0.00  0.00     0.060 A 
ATOM      3  C   UNL d   1     -49.146  12.572  22.126  0.00  0.00     0.092 A 
ATOM      4  C   UNL d   1     -49.088  13.068  23.462  0.00  0.00     0.092 A 
ATOM      5  C   UNL d   1     -48.656  12.409  23.695  0.00  0.00     0.025 A 
ATOM      6  C   UNL d   1     -48.704  11.897  22.365  0.00  0.00     0.025 A 
ENDROOT
BRANCH   2   7
ATOM      7  C   UNL d   1     -48.029  11.161  23.386  0.00  0.00     0.265 C 
ATOM      8  N   UNL d   1     -47.221  11.155  23.336  0.00  0.00    -0.269 N 
ATOM      9  C   UNL d   1     -46.816  11.820  23.045  0.00  0.00     0.102 A 
ATOM     10  C   UNL d   1     -46.789  10.495  23.569  0.00  0.00     0.102 A 
ATOM     11  C   UNL d   1     -45.993  11.824  22.989  0.00  0.00     0.100 A 
ATOM     12  N   UNL d   1     -45.563  11.153  23.228  0.00  0.00    -0.301 N 
ATOM     13  C   UNL d   1     -45.968  10.486  23.519  0.00  0.00     0.100 A 
ATOM     14  O   UNL d   1     -48.434  10.495  23.677  0.00  0.00    -0.267 OA
BRANCH  12  15
ATOM     15  C   UNL d   1     -44.840  10.753  23.339  0.00  0.00     0.064 A 
ATOM     16  C   UNL d   1     -44.438  10.073  23.582  0.00  0.00     0.020 A 
ATOM     17  C   UNL d   1     -43.608  10.049  23.538  0.00  0.00     0.031 A 
ATOM     18  C   UNL d   1     -43.196  10.714  23.248  0.00  0.00     0.140 A 
ATOM     19  C   UNL d   1     -43.601  11.389  23.007  0.00  0.00     0.031 A 
ATOM     20  F   UNL d   1     -42.356  10.697  23.200  0.00  0.00    -0.204 F 
ATOM     21  C   UNL d   1     -44.432  11.406  23.054  0.00  0.00     0.020 A 
ENDBRANCH  12  15
ENDBRANCH   2   7
BRANCH   1  22
ATOM     22  S   UNL d   1     -49.768  13.815  22.447  0.00  0.00     0.275 S 
ATOM     23  O   UNL d   1     -50.462  13.359  22.480  0.00  0.00    -0.199 OA
ATOM     24  O   UNL d   1     -49.061  14.261  22.417  0.00  0.00    -0.199 OA
BRANCH  22  25
ATOM     25  C   UNL d   1     -50.204  14.482  22.211  0.00  0.00     0.148 A 
ATOM     26  C   UNL d   1     -50.276  15.234  22.531  0.00  0.00     0.139 A 
ATOM     27  O   UNL d   1     -50.789  15.666  22.057  0.00  0.00    -0.210 OA
ATOM     28  C   UNL d   1     -49.892  15.502  23.214  0.00  0.00     0.030 C 
ATOM     29  N   UNL d   1     -51.041  15.183  21.437  0.00  0.00    -0.126 NA
ATOM     30  C   UNL d   1     -50.673  14.439  21.535  0.00  0.00     0.122 A 
ATOM     31  C   UNL d   1     -50.765  13.781  21.040  0.00  0.00     0.024 C 
ENDBRANCH  22  25
ENDBRANCH   1  22
TORSDOF 4
ENDMDL
MODEL 3
REMARK VINA RESULT:      -3.8      3.657      6.877
REMARK  4 active torsions:
REMARK  status: ('A' for Active; 'I' for Inactive)
REMARK    1  A    between atoms: C_2  and  S_1 
REMARK    2  A    between atoms: N_3  and  S_1 
REMARK    3  A    between atoms: C_7  and  C_14 
REMARK       I    between atoms: N_9  and  C_7 
REMARK    4  A    between atoms: C_13  and  N_10 
ROOT
ATOM      1  N   UNL d   1     -41.694  13.746  20.711  0.00  0.00    -0.229 N 
ATOM      2  C   UNL d   1     -42.833  12.810  21.479  0.00  0.00     0.060 A 
ATOM      3  C   UNL d   1     -41.648  13.635  21.528  0.00  0.00     0.092 A 
ATOM      4  C   UNL d   1     -42.304  13.392  20.285  0.00  0.00     0.092 A 
ATOM      5  C   UNL d   1     -42.867  12.929  20.665  0.00  0.00     0.025 A 
ATOM      6  C   UNL d   1     -42.224  13.161  21.917  0.00  0.00     0.025 A 
ENDROOT
BRANCH   2   7
ATOM      7  C   UNL d   1     -43.397  12.346  21.859  0.00  0.00     0.265 C 
ATOM      8  N   UNL d   1     -44.134  12.639  22.022  0.00  0.00    -0.269 N 
ATOM      9  C   UNL d   1     -44.331  13.417  21.805  0.00  0.00     0.102 A 
ATOM     10  C   UNL d   1     -44.697  12.175  22.401  0.00  0.00     0.102 A 
ATOM     11  C   UNL d   1     -45.079  13.725  21.966  0.00  0.00     0.100 A 
ATOM     12  N   UNL d   1     -45.643  13.250  22.350  0.00  0.00    -0.301 N 
ATOM     13  C   UNL d   1     -45.446  12.470  22.567  0.00  0.00     0.100 A 
ATOM     14  O   UNL d   1     -43.200  11.568  22.076  0.00  0.00    -0.267 OA
BRANCH  12  15
ATOM     15  C   UNL d   1     -46.405  13.139  22.671  0.00  0.00     0.064 A 
ATOM     16  C   UNL d   1     -46.956  12.637  23.025  0.00  0.00     0.020 A 
ATOM     17  C   UNL d   1     -47.708  12.929  23.228  0.00  0.00     0.031 A 
ATOM     18  C   UNL d   1     -47.891  13.727  23.068  0.00  0.00     0.140 A 
ATOM     19  C   UNL d   1     -47.338  14.224  22.715  0.00  0.00     0.031 A 
ATOM     20  F   UNL d   1     -48.650  14.031  23.270  0.00  0.00    -0.204 F 
ATOM     21  C   UNL d   1     -46.587  13.924  22.516  0.00  0.00     0.020 A 
ENDBRANCH  12  15
ENDBRANCH   2   7
BRANCH   1  22
ATOM     22  S   UNL d   1     -41.130  14.210  20.331  0.00  0.00     0.275 S 
ATOM     23  O   UNL d   1     -41.454  13.987  19.599  0.00  0.00    -0.199 OA
ATOM     24  O   UNL d   1     -40.813  14.426  21.074  0.00  0.00    -0.199 OA
BRANCH  22  25
ATOM     25  C   UNL d   1     -40.560  14.678  19.947  0.00  0.00     0.148 A 
ATOM     26  C   UNL d   1     -39.855  14.489  19.570  0.00  0.00     0.139 A 
ATOM     27  O   UNL d   1     -39.520  15.184  19.291  0.00  0.00    -0.210 OA
ATOM     28  C   UNL d   1     -39.545  13.725  19.490  0.00  0.00     0.030 C 
ATOM     29  N   UNL d   1     -40.015  15.814  19.494  0.00  0.00    -0.126 NA
ATOM     30  C   UNL d   1     -40.668  15.493  19.906  0.00  0.00     0.122 A 
ATOM     31  C   UNL d   1     -41.306  15.922  20.215  0.00  0.00     0.024 C 
ENDBRANCH  22  25
ENDBRANCH   1  22
TORSDOF 4
ENDMDL
MODEL 4
REMARK VINA RESULT:      -3.5      1.709      2.861
REMARK  4 active torsions:
REMARK  status: ('A' for Active; 'I' for Inactive)
REMARK    1  A    between atoms: C_2  and  S_1 
REMARK    2  A    between atoms: N_3  and  S_1 
REMARK    3  A    between atoms: C_7  and  C_14 
REMARK       I    between atoms: N_9  and  C_7 
REMARK    4  A    between atoms: C_13  and  N_10 
ROOT
ATOM      1  N   UNL d   1     -46.088  13.220  22.357  0.00  0.00    -0.229 N 
ATOM      2  C   UNL d   1     -44.533  12.741  22.017  0.00  0.00     0.060 A 
ATOM      3  C   UNL d   1     -45.878  13.035  21.580  0.00  0.00     0.092 A 
ATOM      4  C   UNL d   1     -45.525  13.165  22.955  0.00  0.00     0.092 A 
ATOM      5  C   UNL d   1     -44.756  12.928  22.788  0.00  0.00     0.025 A 
ATOM      6  C   UNL d   1     -45.091  12.793  21.408  0.00  0.00     0.025 A 
ENDROOT
BRANCH   2   7
ATOM      7  C   UNL d   1     -43.763  12.504  21.849  0.00  0.00     0.265 C 
ATOM      8  N   UNL d   1     -43.212  13.037  21.588  0.00  0.00    -0.269 N 
ATOM      9  C   UNL d   1     -43.420  13.836  21.485  0.00  0.00     0.102 A 
ATOM     10  C   UNL d   1     -42.443  12.799  21.420  0.00  0.00     0.102 A 
ATOM     11  C   UNL d   1     -42.867  14.386  21.219  0.00  0.00     0.100 A 
ATOM     12  N   UNL d   1     -42.090  14.138  21.051  0.00  0.00    -0.301 N 
ATOM     13  C   UNL d   1     -41.882  13.339  21.154  0.00  0.00     0.100 A 
ATOM     14  O   UNL d   1     -43.555  11.705  21.952  0.00  0.00    -0.267 OA
BRANCH  12  15
ATOM     15  C   UNL d   1     -41.312  14.302  20.800  0.00  0.00     0.064 A 
ATOM     16  C   UNL d   1     -40.556  14.025  20.616  0.00  0.00     0.020 A 
ATOM     17  C   UNL d   1     -39.970  14.561  20.371  0.00  0.00     0.031 A 
ATOM     18  C   UNL d   1     -40.159  15.372  20.315  0.00  0.00     0.140 A 
ATOM     19  C   UNL d   1     -40.914  15.643  20.499  0.00  0.00     0.031 A 
ATOM     20  F   UNL d   1     -39.571  15.922  20.066  0.00  0.00    -0.204 F 
ATOM     21  C   UNL d   1     -41.495  15.100  20.744  0.00  0.00     0.020 A 
ENDBRANCH  12  15
ENDBRANCH   2   7
BRANCH   1  22
ATOM     22  S   UNL d   1     -46.859  13.457  22.525  0.00  0.00     0.275 S 
ATOM     23  O   UNL d   1     -46.630  13.609  23.310  0.00  0.00    -0.199 OA
ATOM     24  O   UNL d   1     -47.075  13.299  21.733  0.00  0.00    -0.199 OA
BRANCH  22  25
ATOM     25  C   UNL d   1     -47.637  13.696  22.695  0.00  0.00     0.148 A 
ATOM     26  C   UNL d   1     -48.001  14.432  22.683  0.00  0.00     0.139 A 
ATOM     27  O   UNL d   1     -48.785  14.333  22.903  0.00  0.00    -0.210 OA
ATOM     28  C   UNL d   1     -47.632  15.146  22.482  0.00  0.00     0.030 C 
ATOM     29  N   UNL d   1     -48.916  13.531  23.054  0.00  0.00    -0.126 NA
ATOM     30  C   UNL d   1     -48.192  13.133  22.922  0.00  0.00     0.122 A 
ATOM     31  C   UNL d   1     -48.062  12.319  23.007  0.00  0.00     0.024 C 
ENDBRANCH  22  25
ENDBRANCH   1  22
TORSDOF 4
ENDMDL
MODEL 5
REMARK VINA RESULT:      -2.4      8.315     10.177
REMARK  4 active torsions:
REMARK  status: ('A' for Active; 'I' for Inactive)
REMARK    1  A    between atoms: C_2  and  S_1 
REMARK    2  A    between atoms: N_3  and  S_1 
REMARK    3  A    between atoms: C_7  and  C_14 
REMARK       I    between atoms: N_9  and  C_7 
REMARK    4  A    between atoms: C_13  and  N_10 
ROOT
ATOM      1  N   UNL d   1     -38.999  14.623  16.455  0.00  0.00    -0.229 N 
ATOM      2  C   UNL d   1     -39.598  15.039  17.949  0.00  0.00     0.060 A 
ATOM      3  C   UNL d   1     -38.501  14.976  17.012  0.00  0.00     0.092 A 
ATOM      4  C   UNL d   1     -39.788  14.482  16.646  0.00  0.00     0.092 A 
ATOM      5  C   UNL d   1     -40.084  14.687  17.385  0.00  0.00     0.025 A 
ATOM      6  C   UNL d   1     -38.804  15.186  17.768  0.00  0.00     0.025 A 
ENDROOT
BRANCH   2   7
ATOM      7  C   UNL d   1     -39.895  15.244  18.689  0.00  0.00     0.265 C 
ATOM      8  N   UNL d   1     -39.572  14.938  19.365  0.00  0.00    -0.269 N 
ATOM      9  C   UNL d   1     -38.932  14.409  19.320  0.00  0.00     0.102 A 
ATOM     10  C   UNL d   1     -39.870  15.144  20.104  0.00  0.00     0.102 A 
ATOM     11  C   UNL d   1     -38.597  14.091  20.003  0.00  0.00     0.100 A 
ATOM     12  N   UNL d   1     -38.903  14.304  20.747  0.00  0.00    -0.301 N 
ATOM     13  C   UNL d   1     -39.543  14.834  20.793  0.00  0.00     0.100 A 
ATOM     14  O   UNL d   1     -40.535  15.773  18.734  0.00  0.00    -0.267 OA
BRANCH  12  15
ATOM     15  C   UNL d   1     -38.896  14.252  21.579  0.00  0.00     0.064 A 
ATOM     16  C   UNL d   1     -39.046  14.605  22.310  0.00  0.00     0.020 A 
ATOM     17  C   UNL d   1     -38.892  14.183  23.010  0.00  0.00     0.031 A 
ATOM     18  C   UNL d   1     -38.587  13.408  22.959  0.00  0.00     0.140 A 
ATOM     19  C   UNL d   1     -38.439  13.061  22.227  0.00  0.00     0.031 A 
ATOM     20  F   UNL d   1     -38.428  12.973  23.662  0.00  0.00    -0.204 F 
ATOM     21  C   UNL d   1     -38.596  13.490  21.531  0.00  0.00     0.020 A 
ENDBRANCH  12  15
ENDBRANCH   2   7
BRANCH   1  22
ATOM     22  S   UNL d   1     -38.702  14.418  15.715  0.00  0.00     0.275 S 
ATOM     23  O   UNL d   1     -39.453  14.131  15.504  0.00  0.00    -0.199 OA
ATOM     24  O   UNL d   1     -37.952  14.710  15.940  0.00  0.00    -0.199 OA
BRANCH  22  25
ATOM     25  C   UNL d   1     -38.402  14.210  14.968  0.00  0.00     0.148 A 
ATOM     26  C   UNL d   1     -38.225  14.658  14.302  0.00  0.00     0.139 A 
ATOM     27  O   UNL d   1     -37.942  14.151  13.721  0.00  0.00    -0.210 OA
ATOM     28  C   UNL d   1     -38.320  15.478  14.237  0.00  0.00     0.030 C 
ATOM     29  N   UNL d   1     -37.941  13.382  14.023  0.00  0.00    -0.126 NA
ATOM     30  C   UNL d   1     -38.230  13.422  14.807  0.00  0.00     0.122 A 
ATOM     31  C   UNL d   1     -38.324  12.781  15.323  0.00  0.00     0.024 C 
ENDBRANCH  22  25
ENDBRANCH   1  22
TORSDOF 4
ENDMDL
