MODEL 1
REMARK VINA RESULT:      -7.1      0.000      0.000
REMARK  2 active torsions:
REMARK  status: ('A' for Active; 'I' for Inactive)
REMARK       I    between atoms: N_2  and  C_1 
REMARK       I    between atoms: N_4  and  C_1 
REMARK    1  A    between atoms: C_3  and  N_2 
REMARK    2  A    between atoms: C_7  and  N_4 
ROOT
ATOM      1  C   UNL d   1     -48.684  13.854  22.880  0.00  0.00     0.370 C 
ATOM      2  N   UNL d   1     -48.977  14.536  22.509  0.00  0.00    -0.172 NA
ATOM      3  N   UNL d   1     -48.016  13.474  22.547  0.00  0.00    -0.191 NA
ATOM      4  O   UNL d   1     -49.018  13.552  23.540  0.00  0.00    -0.242 OA
ENDROOT
BRANCH   2   5
ATOM      5  C   UNL d   1     -49.634  14.913  22.834  0.00  0.00     0.167 A 
ATOM      6  N   UNL d   1     -50.420  14.680  22.629  0.00  0.00    -0.225 NA
ATOM      7  C   UNL d   1     -51.064  15.062  22.959  0.00  0.00     0.101 A 
ATOM      8  C   UNL d   1     -50.937  15.679  23.497  0.00  0.00     0.021 A 
ATOM      9  C   UNL d   1     -50.168  15.904  23.696  0.00  0.00     0.005 A 
ATOM     10  C   UNL d   1     -49.533  15.525  23.368  0.00  0.00     0.039 A 
ENDBRANCH   2   5
BRANCH   3  11
ATOM     11  C   UNL d   1     -47.717  12.798  22.905  0.00  0.00     0.086 A 
ATOM     12  C   UNL d   1     -48.112  12.094  22.838  0.00  0.00     0.019 A 
ATOM     13  C   UNL d   1     -47.804  11.414  23.202  0.00  0.00     0.002 A 
ATOM     14  C   UNL d   1     -47.086  11.460  23.637  0.00  0.00     0.000 A 
ATOM     15  C   UNL d   1     -46.700  12.167  23.698  0.00  0.00     0.002 A 
ATOM     16  C   UNL d   1     -46.996  12.843  23.342  0.00  0.00     0.019 A 
ENDBRANCH   3  11
TORSDOF 2
ENDMDL
MODEL 2
REMARK VINA RESULT:      -7.0      0.432      3.915
REMARK  2 active torsions:
REMARK  status: ('A' for Active; 'I' for Inactive)
REMARK       I    between atoms: N_2  and  C_1 
REMARK       I    between atoms: N_4  and  C_1 
REMARK    1  A    between atoms: C_3  and  N_2 
REMARK    2  A    between atoms: C_7  and  N_4 
ROOT
ATOM      1  C   UNL d   1     -48.681  13.836  22.860  0.00  0.00     0.370 C 
ATOM      2  N   UNL d   1     -48.066  13.427  22.482  0.00  0.00    -0.172 NA
ATOM      3  N   UNL d   1     -49.047  14.470  22.453  0.00  0.00    -0.191 NA
ATOM      4  O   UNL d   1     -48.933  13.644  23.593  0.00  0.00    -0.242 OA
ENDROOT
BRANCH   2   5
ATOM      5  C   UNL d   1     -47.703  12.802  22.880  0.00  0.00     0.167 A 
ATOM      6  N   UNL d   1     -48.082  12.050  22.953  0.00  0.00    -0.225 NA
ATOM      7  C   UNL d   1     -47.711  11.438  23.351  0.00  0.00     0.101 A 
ATOM      8  C   UNL d   1     -46.962  11.563  23.680  0.00  0.00     0.021 A 
ATOM      9  C   UNL d   1     -46.595  12.300  23.607  0.00  0.00     0.005 A 
ATOM     10  C   UNL d   1     -46.962  12.903  23.214  0.00  0.00     0.039 A 
ENDBRANCH   2   5
BRANCH   3  11
ATOM     11  C   UNL d   1     -49.657  14.883  22.816  0.00  0.00     0.086 A 
ATOM     12  C   UNL d   1     -49.490  15.492  23.324  0.00  0.00     0.019 A 
ATOM     13  C   UNL d   1     -50.112  15.906  23.687  0.00  0.00     0.002 A 
ATOM     14  C   UNL d   1     -50.909  15.691  23.526  0.00  0.00     0.000 A 
ATOM     15  C   UNL d   1     -51.064  15.083  23.019  0.00  0.00     0.002 A 
ATOM     16  C   UNL d   1     -50.458  14.668  22.655  0.00  0.00     0.019 A 
ENDBRANCH   3  11
TORSDOF 2
ENDMDL
MODEL 3
REMARK VINA RESULT:      -6.7      1.508      3.786
REMARK  2 active torsions:
REMARK  status: ('A' for Active; 'I' for Inactive)
REMARK       I    between atoms: N_2  and  C_1 
REMARK       I    between atoms: N_4  and  C_1 
REMARK    1  A    between atoms: C_3  and  N_2 
REMARK    2  A    between atoms: C_7  and  N_4 
ROOT
ATOM      1  C   UNL d   1     -48.294  13.545  22.880  0.00  0.00     0.370 C 
ATOM      2  N   UNL d   1     -47.617  13.724  23.325  0.00  0.00    -0.172 NA
ATOM      3  N   UNL d   1     -49.030  13.857  23.130  0.00  0.00    -0.191 NA
ATOM      4  O   UNL d   1     -48.265  13.088  22.226  0.00  0.00    -0.242 OA
ENDROOT
BRANCH   2   5
ATOM      5  C   UNL d   1     -46.891  13.418  23.081  0.00  0.00     0.167 A 
ATOM      6  N   UNL d   1     -46.648  12.639  23.299  0.00  0.00    -0.225 NA
ATOM      7  C   UNL d   1     -45.925  12.347  23.051  0.00  0.00     0.101 A 
ATOM      8  C   UNL d   1     -45.434  12.823  22.584  0.00  0.00     0.021 A 
ATOM      9  C   UNL d   1     -45.675  13.585  22.373  0.00  0.00     0.005 A 
ATOM     10  C   UNL d   1     -46.390  13.871  22.619  0.00  0.00     0.039 A 
ENDBRANCH   2   5
BRANCH   3  11
ATOM     11  C   UNL d   1     -49.707  13.688  22.697  0.00  0.00     0.086 A 
ATOM     12  C   UNL d   1     -50.126  13.010  22.848  0.00  0.00     0.019 A 
ATOM     13  C   UNL d   1     -50.811  12.844  22.407  0.00  0.00     0.002 A 
ATOM     14  C   UNL d   1     -51.064  13.379  21.810  0.00  0.00     0.000 A 
ATOM     15  C   UNL d   1     -50.640  14.051  21.669  0.00  0.00     0.002 A 
ATOM     16  C   UNL d   1     -49.964  14.224  22.098  0.00  0.00     0.019 A 
ENDBRANCH   3  11
TORSDOF 2
ENDMDL
MODEL 4
REMARK VINA RESULT:      -6.7      1.449      2.042
REMARK  2 active torsions:
REMARK  status: ('A' for Active; 'I' for Inactive)
REMARK       I    between atoms: N_2  and  C_1 
REMARK       I    between atoms: N_4  and  C_1 
REMARK    1  A    between atoms: C_3  and  N_2 
REMARK    2  A    between atoms: C_7  and  N_4 
ROOT
ATOM      1  C   UNL d   1     -48.388  13.461  22.818  0.00  0.00     0.370 C 
ATOM      2  N   UNL d   1     -49.157  13.482  23.128  0.00  0.00    -0.172 NA
ATOM      3  N   UNL d   1     -47.745  13.392  23.350  0.00  0.00    -0.191 NA
ATOM      4  O   UNL d   1     -48.243  13.505  22.033  0.00  0.00    -0.242 OA
ENDROOT
BRANCH   2   5
ATOM      5  C   UNL d   1     -49.792  13.550  22.606  0.00  0.00     0.167 A 
ATOM      6  N   UNL d   1     -50.073  14.305  22.352  0.00  0.00    -0.225 NA
ATOM      7  C   UNL d   1     -50.704  14.358  21.833  0.00  0.00     0.101 A 
ATOM      8  C   UNL d   1     -51.064  13.664  21.560  0.00  0.00     0.021 A 
ATOM      9  C   UNL d   1     -50.787  12.928  21.811  0.00  0.00     0.005 A 
ATOM     10  C   UNL d   1     -50.164  12.877  22.323  0.00  0.00     0.039 A 
ENDBRANCH   2   5
BRANCH   3  11
ATOM     11  C   UNL d   1     -46.978  13.371  23.056  0.00  0.00     0.086 A 
ATOM     12  C   UNL d   1     -46.596  14.061  22.867  0.00  0.00     0.019 A 
ATOM     13  C   UNL d   1     -45.820  14.032  22.570  0.00  0.00     0.002 A 
ATOM     14  C   UNL d   1     -45.438  13.290  22.468  0.00  0.00     0.000 A 
ATOM     15  C   UNL d   1     -45.828  12.610  22.660  0.00  0.00     0.002 A 
ATOM     16  C   UNL d   1     -46.593  12.627  22.953  0.00  0.00     0.019 A 
ENDBRANCH   3  11
TORSDOF 2
ENDMDL
