MODEL 1
REMARK VINA RESULT:      55.3      0.000      0.000
REMARK  3 active torsions:
REMARK  status: ('A' for Active; 'I' for Inactive)
REMARK    1  A    between atoms: C_15  and  C_4 
REMARK    2  A    between atoms: C_8  and  S_16 
REMARK    3  A    between atoms: S_16  and  C_15 
ROOT
ATOM      1  N   UNL d   1      57.695  49.707  50.724  0.00  0.00    -0.133 N 
ATOM      2  C   UNL d   1      57.961  49.707  49.948  0.00  0.00     0.736 A 
ATOM      3  C   UNL d   1      58.352  49.707  51.221  0.00  0.00     0.135 A 
ATOM      4  C   UNL d   1      59.030  49.706  50.752  0.00  0.00     0.129 A 
ATOM      5  N   UNL d   1      58.785  49.706  49.961  0.00  0.00    -0.058 NA
ATOM      6  C   UNL d   1      56.894  49.708  50.883  0.00  0.00     0.084 A 
ATOM      7  N   UNL d   1      57.430  49.707  49.326  0.00  0.00    -0.060 NA
ATOM      8  C   UNL d   1      56.346  49.708  50.260  0.00  0.00     0.038 A 
ATOM      9  C   UNL d   1      56.613  49.708  49.484  0.00  0.00     0.101 A 
ATOM     10 BR   UNL d   1      58.349  49.707  52.069  0.00  0.00    -0.028 Br
ATOM     11  C   UNL d   1      56.622  49.708  51.674  0.00  0.00     0.020 C 
ATOM     12  C   UNL d   1      56.035  49.708  48.872  0.00  0.00     0.021 C 
ENDROOT
BRANCH   4  13
ATOM     13  C   UNL d   1      59.803  49.706  51.035  0.00  0.00     0.059 C 
BRANCH  13  14
ATOM     14  S   UNL d   1      60.454  49.588  50.542  0.00  0.00    -0.059 SA
BRANCH  14  15
ATOM     15  C   UNL d   1      60.783  48.843  50.442  0.00  0.00     0.141 A 
ATOM     16  N   UNL d   1      61.354  48.537  49.922  0.00  0.00    -0.232 NA
ATOM     17  C   UNL d   1      61.457  47.762  50.081  0.00  0.00     0.088 A 
ATOM     18  C   UNL d   1      61.956  47.214  49.726  0.00  0.00     0.020 A 
ATOM     19  C   UNL d   1      60.980  47.538  50.683  0.00  0.00     0.049 A 
ATOM     20  C   UNL d   1      61.964  46.428  49.992  0.00  0.00     0.002 A 
ATOM     21  C   UNL d   1      61.486  46.198  50.598  0.00  0.00     0.001 A 
ATOM     22  C   UNL d   1      60.986  46.751  50.952  0.00  0.00     0.008 A 
ATOM     23  S   UNL d   1      60.549  48.219  50.917  0.00  0.00    -0.060 SA
ENDBRANCH  14  15
ENDBRANCH  13  14
ENDBRANCH   4  13
TORSDOF 3
ENDMDL
