MODEL 1
REMARK VINA RESULT:     105.0      0.000      0.000
REMARK  4 active torsions:
REMARK  status: ('A' for Active; 'I' for Inactive)
REMARK       I    between atoms: N_2  and  C_1 
REMARK    1  A    between atoms: C_4  and  C_1 
REMARK    2  A    between atoms: C_5  and  N_3 
REMARK    3  A    between atoms: O_21  and  C_8 
REMARK    4  A    between atoms: O_22  and  C_15 
ROOT
ATOM      1  C   UNL d   1      61.469  47.860  50.158  0.00  0.00     0.265 C 
ATOM      2  N   UNL d   1      61.400  47.042  50.159  0.00  0.00    -0.269 N 
ATOM      3  N   UNL d   1      61.263  45.412  50.158  0.00  0.00    -0.301 N 
ATOM      4  C   UNL d   1      61.952  46.590  49.757  0.00  0.00     0.102 A 
ATOM      5  C   UNL d   1      60.781  46.688  50.559  0.00  0.00     0.102 A 
ATOM      6  C   UNL d   1      60.712  45.870  50.559  0.00  0.00     0.100 A 
ATOM      7  C   UNL d   1      61.880  45.767  49.758  0.00  0.00     0.100 A 
ATOM      8  O   UNL d   1      62.090  48.224  49.757  0.00  0.00    -0.267 OA
ENDROOT
BRANCH   1   9
ATOM      9  C   UNL d   1      60.915  48.319  50.562  0.00  0.00     0.059 A 
ATOM     10  C   UNL d   1      61.128  48.702  51.265  0.00  0.00     0.031 A 
ATOM     11  C   UNL d   1      60.568  49.168  51.677  0.00  0.00     0.116 A 
ATOM     12  C   UNL d   1      59.803  49.245  51.384  0.00  0.00     0.116 A 
ATOM     13  C   UNL d   1      59.584  48.859  50.674  0.00  0.00     0.026 A 
ATOM     14  C   UNL d   1      60.135  48.394  50.258  0.00  0.00     0.007 A 
BRANCH  11  15
ATOM     15  O   UNL d   1      60.784  49.543  52.370  0.00  0.00    -0.326 OA
ATOM     16  C   UNL d   1      61.579  49.603  52.585  0.00  0.00     0.181 C 
ENDBRANCH  11  15
BRANCH  12  17
ATOM     17  O   UNL d   1      59.249  49.703  51.788  0.00  0.00    -0.326 OA
ATOM     18  C   UNL d   1      58.443  49.585  51.660  0.00  0.00     0.181 C 
ENDBRANCH  12  17
ENDBRANCH   1   9
BRANCH   3  19
ATOM     19  C   UNL d   1      61.547  44.672  49.922  0.00  0.00     0.064 A 
ATOM     20  C   UNL d   1      61.853  44.158  50.473  0.00  0.00     0.018 A 
ATOM     21  C   UNL d   1      62.137  43.422  50.243  0.00  0.00     0.001 A 
ATOM     22  C   UNL d   1      62.446  42.907  50.808  0.00  0.00     0.000 C 
ATOM     23  C   UNL d   1      62.110  43.203  49.447  0.00  0.00     0.000 A 
ATOM     24  C   UNL d   1      61.799  43.725  48.892  0.00  0.00     0.002 A 
ATOM     25  C   UNL d   1      62.393  42.463  49.209  0.00  0.00     0.000 C 
ATOM     26  C   UNL d   1      61.514  44.465  49.121  0.00  0.00     0.018 A 
ENDBRANCH   3  19
TORSDOF 4
ENDMDL
