MODEL 1
REMARK VINA RESULT:      -6.0      0.000      0.000
REMARK  1 active torsions:
REMARK  status: ('A' for Active; 'I' for Inactive)
REMARK    1  A    between atoms: C_6  and  N_1 
ROOT
ATOM      1  N   UNL d   1     -41.317-122.495 -52.600  0.00  0.00    -0.210 N 
ATOM      2  C   UNL d   1     -41.342-122.957 -51.920  0.00  0.00     0.196 A 
ATOM      3  N   UNL d   1     -41.180-121.708 -52.372  0.00  0.00    -0.161 NA
ATOM      4  C   UNL d   1     -41.222-122.463 -51.273  0.00  0.00     0.127 A 
ATOM      5  C   UNL d   1     -41.123-121.695 -51.545  0.00  0.00     0.134 A 
ATOM      6  C   UNL d   1     -41.205-122.700 -50.478  0.00  0.00     0.106 C 
ATOM      7  N   UNL d   1     -41.188-122.933 -49.681  0.00  0.00    -0.191 NA
ATOM      8  N   UNL d   1     -41.469-123.791 -51.898  0.00  0.00    -0.126 N 
ENDROOT
BRANCH   1   9
ATOM      9  C   UNL d   1     -41.406-122.725 -53.392  0.00  0.00     0.085 A 
ATOM     10  C   UNL d   1     -41.781-122.213 -53.919  0.00  0.00     0.019 A 
ATOM     11  C   UNL d   1     -41.872-122.442 -54.716  0.00  0.00     0.002 A 
ATOM     12  C   UNL d   1     -42.251-121.930 -55.261  0.00  0.00     0.000 C 
ATOM     13  C   UNL d   1     -41.589-123.171 -54.969  0.00  0.00     0.000 A 
ATOM     14  C   UNL d   1     -41.214-123.680 -54.440  0.00  0.00     0.002 A 
ATOM     15  C   UNL d   1     -41.123-123.455 -53.646  0.00  0.00     0.019 A 
ENDBRANCH   1   9
TORSDOF 1
ENDMDL
MODEL 2
REMARK VINA RESULT:      -5.8      1.249      3.539
REMARK  1 active torsions:
REMARK  status: ('A' for Active; 'I' for Inactive)
REMARK    1  A    between atoms: C_6  and  N_1 
ROOT
ATOM      1  N   UNL d   1     -41.508-122.619 -53.390  0.00  0.00    -0.210 N 
ATOM      2  C   UNL d   1     -41.967-122.165 -53.901  0.00  0.00     0.196 A 
ATOM      3  N   UNL d   1     -41.130-123.208 -53.838  0.00  0.00    -0.161 NA
ATOM      4  C   UNL d   1     -41.876-122.469 -54.661  0.00  0.00     0.127 A 
ATOM      5  C   UNL d   1     -41.364-123.109 -54.627  0.00  0.00     0.134 A 
ATOM      6  C   UNL d   1     -42.242-122.177 -55.346  0.00  0.00     0.106 C 
ATOM      7  N   UNL d   1     -42.606-121.889 -56.035  0.00  0.00    -0.191 NA
ATOM      8  N   UNL d   1     -42.444-121.506 -53.677  0.00  0.00    -0.126 N 
ENDROOT
BRANCH   1   9
ATOM      9  C   UNL d   1     -41.407-122.542 -52.571  0.00  0.00     0.085 A 
ATOM     10  C   UNL d   1     -41.494-123.208 -52.092  0.00  0.00     0.019 A 
ATOM     11  C   UNL d   1     -41.394-123.134 -51.267  0.00  0.00     0.002 A 
ATOM     12  C   UNL d   1     -41.480-123.803 -50.770  0.00  0.00     0.000 C 
ATOM     13  C   UNL d   1     -41.209-122.402 -50.940  0.00  0.00     0.000 A 
ATOM     14  C   UNL d   1     -41.123-121.739 -51.421  0.00  0.00     0.002 A 
ATOM     15  C   UNL d   1     -41.222-121.810 -52.243  0.00  0.00     0.019 A 
ENDBRANCH   1   9
TORSDOF 1
ENDMDL
MODEL 3
REMARK VINA RESULT:      -5.5      1.626      4.297
REMARK  1 active torsions:
REMARK  status: ('A' for Active; 'I' for Inactive)
REMARK    1  A    between atoms: C_6  and  N_1 
ROOT
ATOM      1  N   UNL d   1     -41.701-123.153 -50.559  0.00  0.00    -0.210 N 
ATOM      2  C   UNL d   1     -41.715-122.555 -51.123  0.00  0.00     0.196 A 
ATOM      3  N   UNL d   1     -41.334-123.817 -50.897  0.00  0.00    -0.161 NA
ATOM      4  C   UNL d   1     -41.360-122.843 -51.807  0.00  0.00     0.127 A 
ATOM      5  C   UNL d   1     -41.124-123.617 -51.673  0.00  0.00     0.134 A 
ATOM      6  C   UNL d   1     -41.257-122.421 -52.514  0.00  0.00     0.106 C 
ATOM      7  N   UNL d   1     -41.151-122.002 -53.224  0.00  0.00    -0.191 NA
ATOM      8  N   UNL d   1     -42.039-121.783 -51.011  0.00  0.00    -0.126 N 
ENDROOT
BRANCH   1   9
ATOM      9  C   UNL d   1     -41.988-123.145 -49.780  0.00  0.00     0.085 A 
ATOM     10  C   UNL d   1     -41.450-123.153 -49.155  0.00  0.00     0.019 A 
ATOM     11  C   UNL d   1     -41.736-123.144 -48.371  0.00  0.00     0.002 A 
ATOM     12  C   UNL d   1     -41.200-123.152 -47.727  0.00  0.00     0.000 C 
ATOM     13  C   UNL d   1     -42.546-123.129 -48.229  0.00  0.00     0.000 A 
ATOM     14  C   UNL d   1     -43.080-123.121 -48.857  0.00  0.00     0.002 A 
ATOM     15  C   UNL d   1     -42.799-123.129 -49.638  0.00  0.00     0.019 A 
ENDBRANCH   1   9
TORSDOF 1
ENDMDL
MODEL 4
REMARK VINA RESULT:      -5.3      1.954      3.020
REMARK  1 active torsions:
REMARK  status: ('A' for Active; 'I' for Inactive)
REMARK    1  A    between atoms: C_6  and  N_1 
ROOT
ATOM      1  N   UNL d   1     -42.268-122.861 -50.031  0.00  0.00    -0.210 N 
ATOM      2  C   UNL d   1     -41.946-123.110 -49.316  0.00  0.00     0.196 A 
ATOM      3  N   UNL d   1     -43.090-122.791 -49.933  0.00  0.00    -0.161 NA
ATOM      4  C   UNL d   1     -42.561-123.195 -48.777  0.00  0.00     0.127 A 
ATOM      5  C   UNL d   1     -43.266-123.000 -49.150  0.00  0.00     0.134 A 
ATOM      6  C   UNL d   1     -42.484-123.437 -47.987  0.00  0.00     0.106 C 
ATOM      7  N   UNL d   1     -42.411-123.679 -47.195  0.00  0.00    -0.191 NA
ATOM      8  N   UNL d   1     -41.126-123.252 -49.170  0.00  0.00    -0.126 N 
ENDROOT
BRANCH   1   9
ATOM      9  C   UNL d   1     -41.884-122.696 -50.748  0.00  0.00     0.085 A 
ATOM     10  C   UNL d   1     -41.702-123.319 -51.258  0.00  0.00     0.019 A 
ATOM     11  C   UNL d   1     -41.317-123.155 -51.979  0.00  0.00     0.002 A 
ATOM     12  C   UNL d   1     -41.126-123.780 -52.505  0.00  0.00     0.000 C 
ATOM     13  C   UNL d   1     -41.123-122.381 -52.175  0.00  0.00     0.000 A 
ATOM     14  C   UNL d   1     -41.306-121.762 -51.664  0.00  0.00     0.002 A 
ATOM     15  C   UNL d   1     -41.690-121.921 -50.945  0.00  0.00     0.019 A 
ENDBRANCH   1   9
TORSDOF 1
ENDMDL
