MODEL 1
REMARK VINA RESULT:     123.7      0.000      0.000
REMARK  5 active torsions:
REMARK  status: ('A' for Active; 'I' for Inactive)
REMARK    1  A    between atoms: C_12  and  N_3 
REMARK    2  A    between atoms: C_11  and  C_5 
REMARK       I    between atoms: N_16  and  C_11 
REMARK    3  A    between atoms: C_15  and  C_12 
REMARK    4  A    between atoms: C_26  and  N_16 
REMARK    5  A    between atoms: C_27  and  C_26 
ROOT
ATOM      1  C   UNL d   1     -56.403-100.588 -43.695  0.00  0.00     0.155 A 
ATOM      2  C   UNL d   1     -56.856-100.696 -43.001  0.00  0.00     0.091 A 
ATOM      3  N   UNL d   1     -55.694-100.992 -43.782  0.00  0.00    -0.272 N 
ATOM      4  N   UNL d   1     -56.674-100.080 -44.280  0.00  0.00    -0.210 NA
ATOM      5  C   UNL d   1     -55.873-101.611 -42.502  0.00  0.00     0.094 A 
ATOM      6  C   UNL d   1     -55.425-101.504 -43.189  0.00  0.00     0.175 A 
ATOM      7  C   UNL d   1     -57.569-100.293 -42.907  0.00  0.00     0.269 A 
ATOM      8  N   UNL d   1     -57.831 -99.782 -43.505  0.00  0.00    -0.258 N 
ATOM      9  C   UNL d   1     -57.380 -99.678 -44.190  0.00  0.00     0.152 A 
ATOM     10  C   UNL d   1     -56.590-101.205 -42.409  0.00  0.00     0.016 A 
ATOM     11  N   UNL d   1     -54.712-101.907 -43.284  0.00  0.00    -0.128 N 
ATOM     12  C   UNL d   1     -58.549 -99.380 -43.404  0.00  0.00     0.084 A 
ATOM     13  O   UNL d   1     -58.023-100.394 -42.222  0.00  0.00    -0.266 OA
ATOM     14  C   UNL d   1     -57.653 -99.167 -44.777  0.00  0.00     0.038 A 
ATOM     15  C   UNL d   1     -58.807 -98.872 -44.001  0.00  0.00     0.019 A 
ATOM     16  C   UNL d   1     -58.359 -98.766 -44.688  0.00  0.00     0.005 A 
ENDROOT
BRANCH   5  17
ATOM     17  C   UNL d   1     -55.608-102.120 -41.911  0.00  0.00     0.282 C 
ATOM     18  N   UNL d   1     -56.099-102.304 -41.274  0.00  0.00    -0.206 NA
ATOM     19  O   UNL d   1     -54.849-102.447 -41.955  0.00  0.00    -0.265 OA
BRANCH  18  20
ATOM     20  C   UNL d   1     -55.835-102.817 -40.676  0.00  0.00     0.102 C 
BRANCH  20  21
ATOM     21  C   UNL d   1     -55.685-102.528 -39.918  0.00  0.00     0.019 A 
ATOM     22  C   UNL d   1     -54.965-102.157 -39.751  0.00  0.00     0.002 A 
ATOM     23  C   UNL d   1     -54.816-101.868 -38.993  0.00  0.00     0.000 A 
ATOM     24  C   UNL d   1     -55.386-101.949 -38.398  0.00  0.00     0.000 A 
ATOM     25  C   UNL d   1     -56.105-102.321 -38.569  0.00  0.00     0.000 A 
ATOM     26  C   UNL d   1     -55.237-101.660 -37.640  0.00  0.00     0.000 C 
ATOM     27  C   UNL d   1     -56.255-102.610 -39.327  0.00  0.00     0.002 A 
ENDBRANCH  20  21
ENDBRANCH  18  20
ENDBRANCH   5  17
BRANCH   3  28
ATOM     28  C   UNL d   1     -55.246-100.886 -44.469  0.00  0.00     0.107 C 
BRANCH  28  29
ATOM     29  C   UNL d   1     -55.358-100.214 -44.935  0.00  0.00     0.118 A 
ATOM     30  O   UNL d   1     -55.693 -99.892 -45.609  0.00  0.00    -0.304 OA
ATOM     31  C   UNL d   1     -55.501 -99.093 -45.644  0.00  0.00     0.123 A 
ATOM     32  C   UNL d   1     -55.040 -98.916 -44.983  0.00  0.00     0.029 A 
ATOM     33  C   UNL d   1     -54.950 -99.607 -44.543  0.00  0.00     0.028 A 
ENDBRANCH  28  29
ENDBRANCH   3  28
TORSDOF 5
ENDMDL
MODEL 2
REMARK VINA RESULT:     124.0      2.272      3.830
REMARK  5 active torsions:
REMARK  status: ('A' for Active; 'I' for Inactive)
REMARK    1  A    between atoms: C_12  and  N_3 
REMARK    2  A    between atoms: C_11  and  C_5 
REMARK       I    between atoms: N_16  and  C_11 
REMARK    3  A    between atoms: C_15  and  C_12 
REMARK    4  A    between atoms: C_26  and  N_16 
REMARK    5  A    between atoms: C_27  and  C_26 
ROOT
ATOM      1  C   UNL d   1     -57.269 -99.809 -43.774  0.00  0.00     0.155 A 
ATOM      2  C   UNL d   1     -57.289-100.261 -43.072  0.00  0.00     0.091 A 
ATOM      3  N   UNL d   1     -57.898 -99.314 -43.955  0.00  0.00    -0.272 N 
ATOM      4  N   UNL d   1     -56.621 -99.867 -44.274  0.00  0.00    -0.210 NA
ATOM      5  C   UNL d   1     -58.570 -99.706 -42.752  0.00  0.00     0.094 A 
ATOM      6  C   UNL d   1     -58.551 -99.259 -43.447  0.00  0.00     0.175 A 
ATOM      7  C   UNL d   1     -56.661-100.761 -42.884  0.00  0.00     0.269 A 
ATOM      8  N   UNL d   1     -56.012-100.809 -43.397  0.00  0.00    -0.258 N 
ATOM      9  C   UNL d   1     -55.996-100.361 -44.092  0.00  0.00     0.152 A 
ATOM     10  C   UNL d   1     -57.938-100.208 -42.565  0.00  0.00     0.016 A 
ATOM     11  N   UNL d   1     -59.179 -98.760 -43.635  0.00  0.00    -0.128 N 
ATOM     12  C   UNL d   1     -55.383-101.313 -43.203  0.00  0.00     0.084 A 
ATOM     13  O   UNL d   1     -56.673-101.211 -42.190  0.00  0.00    -0.266 OA
ATOM     14  C   UNL d   1     -55.344-100.419 -44.593  0.00  0.00     0.038 A 
ATOM     15  C   UNL d   1     -54.738-101.361 -43.716  0.00  0.00     0.019 A 
ATOM     16  C   UNL d   1     -54.718-100.913 -44.411  0.00  0.00     0.005 A 
ENDROOT
BRANCH   5  17
ATOM     17  C   UNL d   1     -59.219 -99.653 -42.245  0.00  0.00     0.282 C 
ATOM     18  N   UNL d   1     -59.142 -99.275 -41.516  0.00  0.00    -0.206 NA
ATOM     19  O   UNL d   1     -59.946 -99.979 -42.467  0.00  0.00    -0.265 OA
BRANCH  18  20
ATOM     20  C   UNL d   1     -59.793 -99.220 -41.002  0.00  0.00     0.102 C 
BRANCH  20  21
ATOM     21  C   UNL d   1     -59.702 -99.378 -40.198  0.00  0.00     0.019 A 
ATOM     22  C   UNL d   1     -59.578 -98.758 -39.665  0.00  0.00     0.002 A 
ATOM     23  C   UNL d   1     -59.486 -98.917 -38.861  0.00  0.00     0.000 A 
ATOM     24  C   UNL d   1     -59.519 -99.697 -38.586  0.00  0.00     0.000 A 
ATOM     25  C   UNL d   1     -59.644-100.315 -39.121  0.00  0.00     0.000 A 
ATOM     26  C   UNL d   1     -59.428 -99.856 -37.781  0.00  0.00     0.000 C 
ATOM     27  C   UNL d   1     -59.735-100.156 -39.926  0.00  0.00     0.002 A 
ENDBRANCH  20  21
ENDBRANCH  18  20
ENDBRANCH   5  17
BRANCH   3  28
ATOM     28  C   UNL d   1     -57.879 -98.867 -44.650  0.00  0.00     0.107 C 
BRANCH  28  29
ATOM     29  C   UNL d   1     -58.451 -98.983 -45.233  0.00  0.00     0.118 A 
ATOM     30  O   UNL d   1     -59.235 -99.142 -45.406  0.00  0.00    -0.304 OA
ATOM     31  C   UNL d   1     -59.328 -99.162 -46.222  0.00  0.00     0.123 A 
ATOM     32  C   UNL d   1     -58.591 -99.014 -46.563  0.00  0.00     0.029 A 
ATOM     33  C   UNL d   1     -58.047 -98.904 -45.953  0.00  0.00     0.028 A 
ENDBRANCH  28  29
ENDBRANCH   3  28
TORSDOF 5
ENDMDL
MODEL 3
REMARK VINA RESULT:     125.6      2.566      3.664
REMARK  5 active torsions:
REMARK  status: ('A' for Active; 'I' for Inactive)
REMARK    1  A    between atoms: C_12  and  N_3 
REMARK    2  A    between atoms: C_11  and  C_5 
REMARK       I    between atoms: N_16  and  C_11 
REMARK    3  A    between atoms: C_15  and  C_12 
REMARK    4  A    between atoms: C_26  and  N_16 
REMARK    5  A    between atoms: C_27  and  C_26 
ROOT
ATOM      1  C   UNL d   1     -57.823 -98.931 -44.824  0.00  0.00     0.155 A 
ATOM      2  C   UNL d   1     -58.649 -99.018 -44.730  0.00  0.00     0.091 A 
ATOM      3  N   UNL d   1     -57.340 -98.916 -44.161  0.00  0.00    -0.272 N 
ATOM      4  N   UNL d   1     -57.507 -98.861 -45.578  0.00  0.00    -0.210 NA
ATOM      5  C   UNL d   1     -58.481 -99.074 -43.309  0.00  0.00     0.094 A 
ATOM      6  C   UNL d   1     -57.663 -98.987 -43.402  0.00  0.00     0.175 A 
ATOM      7  C   UNL d   1     -59.140 -99.033 -45.392  0.00  0.00     0.269 A 
ATOM      8  N   UNL d   1     -58.808 -98.962 -46.148  0.00  0.00    -0.258 N 
ATOM      9  C   UNL d   1     -57.990 -98.876 -46.237  0.00  0.00     0.152 A 
ATOM     10  C   UNL d   1     -58.973 -99.089 -43.975  0.00  0.00     0.016 A 
ATOM     11  N   UNL d   1     -57.172 -98.972 -42.740  0.00  0.00    -0.128 N 
ATOM     12  C   UNL d   1     -59.308 -98.978 -46.809  0.00  0.00     0.084 A 
ATOM     13  O   UNL d   1     -59.958 -99.119 -45.307  0.00  0.00    -0.266 OA
ATOM     14  C   UNL d   1     -57.674 -98.806 -46.995  0.00  0.00     0.038 A 
ATOM     15  C   UNL d   1     -58.975 -98.907 -47.561  0.00  0.00     0.019 A 
ATOM     16  C   UNL d   1     -58.158 -98.820 -47.654  0.00  0.00     0.005 A 
ENDROOT
BRANCH   5  17
ATOM     17  C   UNL d   1     -58.805 -99.145 -42.554  0.00  0.00     0.282 C 
ATOM     18  N   UNL d   1     -59.593 -98.937 -42.424  0.00  0.00    -0.206 NA
ATOM     19  O   UNL d   1     -58.341 -99.423 -41.929  0.00  0.00    -0.265 OA
BRANCH  18  20
ATOM     20  C   UNL d   1     -59.923 -99.007 -41.664  0.00  0.00     0.102 C 
BRANCH  20  21
ATOM     21  C   UNL d   1     -59.798 -99.690 -41.218  0.00  0.00     0.019 A 
ATOM     22  C   UNL d   1     -59.943 -99.686 -40.404  0.00  0.00     0.002 A 
ATOM     23  C   UNL d   1     -59.818-100.369 -39.959  0.00  0.00     0.000 A 
ATOM     24  C   UNL d   1     -59.548-101.060 -40.327  0.00  0.00     0.000 A 
ATOM     25  C   UNL d   1     -59.405-101.061 -41.142  0.00  0.00     0.000 A 
ATOM     26  C   UNL d   1     -59.423-101.743 -39.882  0.00  0.00     0.000 C 
ATOM     27  C   UNL d   1     -59.530-100.377 -41.587  0.00  0.00     0.002 A 
ENDBRANCH  20  21
ENDBRANCH  18  20
ENDBRANCH   5  17
BRANCH   3  28
ATOM     28  C   UNL d   1     -56.522 -98.830 -44.255  0.00  0.00     0.107 C 
BRANCH  28  29
ATOM     29  C   UNL d   1     -56.040 -99.497 -44.307  0.00  0.00     0.118 A 
ATOM     30  O   UNL d   1     -55.690-100.058 -44.790  0.00  0.00    -0.304 OA
ATOM     31  C   UNL d   1     -55.252-100.574 -44.323  0.00  0.00     0.123 A 
ATOM     32  C   UNL d   1     -55.331-100.332 -43.538  0.00  0.00     0.029 A 
ATOM     33  C   UNL d   1     -55.817 -99.666 -43.525  0.00  0.00     0.028 A 
ENDBRANCH  28  29
ENDBRANCH   3  28
TORSDOF 5
ENDMDL
