MODEL 1
REMARK VINA RESULT:     101.9      0.000      0.000
REMARK  6 active torsions:
REMARK  status: ('A' for Active; 'I' for Inactive)
REMARK    1  A    between atoms: S_2  and  N_1 
REMARK    2  A    between atoms: C_11  and  S_2 
REMARK    3  A    between atoms: C_6  and  C_4 
REMARK    4  A    between atoms: C_12  and  C_5 
REMARK    5  A    between atoms: O_14  and  C_8 
REMARK    6  A    between atoms: O_16  and  C_13 
ROOT
ATOM      1  N   UNL d   1     -49.811  27.548  35.677  0.00  0.00    -0.152 N 
ATOM      2  N   UNL d   1     -49.195  28.048  35.951  0.00  0.00    -0.155 NA
ATOM      3  C   UNL d   1     -49.776  27.500  34.853  0.00  0.00     0.098 A 
ATOM      4  C   UNL d   1     -48.777  28.310  35.290  0.00  0.00     0.104 A 
ATOM      5  C   UNL d   1     -49.143  27.967  34.619  0.00  0.00     0.041 A 
ENDROOT
BRANCH   3   6
ATOM      6  C   UNL d   1     -50.279  27.067  34.363  0.00  0.00     0.043 A 
ATOM      7  C   UNL d   1     -50.041  26.332  34.071  0.00  0.00     0.118 A 
ATOM      8  C   UNL d   1     -50.544  25.899  33.582  0.00  0.00     0.116 A 
ATOM      9  C   UNL d   1     -51.270  26.215  33.400  0.00  0.00     0.026 A 
ATOM     10  C   UNL d   1     -51.530  26.940  33.675  0.00  0.00     0.002 A 
ATOM     11  C   UNL d   1     -51.027  27.373  34.165  0.00  0.00     0.004 A 
BRANCH   7  12
ATOM     12  O   UNL d   1     -49.298  26.032  34.269  0.00  0.00    -0.326 OA
ATOM     13  C   UNL d   1     -48.894  25.550  33.736  0.00  0.00     0.181 C 
ENDBRANCH   7  12
BRANCH   8  14
ATOM     14  O   UNL d   1     -50.289  25.180  33.306  0.00  0.00    -0.326 OA
ATOM     15  C   UNL d   1     -50.744  24.509  33.325  0.00  0.00     0.181 C 
ENDBRANCH   8  14
ENDBRANCH   3   6
BRANCH   1  16
ATOM     16  S   UNL d   1     -50.362  27.168  36.167  0.00  0.00     0.286 S 
ATOM     17  O   UNL d   1     -51.022  26.698  36.011  0.00  0.00    -0.198 OA
ATOM     18  O   UNL d   1     -50.213  27.291  36.973  0.00  0.00    -0.198 OA
BRANCH  16  19
ATOM     19  C   UNL d   1     -50.810  26.864  36.790  0.00  0.00     0.105 A 
ATOM     20  C   UNL d   1     -50.569  27.000  37.541  0.00  0.00     0.013 A 
ATOM     21  C   UNL d   1     -51.018  26.695  38.169  0.00  0.00     0.001 A 
ATOM     22  C   UNL d   1     -51.701  26.260  38.012  0.00  0.00     0.000 A 
ATOM     23  C   UNL d   1     -51.936  26.130  37.229  0.00  0.00     0.001 A 
ATOM     24  C   UNL d   1     -51.494  26.429  36.634  0.00  0.00     0.013 A 
ENDBRANCH  16  19
ENDBRANCH   1  16
BRANCH   4  25
ATOM     25  C   UNL d   1     -48.140  28.802  35.308  0.00  0.00     0.019 A 
ATOM     26  C   UNL d   1     -48.252  29.609  35.465  0.00  0.00     0.002 A 
ATOM     27  C   UNL d   1     -47.612  30.134  35.488  0.00  0.00     0.000 A 
ATOM     28  C   UNL d   1     -46.861  29.849  35.354  0.00  0.00     0.000 A 
ATOM     29  C   UNL d   1     -46.726  29.044  35.194  0.00  0.00     0.000 A 
ATOM     30  C   UNL d   1     -47.392  28.521  35.175  0.00  0.00     0.002 A 
ENDBRANCH   4  25
TORSDOF 6
ENDMDL
MODEL 2
REMARK VINA RESULT:     103.7      2.707      5.479
REMARK  6 active torsions:
REMARK  status: ('A' for Active; 'I' for Inactive)
REMARK    1  A    between atoms: S_2  and  N_1 
REMARK    2  A    between atoms: C_11  and  S_2 
REMARK    3  A    between atoms: C_6  and  C_4 
REMARK    4  A    between atoms: C_12  and  C_5 
REMARK    5  A    between atoms: O_14  and  C_8 
REMARK    6  A    between atoms: O_16  and  C_13 
ROOT
ATOM      1  N   UNL d   1     -48.482  30.056  34.318  0.00  0.00    -0.152 N 
ATOM      2  N   UNL d   1     -49.096  29.675  33.891  0.00  0.00    -0.155 NA
ATOM      3  C   UNL d   1     -48.130  29.512  34.831  0.00  0.00     0.098 A 
ATOM      4  C   UNL d   1     -49.122  28.891  34.143  0.00  0.00     0.104 A 
ATOM      5  C   UNL d   1     -48.523  28.801  34.722  0.00  0.00     0.041 A 
ENDROOT
BRANCH   3   6
ATOM      6  C   UNL d   1     -47.506  29.659  35.350  0.00  0.00     0.043 A 
ATOM      7  C   UNL d   1     -47.647  29.708  36.162  0.00  0.00     0.118 A 
ATOM      8  C   UNL d   1     -47.022  29.854  36.682  0.00  0.00     0.116 A 
ATOM      9  C   UNL d   1     -46.278  29.947  36.372  0.00  0.00     0.026 A 
ATOM     10  C   UNL d   1     -46.111  29.903  35.572  0.00  0.00     0.002 A 
ATOM     11  C   UNL d   1     -46.735  29.757  35.053  0.00  0.00     0.004 A 
BRANCH   7  12
ATOM     12  O   UNL d   1     -48.412  29.610  36.454  0.00  0.00    -0.326 OA
ATOM     13  C   UNL d   1     -48.527  29.355  37.230  0.00  0.00     0.181 C 
ENDBRANCH   7  12
BRANCH   8  14
ATOM     14  O   UNL d   1     -47.184  29.898  37.475  0.00  0.00    -0.326 OA
ATOM     15  C   UNL d   1     -46.618  30.044  38.038  0.00  0.00     0.181 C 
ENDBRANCH   8  14
ENDBRANCH   3   6
BRANCH   1  16
ATOM     16  S   UNL d   1     -48.272  30.854  34.229  0.00  0.00     0.286 S 
ATOM     17  O   UNL d   1     -47.613  31.291  34.468  0.00  0.00    -0.198 OA
ATOM     18  O   UNL d   1     -48.842  31.292  33.818  0.00  0.00    -0.198 OA
BRANCH  16  19
ATOM     19  C   UNL d   1     -48.224  31.659  34.053  0.00  0.00     0.105 A 
ATOM     20  C   UNL d   1     -48.892  32.050  33.850  0.00  0.00     0.013 A 
ATOM     21  C   UNL d   1     -48.846  32.859  33.673  0.00  0.00     0.001 A 
ATOM     22  C   UNL d   1     -48.119  33.247  33.708  0.00  0.00     0.000 A 
ATOM     23  C   UNL d   1     -47.437  32.826  33.920  0.00  0.00     0.001 A 
ATOM     24  C   UNL d   1     -47.497  32.047  34.088  0.00  0.00     0.013 A 
ENDBRANCH  16  19
ENDBRANCH   1  16
BRANCH   4  25
ATOM     25  C   UNL d   1     -49.634  28.332  33.871  0.00  0.00     0.019 A 
ATOM     26  C   UNL d   1     -50.392  28.559  33.621  0.00  0.00     0.002 A 
ATOM     27  C   UNL d   1     -50.935  28.002  33.338  0.00  0.00     0.000 A 
ATOM     28  C   UNL d   1     -50.718  27.218  33.306  0.00  0.00     0.000 A 
ATOM     29  C   UNL d   1     -49.963  26.968  33.552  0.00  0.00     0.000 A 
ATOM     30  C   UNL d   1     -49.420  27.551  33.838  0.00  0.00     0.002 A 
ENDBRANCH   4  25
TORSDOF 6
ENDMDL
