MODEL 1
REMARK VINA RESULT:      -6.5      0.000      0.000
REMARK  3 active torsions:
REMARK  status: ('A' for Active; 'I' for Inactive)
REMARK    1  A    between atoms: N_5  and  C_2 
REMARK    2  A    between atoms: C_14  and  C_4 
REMARK       I    between atoms: C_7  and  N_5 
REMARK    3  A    between atoms: C_8  and  C_7 
ROOT
ATOM      1  S   UNL d   1     -47.203  13.151  22.914  0.00  0.00    -0.026 SA
ATOM      2  C   UNL d   1     -47.649  12.610  23.352  0.00  0.00     0.219 A 
ATOM      3  N   UNL d   1     -46.350  12.265  23.367  0.00  0.00    -0.139 NA
ATOM      4  C   UNL d   1     -46.414  12.934  22.929  0.00  0.00     0.135 A 
ATOM      5  N   UNL d   1     -47.113  12.054  23.636  0.00  0.00    -0.121 NA
ENDROOT
BRANCH   2   6
ATOM      6  N   UNL d   1     -48.459  12.550  23.526  0.00  0.00    -0.181 NA
ATOM      7  C   UNL d   1     -48.964  12.274  22.954  0.00  0.00     0.287 C 
ATOM      8  O   UNL d   1     -48.704  12.049  22.199  0.00  0.00    -0.265 OA
BRANCH   7   9
ATOM      9  C   UNL d   1     -49.747  12.217  23.126  0.00  0.00     0.087 A 
ATOM     10  S   UNL d   1     -50.330  12.655  22.769  0.00  0.00    -0.082 SA
ATOM     11  C   UNL d   1     -51.062  12.426  23.108  0.00  0.00     0.036 A 
ATOM     12  C   UNL d   1     -50.911  11.865  23.654  0.00  0.00     0.008 A 
ATOM     13  C   UNL d   1     -50.119  11.717  23.687  0.00  0.00     0.012 A 
ENDBRANCH   7   9
ENDBRANCH   2   6
BRANCH   4  14
ATOM     14  C   UNL d   1     -45.789  13.355  22.543  0.00  0.00     0.026 C 
ATOM     15  C   UNL d   1     -45.181  12.972  22.136  0.00  0.00     0.002 C 
ATOM     16  C   UNL d   1     -45.787  14.191  22.576  0.00  0.00     0.002 C 
ENDBRANCH   4  14
TORSDOF 3
ENDMDL
MODEL 2
REMARK VINA RESULT:      -6.3      1.943      2.397
REMARK  3 active torsions:
REMARK  status: ('A' for Active; 'I' for Inactive)
REMARK    1  A    between atoms: N_5  and  C_2 
REMARK    2  A    between atoms: C_14  and  C_4 
REMARK       I    between atoms: C_7  and  N_5 
REMARK    3  A    between atoms: C_8  and  C_7 
ROOT
ATOM      1  S   UNL d   1     -47.090  12.358  23.481  0.00  0.00    -0.026 SA
ATOM      2  C   UNL d   1     -47.046  13.171  23.339  0.00  0.00     0.219 A 
ATOM      3  N   UNL d   1     -45.817  12.626  23.323  0.00  0.00    -0.139 NA
ATOM      4  C   UNL d   1     -46.339  12.034  23.469  0.00  0.00     0.135 A 
ATOM      5  N   UNL d   1     -46.247  13.339  23.240  0.00  0.00    -0.121 NA
ENDROOT
BRANCH   2   6
ATOM      6  N   UNL d   1     -47.617  13.771  23.287  0.00  0.00    -0.181 NA
ATOM      7  C   UNL d   1     -48.109  13.790  22.641  0.00  0.00     0.287 C 
ATOM      8  O   UNL d   1     -48.064  13.233  22.029  0.00  0.00    -0.265 OA
BRANCH   7   9
ATOM      9  C   UNL d   1     -48.661  14.373  22.595  0.00  0.00     0.087 A 
ATOM     10  S   UNL d   1     -49.460  14.245  22.522  0.00  0.00    -0.082 SA
ATOM     11  C   UNL d   1     -49.834  14.996  22.493  0.00  0.00     0.036 A 
ATOM     12  C   UNL d   1     -49.265  15.552  22.547  0.00  0.00     0.008 A 
ATOM     13  C   UNL d   1     -48.541  15.202  22.610  0.00  0.00     0.012 A 
ENDBRANCH   7   9
ENDBRANCH   2   6
BRANCH   4  14
ATOM     14  C   UNL d   1     -46.162  11.215  23.593  0.00  0.00     0.026 C 
ATOM     15  C   UNL d   1     -46.751  10.645  23.696  0.00  0.00     0.002 C 
ATOM     16  C   UNL d   1     -45.361  10.975  23.610  0.00  0.00     0.002 C 
ENDBRANCH   4  14
TORSDOF 3
ENDMDL
MODEL 3
REMARK VINA RESULT:      -6.2      2.142      3.969
REMARK  3 active torsions:
REMARK  status: ('A' for Active; 'I' for Inactive)
REMARK    1  A    between atoms: N_5  and  C_2 
REMARK    2  A    between atoms: C_14  and  C_4 
REMARK       I    between atoms: C_7  and  N_5 
REMARK    3  A    between atoms: C_8  and  C_7 
ROOT
ATOM      1  S   UNL d   1     -49.194  14.583  23.295  0.00  0.00    -0.026 SA
ATOM      2  C   UNL d   1     -48.439  14.598  22.959  0.00  0.00     0.219 A 
ATOM      3  N   UNL d   1     -49.219  15.536  22.396  0.00  0.00    -0.139 NA
ATOM      4  C   UNL d   1     -49.662  15.156  22.946  0.00  0.00     0.135 A 
ATOM      5  N   UNL d   1     -48.455  15.196  22.395  0.00  0.00    -0.121 NA
ENDROOT
BRANCH   2   6
ATOM      6  N   UNL d   1     -47.749  14.154  23.090  0.00  0.00    -0.181 NA
ATOM      7  C   UNL d   1     -47.690  13.415  22.758  0.00  0.00     0.287 C 
ATOM      8  O   UNL d   1     -48.291  13.085  22.292  0.00  0.00    -0.265 OA
BRANCH   7   9
ATOM      9  C   UNL d   1     -47.021  12.988  22.887  0.00  0.00     0.087 A 
ATOM     10  S   UNL d   1     -46.991  12.297  23.313  0.00  0.00    -0.082 SA
ATOM     11  C   UNL d   1     -46.194  12.035  23.313  0.00  0.00     0.036 A 
ATOM     12  C   UNL d   1     -45.766  12.562  22.895  0.00  0.00     0.008 A 
ATOM     13  C   UNL d   1     -46.243  13.153  22.624  0.00  0.00     0.012 A 
ENDBRANCH   7   9
ENDBRANCH   2   6
BRANCH   4  14
ATOM     14  C   UNL d   1     -50.471  15.308  23.145  0.00  0.00     0.026 C 
ATOM     15  C   UNL d   1     -50.697  15.921  23.650  0.00  0.00     0.002 C 
ATOM     16  C   UNL d   1     -51.064  14.818  22.817  0.00  0.00     0.002 C 
ENDBRANCH   4  14
TORSDOF 3
ENDMDL
MODEL 4
REMARK VINA RESULT:      -5.9      1.102      3.982
REMARK  3 active torsions:
REMARK  status: ('A' for Active; 'I' for Inactive)
REMARK    1  A    between atoms: N_5  and  C_2 
REMARK    2  A    between atoms: C_14  and  C_4 
REMARK       I    between atoms: C_7  and  N_5 
REMARK    3  A    between atoms: C_8  and  C_7 
ROOT
ATOM      1  S   UNL d   1     -49.232  12.796  22.395  0.00  0.00    -0.026 SA
ATOM      2  C   UNL d   1     -48.516  12.383  22.404  0.00  0.00     0.219 A 
ATOM      3  N   UNL d   1     -49.526  11.576  22.771  0.00  0.00    -0.139 NA
ATOM      4  C   UNL d   1     -49.840  12.298  22.619  0.00  0.00     0.135 A 
ATOM      5  N   UNL d   1     -48.701  11.617  22.640  0.00  0.00    -0.121 NA
ENDROOT
BRANCH   2   6
ATOM      6  N   UNL d   1     -47.732  12.599  22.232  0.00  0.00    -0.181 NA
ATOM      7  C   UNL d   1     -47.345  13.104  22.736  0.00  0.00     0.287 C 
ATOM      8  O   UNL d   1     -47.701  13.414  23.418  0.00  0.00    -0.265 OA
BRANCH   7   9
ATOM      9  C   UNL d   1     -46.587  13.311  22.566  0.00  0.00     0.087 A 
ATOM     10  S   UNL d   1     -46.292  14.066  22.623  0.00  0.00    -0.082 SA
ATOM     11  C   UNL d   1     -45.485  14.039  22.397  0.00  0.00     0.036 A 
ATOM     12  C   UNL d   1     -45.310  13.283  22.211  0.00  0.00     0.008 A 
ATOM     13  C   UNL d   1     -45.962  12.817  22.305  0.00  0.00     0.012 A 
ENDBRANCH   7   9
ENDBRANCH   2   6
BRANCH   4  14
ATOM     14  C   UNL d   1     -50.655  12.523  22.675  0.00  0.00     0.026 C 
ATOM     15  C   UNL d   1     -51.060  12.883  22.052  0.00  0.00     0.002 C 
ATOM     16  C   UNL d   1     -51.064  12.374  23.389  0.00  0.00     0.002 C 
ENDBRANCH   4  14
TORSDOF 3
ENDMDL
MODEL 5
REMARK VINA RESULT:      -5.4      8.979      9.472
REMARK  3 active torsions:
REMARK  status: ('A' for Active; 'I' for Inactive)
REMARK    1  A    between atoms: N_5  and  C_2 
REMARK    2  A    between atoms: C_14  and  C_4 
REMARK       I    between atoms: C_7  and  N_5 
REMARK    3  A    between atoms: C_8  and  C_7 
ROOT
ATOM      1  S   UNL d   1     -40.142  15.151  18.380  0.00  0.00    -0.026 SA
ATOM      2  C   UNL d   1     -40.155  14.528  18.924  0.00  0.00     0.219 A 
ATOM      3  N   UNL d   1     -40.887  14.217  17.840  0.00  0.00    -0.139 NA
ATOM      4  C   UNL d   1     -40.589  14.953  17.724  0.00  0.00     0.135 A 
ATOM      5  N   UNL d   1     -40.623  13.943  18.585  0.00  0.00    -0.121 NA
ENDROOT
BRANCH   2   6
ATOM      6  N   UNL d   1     -39.809  14.419  19.671  0.00  0.00    -0.181 NA
ATOM      7  C   UNL d   1     -40.156  14.766  20.319  0.00  0.00     0.287 C 
ATOM      8  O   UNL d   1     -40.843  15.227  20.264  0.00  0.00    -0.265 OA
BRANCH   7   9
ATOM      9  C   UNL d   1     -39.818  14.658  21.040  0.00  0.00     0.087 A 
ATOM     10  S   UNL d   1     -39.523  15.255  21.504  0.00  0.00    -0.082 SA
ATOM     11  C   UNL d   1     -39.224  14.905  22.206  0.00  0.00     0.036 A 
ATOM     12  C   UNL d   1     -39.341  14.118  22.153  0.00  0.00     0.008 A 
ATOM     13  C   UNL d   1     -39.702  13.938  21.454  0.00  0.00     0.012 A 
ENDBRANCH   7   9
ENDBRANCH   2   6
BRANCH   4  14
ATOM     14  C   UNL d   1     -40.706  15.452  17.049  0.00  0.00     0.026 C 
ATOM     15  C   UNL d   1     -41.456  15.664  16.780  0.00  0.00     0.002 C 
ATOM     16  C   UNL d   1     -40.035  15.739  16.642  0.00  0.00     0.002 C 
ENDBRANCH   4  14
TORSDOF 3
ENDMDL
MODEL 6
REMARK VINA RESULT:      -4.9      8.856      9.382
REMARK  3 active torsions:
REMARK  status: ('A' for Active; 'I' for Inactive)
REMARK    1  A    between atoms: N_5  and  C_2 
REMARK    2  A    between atoms: C_14  and  C_4 
REMARK       I    between atoms: C_7  and  N_5 
REMARK    3  A    between atoms: C_8  and  C_7 
ROOT
ATOM      1  S   UNL d   1     -39.584  14.798  20.507  0.00  0.00    -0.026 SA
ATOM      2  C   UNL d   1     -40.242  14.927  20.022  0.00  0.00     0.219 A 
ATOM      3  N   UNL d   1     -40.629  14.450  21.217  0.00  0.00    -0.139 NA
ATOM      4  C   UNL d   1     -39.829  14.509  21.232  0.00  0.00     0.135 A 
ATOM      5  N   UNL d   1     -40.897  14.708  20.468  0.00  0.00    -0.121 NA
ENDROOT
BRANCH   2   6
ATOM      6  N   UNL d   1     -40.330  15.209  19.246  0.00  0.00    -0.181 NA
ATOM      7  C   UNL d   1     -40.392  14.674  18.638  0.00  0.00     0.287 C 
ATOM      8  O   UNL d   1     -40.372  13.854  18.762  0.00  0.00    -0.265 OA
BRANCH   7   9
ATOM      9  C   UNL d   1     -40.477  14.951  17.888  0.00  0.00     0.087 A 
ATOM     10  S   UNL d   1     -39.933  14.845  17.295  0.00  0.00    -0.082 SA
ATOM     11  C   UNL d   1     -40.235  15.218  16.607  0.00  0.00     0.036 A 
ATOM     12  C   UNL d   1     -40.942  15.537  16.794  0.00  0.00     0.008 A 
ATOM     13  C   UNL d   1     -41.115  15.390  17.568  0.00  0.00     0.012 A 
ENDBRANCH   7   9
ENDBRANCH   2   6
BRANCH   4  14
ATOM     14  C   UNL d   1     -39.313  14.311  21.873  0.00  0.00     0.026 C 
ATOM     15  C   UNL d   1     -39.104  13.532  22.051  0.00  0.00     0.002 C 
ATOM     16  C   UNL d   1     -39.003  14.928  22.345  0.00  0.00     0.002 C 
ENDBRANCH   4  14
TORSDOF 3
ENDMDL
MODEL 7
REMARK VINA RESULT:      -4.9      8.833     10.759
REMARK  3 active torsions:
REMARK  status: ('A' for Active; 'I' for Inactive)
REMARK    1  A    between atoms: N_5  and  C_2 
REMARK    2  A    between atoms: C_14  and  C_4 
REMARK       I    between atoms: C_7  and  N_5 
REMARK    3  A    between atoms: C_8  and  C_7 
ROOT
ATOM      1  S   UNL d   1     -39.992  14.915  18.799  0.00  0.00    -0.026 SA
ATOM      2  C   UNL d   1     -40.068  14.513  18.079  0.00  0.00     0.219 A 
ATOM      3  N   UNL d   1     -40.956  14.044  18.972  0.00  0.00    -0.139 NA
ATOM      4  C   UNL d   1     -40.536  14.623  19.335  0.00  0.00     0.135 A 
ATOM      5  N   UNL d   1     -40.673  13.968  18.189  0.00  0.00    -0.121 NA
ENDROOT
BRANCH   2   6
ATOM      6  N   UNL d   1     -39.673  14.572  17.351  0.00  0.00    -0.181 NA
ATOM      7  C   UNL d   1     -38.939  14.232  17.274  0.00  0.00     0.287 C 
ATOM      8  O   UNL d   1     -38.568  13.827  17.896  0.00  0.00    -0.265 OA
BRANCH   7   9
ATOM      9  C   UNL d   1     -38.560  14.291  16.568  0.00  0.00     0.087 A 
ATOM     10  S   UNL d   1     -38.304  14.988  16.240  0.00  0.00    -0.082 SA
ATOM     11  C   UNL d   1     -37.939  14.803  15.507  0.00  0.00     0.036 A 
ATOM     12  C   UNL d   1     -37.981  14.013  15.409  0.00  0.00     0.008 A 
ATOM     13  C   UNL d   1     -38.353  13.674  16.039  0.00  0.00     0.012 A 
ENDBRANCH   7   9
ENDBRANCH   2   6
BRANCH   4  14
ATOM     14  C   UNL d   1     -40.625  14.897  20.132  0.00  0.00     0.026 C 
ATOM     15  C   UNL d   1     -40.438  14.428  20.786  0.00  0.00     0.002 C 
ATOM     16  C   UNL d   1     -40.913  15.671  20.261  0.00  0.00     0.002 C 
ENDBRANCH   4  14
TORSDOF 3
ENDMDL
