MODEL 1
REMARK VINA RESULT:      -9.0      0.000      0.000
REMARK  4 active torsions:
REMARK  status: ('A' for Active; 'I' for Inactive)
REMARK    1  A    between atoms: C_2  and  S_1 
REMARK    2  A    between atoms: C_4  and  S_1 
REMARK    3  A    between atoms: C_3  and  C_2 
REMARK    4  A    between atoms: C_8  and  C_3 
ROOT
ATOM      1  S   UNL d   1      52.995  32.977  53.462  0.00  0.00     0.214 S 
ATOM      2  O   UNL d   1      52.246  32.865  53.788  0.00  0.00    -0.217 OA
ATOM      3  O   UNL d   1      53.729  33.079  53.141  0.00  0.00    -0.217 OA
ENDROOT
BRANCH   1   4
ATOM      4  C   UNL d   1      52.964  32.214  53.176  0.00  0.00     0.141 C 
BRANCH   4   5
ATOM      5  C   UNL d   1      53.487  31.656  53.454  0.00  0.00     0.207 C 
ATOM      6  O   UNL d   1      54.191  31.925  53.726  0.00  0.00    -0.286 OA
BRANCH   5   7
ATOM      7  C   UNL d   1      53.295  30.853  53.452  0.00  0.00     0.040 A 
ATOM      8  C   UNL d   1      53.515  30.383  54.094  0.00  0.00     0.003 A 
ATOM      9  C   UNL d   1      53.324  29.580  54.092  0.00  0.00     0.000 A 
ATOM     10  C   UNL d   1      52.924  29.232  53.478  0.00  0.00     0.000 A 
ATOM     11  C   UNL d   1      52.707  29.701  52.842  0.00  0.00     0.000 A 
ATOM     12  C   UNL d   1      52.898  30.504  52.843  0.00  0.00     0.003 A 
ENDBRANCH   5   7
ENDBRANCH   4   5
ENDBRANCH   1   4
BRANCH   1  13
ATOM     13  C   UNL d   1      53.011  33.730  53.752  0.00  0.00     0.088 A 
ATOM     14  C   UNL d   1      52.760  34.353  53.279  0.00  0.00     0.011 A 
ATOM     15  C   UNL d   1      52.764  35.136  53.547  0.00  0.00     0.001 A 
ATOM     16  C   UNL d   1      53.038  35.274  54.337  0.00  0.00     0.000 A 
ATOM     17  C   UNL d   1      53.280  34.661  54.791  0.00  0.00     0.001 A 
ATOM     18  C   UNL d   1      53.058  36.054  54.650  0.00  0.00     0.000 C 
ATOM     19  C   UNL d   1      53.270  33.884  54.508  0.00  0.00     0.011 A 
ENDBRANCH   1  13
TORSDOF 4
ENDMDL
MODEL 2
REMARK VINA RESULT:      -8.8      2.165      3.359
REMARK  4 active torsions:
REMARK  status: ('A' for Active; 'I' for Inactive)
REMARK    1  A    between atoms: C_2  and  S_1 
REMARK    2  A    between atoms: C_4  and  S_1 
REMARK    3  A    between atoms: C_3  and  C_2 
REMARK    4  A    between atoms: C_8  and  C_3 
ROOT
ATOM      1  S   UNL d   1      51.742  34.156  53.217  0.00  0.00     0.214 S 
ATOM      2  O   UNL d   1      52.161  34.705  52.767  0.00  0.00    -0.217 OA
ATOM      3  O   UNL d   1      51.336  33.617  53.662  0.00  0.00    -0.217 OA
ENDROOT
BRANCH   1   4
ATOM      4  C   UNL d   1      52.390  34.089  53.706  0.00  0.00     0.141 C 
BRANCH   4   5
ATOM      5  C   UNL d   1      52.835  33.408  53.697  0.00  0.00     0.207 C 
ATOM      6  O   UNL d   1      52.529  32.782  53.302  0.00  0.00    -0.286 OA
BRANCH   5   7
ATOM      7  C   UNL d   1      53.566  33.371  54.080  0.00  0.00     0.040 A 
ATOM      8  C   UNL d   1      54.213  33.041  53.687  0.00  0.00     0.003 A 
ATOM      9  C   UNL d   1      54.943  33.004  54.067  0.00  0.00     0.000 A 
ATOM     10  C   UNL d   1      55.052  33.282  54.822  0.00  0.00     0.000 A 
ATOM     11  C   UNL d   1      54.408  33.609  55.210  0.00  0.00     0.000 A 
ATOM     12  C   UNL d   1      53.677  33.647  54.829  0.00  0.00     0.003 A 
ENDBRANCH   5   7
ENDBRANCH   4   5
ENDBRANCH   1   4
BRANCH   1  13
ATOM     13  C   UNL d   1      51.108  34.233  52.722  0.00  0.00     0.088 A 
ATOM     14  C   UNL d   1      50.364  34.385  53.036  0.00  0.00     0.011 A 
ATOM     15  C   UNL d   1      49.695  34.470  52.556  0.00  0.00     0.001 A 
ATOM     16  C   UNL d   1      49.806  34.394  51.720  0.00  0.00     0.000 A 
ATOM     17  C   UNL d   1      50.534  34.246  51.423  0.00  0.00     0.001 A 
ATOM     18  C   UNL d   1      49.154  34.473  51.195  0.00  0.00     0.000 C 
ATOM     19  C   UNL d   1      51.193  34.164  51.916  0.00  0.00     0.011 A 
ENDBRANCH   1  13
TORSDOF 4
ENDMDL
MODEL 3
REMARK VINA RESULT:      -8.7      2.149      3.754
REMARK  4 active torsions:
REMARK  status: ('A' for Active; 'I' for Inactive)
REMARK    1  A    between atoms: C_2  and  S_1 
REMARK    2  A    between atoms: C_4  and  S_1 
REMARK    3  A    between atoms: C_3  and  C_2 
REMARK    4  A    between atoms: C_8  and  C_3 
ROOT
ATOM      1  S   UNL d   1      52.432  34.034  53.254  0.00  0.00     0.214 S 
ATOM      2  O   UNL d   1      52.442  34.830  53.469  0.00  0.00    -0.217 OA
ATOM      3  O   UNL d   1      52.416  33.255  53.040  0.00  0.00    -0.217 OA
ENDROOT
BRANCH   1   4
ATOM      4  C   UNL d   1      51.808  34.196  52.756  0.00  0.00     0.141 C 
BRANCH   4   5
ATOM      5  C   UNL d   1      51.056  33.959  52.958  0.00  0.00     0.207 C 
ATOM      6  O   UNL d   1      50.992  33.445  53.569  0.00  0.00    -0.286 OA
BRANCH   5   7
ATOM      7  C   UNL d   1      50.396  34.239  52.549  0.00  0.00     0.040 A 
ATOM      8  C   UNL d   1      49.821  34.671  52.955  0.00  0.00     0.003 A 
ATOM      9  C   UNL d   1      49.161  34.952  52.548  0.00  0.00     0.000 A 
ATOM     10  C   UNL d   1      49.054  34.818  51.755  0.00  0.00     0.000 A 
ATOM     11  C   UNL d   1      49.626  34.389  51.353  0.00  0.00     0.000 A 
ATOM     12  C   UNL d   1      50.287  34.108  51.761  0.00  0.00     0.003 A 
ENDBRANCH   5   7
ENDBRANCH   4   5
ENDBRANCH   1   4
BRANCH   1  13
ATOM     13  C   UNL d   1      53.050  33.890  53.753  0.00  0.00     0.088 A 
ATOM     14  C   UNL d   1      53.586  33.294  53.575  0.00  0.00     0.011 A 
ATOM     15  C   UNL d   1      54.231  33.122  54.066  0.00  0.00     0.001 A 
ATOM     16  C   UNL d   1      54.318  33.589  54.767  0.00  0.00     0.000 A 
ATOM     17  C   UNL d   1      53.791  34.168  54.932  0.00  0.00     0.001 A 
ATOM     18  C   UNL d   1      54.958  33.449  55.294  0.00  0.00     0.000 C 
ATOM     19  C   UNL d   1      53.153  34.327  54.432  0.00  0.00     0.011 A 
ENDBRANCH   1  13
TORSDOF 4
ENDMDL
MODEL 4
REMARK VINA RESULT:      -8.4      0.601      4.274
REMARK  4 active torsions:
REMARK  status: ('A' for Active; 'I' for Inactive)
REMARK    1  A    between atoms: C_2  and  S_1 
REMARK    2  A    between atoms: C_4  and  S_1 
REMARK    3  A    between atoms: C_3  and  C_2 
REMARK    4  A    between atoms: C_8  and  C_3 
ROOT
ATOM      1  S   UNL d   1      53.237  32.111  53.356  0.00  0.00     0.214 S 
ATOM      2  O   UNL d   1      53.628  32.097  54.082  0.00  0.00    -0.217 OA
ATOM      3  O   UNL d   1      52.855  32.131  52.645  0.00  0.00    -0.217 OA
ENDROOT
BRANCH   1   4
ATOM      4  C   UNL d   1      53.311  32.922  53.352  0.00  0.00     0.141 C 
BRANCH   4   5
ATOM      5  C   UNL d   1      52.725  33.384  53.677  0.00  0.00     0.207 C 
ATOM      6  O   UNL d   1      52.000  33.050  53.747  0.00  0.00    -0.286 OA
BRANCH   5   7
ATOM      7  C   UNL d   1      52.877  34.158  53.920  0.00  0.00     0.040 A 
ATOM      8  C   UNL d   1      52.832  34.772  53.369  0.00  0.00     0.003 A 
ATOM      9  C   UNL d   1      52.983  35.546  53.611  0.00  0.00     0.000 A 
ATOM     10  C   UNL d   1      53.177  35.729  54.378  0.00  0.00     0.000 A 
ATOM     11  C   UNL d   1      53.222  35.118  54.923  0.00  0.00     0.000 A 
ATOM     12  C   UNL d   1      53.070  34.343  54.680  0.00  0.00     0.003 A 
ENDBRANCH   5   7
ENDBRANCH   4   5
ENDBRANCH   1   4
BRANCH   1  13
ATOM     13  C   UNL d   1      53.171  31.306  53.376  0.00  0.00     0.088 A 
ATOM     14  C   UNL d   1      53.654  30.871  53.878  0.00  0.00     0.011 A 
ATOM     15  C   UNL d   1      53.612  30.045  53.921  0.00  0.00     0.001 A 
ATOM     16  C   UNL d   1      53.045  29.660  53.422  0.00  0.00     0.000 A 
ATOM     17  C   UNL d   1      52.579  30.093  52.936  0.00  0.00     0.001 A 
ATOM     18  C   UNL d   1      52.968  28.823  53.433  0.00  0.00     0.000 C 
ATOM     19  C   UNL d   1      52.634  30.917  52.905  0.00  0.00     0.011 A 
ENDBRANCH   1  13
TORSDOF 4
ENDMDL
