MODEL 1
REMARK VINA RESULT:      12.9      0.000      0.000
REMARK  3 active torsions:
REMARK  status: ('A' for Active; 'I' for Inactive)
REMARK    1  A    between atoms: N_2  and  N_1 
REMARK    2  A    between atoms: C_3  and  N_1 
REMARK    3  A    between atoms: C_4  and  N_2 
ROOT
ATOM      1  N   UNL d   1      58.901  49.695  50.204  0.00  0.00    -0.148 NA
ENDROOT
BRANCH   1   2
ATOM      2  N   UNL d   1      58.246  49.269  50.449  0.00  0.00    -0.148 NA
BRANCH   2   3
ATOM      3  C   UNL d   1      57.503  49.416  50.071  0.00  0.00     0.103 A 
ATOM      4  C   UNL d   1      56.810  49.419  50.513  0.00  0.00     0.021 A 
ATOM      5  C   UNL d   1      56.084  49.563  50.148  0.00  0.00     0.002 A 
ATOM      6  C   UNL d   1      56.054  49.706  49.328  0.00  0.00     0.000 A 
ATOM      7  C   UNL d   1      56.751  49.702  48.892  0.00  0.00     0.002 A 
ATOM      8  C   UNL d   1      57.473  49.560  49.251  0.00  0.00     0.021 A 
ENDBRANCH   2   3
ENDBRANCH   1   2
BRANCH   1   9
ATOM      9  C   UNL d   1      59.570  49.697  50.690  0.00  0.00     0.103 A 
ATOM     10  C   UNL d   1      59.490  49.704  51.508  0.00  0.00     0.022 A 
ATOM     11  C   UNL d   1      60.171  49.706  51.986  0.00  0.00     0.022 A 
ATOM     12  C   UNL d   1      60.898  49.701  51.658  0.00  0.00     0.103 A 
ATOM     13  C   UNL d   1      60.990  49.693  50.831  0.00  0.00     0.022 A 
ATOM     14  N   UNL d   1      61.571  49.703  52.154  0.00  0.00    -0.148 N 
ATOM     15  C   UNL d   1      60.326  49.691  50.349  0.00  0.00     0.022 A 
ENDBRANCH   1   9
TORSDOF 3
ENDMDL
