MODEL 1
REMARK VINA RESULT:      -5.0      0.000      0.000
REMARK  6 active torsions:
REMARK  status: ('A' for Active; 'I' for Inactive)
REMARK    1  A    between atoms: O_9  and  S_1 
REMARK    2  A    between atoms: C_10  and  C_4 
REMARK    3  A    between atoms: C_14  and  O_9 
REMARK    4  A    between atoms: C_13  and  C_10 
REMARK    5  A    between atoms: C_16  and  C_13 
REMARK    6  A    between atoms: C_19  and  C_16 
ROOT
ATOM      1  C   UNL d   1     -41.895-122.433 -50.429  0.00  0.00     0.064 A 
ATOM      2  C   UNL d   1     -41.970-123.251 -50.510  0.00  0.00     0.105 A 
ATOM      3  C   UNL d   1     -41.442-122.767 -51.641  0.00  0.00     0.139 A 
ATOM      4  C   UNL d   1     -41.570-122.136 -51.127  0.00  0.00     0.220 A 
ATOM      5  O   UNL d   1     -41.689-123.464 -51.262  0.00  0.00    -0.304 OA
ATOM      6  C   UNL d   1     -42.282-123.697 -49.892  0.00  0.00     0.050 A 
ATOM      7  C   UNL d   1     -42.133-122.062 -49.731  0.00  0.00     0.007 A 
ATOM      8  C   UNL d   1     -42.517-123.327 -49.202  0.00  0.00     0.115 A 
ATOM      9  O   UNL d   1     -41.400-121.340 -51.285  0.00  0.00    -0.284 OA
ATOM     10  C   UNL d   1     -42.446-122.513 -49.114  0.00  0.00     0.026 A 
ENDROOT
BRANCH   3  11
ATOM     11  C   UNL d   1     -41.123-122.721 -52.403  0.00  0.00     0.028 C 
BRANCH  11  12
ATOM     12  C   UNL d   1     -41.620-122.654 -53.061  0.00  0.00     0.002 C 
BRANCH  12  13
ATOM     13  C   UNL d   1     -41.324-122.773 -53.819  0.00  0.00     0.000 C 
BRANCH  13  14
ATOM     14  C   UNL d   1     -41.746-122.523 -54.476  0.00  0.00     0.000 A 
ATOM     15  C   UNL d   1     -42.143-123.070 -54.950  0.00  0.00     0.000 A 
ATOM     16  C   UNL d   1     -42.569-122.816 -55.615  0.00  0.00     0.000 A 
ATOM     17  C   UNL d   1     -42.595-122.012 -55.802  0.00  0.00     0.000 A 
ATOM     18  C   UNL d   1     -42.194-121.464 -55.323  0.00  0.00     0.000 A 
ATOM     19  C   UNL d   1     -41.772-121.724 -54.663  0.00  0.00     0.000 A 
ENDBRANCH  13  14
ENDBRANCH  12  13
ENDBRANCH  11  12
ENDBRANCH   3  11
BRANCH   8  20
ATOM     20  O   UNL d   1     -42.832-123.776 -48.577  0.00  0.00    -0.230 OA
BRANCH  20  21
ATOM     21  S   UNL d   1     -42.447-123.790 -47.845  0.00  0.00     0.285 S 
ATOM     22  O   UNL d   1     -43.274-123.811 -47.858  0.00  0.00    -0.197 OA
ATOM     23  O   UNL d   1     -41.636-123.770 -47.819  0.00  0.00    -0.197 OA
ATOM     24  C   UNL d   1     -42.471-123.817 -47.012  0.00  0.00     0.172 C 
ENDBRANCH  20  21
ENDBRANCH   8  20
TORSDOF 6
ENDMDL
MODEL 2
REMARK VINA RESULT:      -4.7      2.180      5.663
REMARK  6 active torsions:
REMARK  status: ('A' for Active; 'I' for Inactive)
REMARK    1  A    between atoms: O_9  and  S_1 
REMARK    2  A    between atoms: C_10  and  C_4 
REMARK    3  A    between atoms: C_14  and  O_9 
REMARK    4  A    between atoms: C_13  and  C_10 
REMARK    5  A    between atoms: C_16  and  C_13 
REMARK    6  A    between atoms: C_19  and  C_16 
ROOT
ATOM      1  C   UNL d   1     -41.297-122.826 -52.529  0.00  0.00     0.064 A 
ATOM      2  C   UNL d   1     -41.391-122.007 -52.580  0.00  0.00     0.105 A 
ATOM      3  C   UNL d   1     -41.276-122.335 -51.286  0.00  0.00     0.139 A 
ATOM      4  C   UNL d   1     -41.226-123.026 -51.732  0.00  0.00     0.220 A 
ATOM      5  O   UNL d   1     -41.378-121.697 -51.810  0.00  0.00    -0.304 OA
ATOM      6  C   UNL d   1     -41.475-121.650 -53.316  0.00  0.00     0.050 A 
ATOM      7  C   UNL d   1     -41.287-123.285 -53.215  0.00  0.00     0.007 A 
ATOM      8  C   UNL d   1     -41.465-122.107 -53.994  0.00  0.00     0.115 A 
ATOM      9  O   UNL d   1     -41.123-123.791 -51.429  0.00  0.00    -0.284 OA
ATOM     10  C   UNL d   1     -41.372-122.923 -53.952  0.00  0.00     0.026 A 
ENDROOT
BRANCH   3  11
ATOM     11  C   UNL d   1     -41.232-122.279 -50.462  0.00  0.00     0.028 C 
BRANCH  11  12
ATOM     12  C   UNL d   1     -41.826-122.608 -49.989  0.00  0.00     0.002 C 
BRANCH  12  13
ATOM     13  C   UNL d   1     -41.977-122.303 -49.241  0.00  0.00     0.000 C 
BRANCH  13  14
ATOM     14  C   UNL d   1     -42.144-122.801 -48.612  0.00  0.00     0.000 A 
ATOM     15  C   UNL d   1     -41.536-123.087 -48.132  0.00  0.00     0.000 A 
ATOM     16  C   UNL d   1     -41.706-123.591 -47.496  0.00  0.00     0.000 A 
ATOM     17  C   UNL d   1     -42.489-123.808 -47.343  0.00  0.00     0.000 A 
ATOM     18  C   UNL d   1     -43.098-123.518 -47.827  0.00  0.00     0.000 A 
ATOM     19  C   UNL d   1     -42.921-123.016 -48.458  0.00  0.00     0.000 A 
ENDBRANCH  13  14
ENDBRANCH  12  13
ENDBRANCH  11  12
ENDBRANCH   3  11
BRANCH   8  20
ATOM     20  O   UNL d   1     -41.551-121.747 -54.739  0.00  0.00    -0.230 OA
BRANCH  20  21
ATOM     21  S   UNL d   1     -42.231-121.887 -55.188  0.00  0.00     0.285 S 
ATOM     22  O   UNL d   1     -41.526-121.709 -55.582  0.00  0.00    -0.197 OA
ATOM     23  O   UNL d   1     -42.929-122.064 -54.814  0.00  0.00    -0.197 OA
ATOM     24  C   UNL d   1     -42.615-121.948 -55.926  0.00  0.00     0.172 C 
ENDBRANCH  20  21
ENDBRANCH   8  20
TORSDOF 6
ENDMDL
