MODEL 1
REMARK VINA RESULT:      -6.8      0.000      0.000
REMARK  4 active torsions:
REMARK  status: ('A' for Active; 'I' for Inactive)
REMARK    1  A    between atoms: N_10  and  C_3 
REMARK    2  A    between atoms: C_11  and  C_4 
REMARK    3  A    between atoms: C_15  and  N_10 
REMARK       I    between atoms: C_12  and  N_13 
REMARK    4  A    between atoms: N_13  and  C_16 
ROOT
ATOM      1  C   UNL d   1     -48.240  13.533  22.799  0.00  0.00     0.167 A 
ATOM      2  N   UNL d   1     -47.466  13.750  22.956  0.00  0.00    -0.195 N 
ATOM      3  C   UNL d   1     -46.912  13.183  23.189  0.00  0.00     0.167 A 
ATOM      4  C   UNL d   1     -48.655  14.206  22.582  0.00  0.00     0.057 A 
ATOM      5  N   UNL d   1     -47.398  14.558  22.837  0.00  0.00    -0.161 NA
ATOM      6  N   UNL d   1     -48.474  12.744  22.872  0.00  0.00    -0.227 NA
ATOM      7  C   UNL d   1     -47.147  12.391  23.263  0.00  0.00     0.058 A 
ATOM      8  C   UNL d   1     -48.127  14.839  22.608  0.00  0.00     0.124 A 
ATOM      9  C   UNL d   1     -47.921  12.174  23.106  0.00  0.00     0.086 A 
ATOM     10  C   UNL d   1     -48.136  11.378  23.186  0.00  0.00     0.021 C 
ENDROOT
BRANCH   3  11
ATOM     11  N   UNL d   1     -46.138  13.400  23.347  0.00  0.00    -0.227 NA
BRANCH  11  12
ATOM     12  C   UNL d   1     -45.524  13.132  22.864  0.00  0.00     0.083 A 
ATOM     13  C   UNL d   1     -45.319  13.563  22.191  0.00  0.00     0.021 A 
ATOM     14  C   UNL d   1     -44.701  13.296  21.702  0.00  0.00     0.021 A 
ATOM     15  C   UNL d   1     -44.299  12.607  21.890  0.00  0.00     0.085 A 
ATOM     16  C   UNL d   1     -44.509  12.174  22.569  0.00  0.00     0.021 A 
ATOM     17  C   UNL d   1     -45.120  12.439  23.052  0.00  0.00     0.021 A 
BRANCH  15  18
ATOM     18  N   UNL d   1     -43.678  12.340  21.396  0.00  0.00    -0.208 NA
ATOM     19  C   UNL d   1     -43.047  12.837  21.207  0.00  0.00     0.279 C 
ATOM     20  O   UNL d   1     -42.429  12.567  20.715  0.00  0.00    -0.265 OA
ATOM     21  C   UNL d   1     -43.029  13.600  21.507  0.00  0.00     0.068 C 
ENDBRANCH  15  18
ENDBRANCH  11  12
ENDBRANCH   3  11
BRANCH   4  22
ATOM     22  C   UNL d   1     -49.458  14.167  22.388  0.00  0.00     0.004 A 
ATOM     23  C   UNL d   1     -50.019  14.357  22.962  0.00  0.00     0.000 A 
ATOM     24  C   UNL d   1     -50.821  14.321  22.777  0.00  0.00     0.000 A 
ATOM     25  C   UNL d   1     -51.064  14.093  22.013  0.00  0.00     0.000 A 
ATOM     26  C   UNL d   1     -50.499  13.906  21.448  0.00  0.00     0.000 A 
ATOM     27  C   UNL d   1     -49.696  13.943  21.637  0.00  0.00     0.000 A 
ENDBRANCH   4  22
TORSDOF 4
ENDMDL
MODEL 2
REMARK VINA RESULT:      -6.5      7.495      9.527
REMARK  4 active torsions:
REMARK  status: ('A' for Active; 'I' for Inactive)
REMARK    1  A    between atoms: N_10  and  C_3 
REMARK    2  A    between atoms: C_11  and  C_4 
REMARK    3  A    between atoms: C_15  and  N_10 
REMARK       I    between atoms: C_12  and  N_13 
REMARK    4  A    between atoms: N_13  and  C_16 
ROOT
ATOM      1  C   UNL d   1     -39.320  14.601  17.561  0.00  0.00     0.167 A 
ATOM      2  N   UNL d   1     -39.919  14.783  18.089  0.00  0.00    -0.195 N 
ATOM      3  C   UNL d   1     -39.919  14.455  18.847  0.00  0.00     0.167 A 
ATOM      4  C   UNL d   1     -39.466  15.004  16.861  0.00  0.00     0.057 A 
ATOM      5  N   UNL d   1     -40.438  15.299  17.720  0.00  0.00    -0.161 NA
ATOM      6  N   UNL d   1     -38.711  14.088  17.780  0.00  0.00    -0.227 NA
ATOM      7  C   UNL d   1     -39.309  13.940  19.069  0.00  0.00     0.058 A 
ATOM      8  C   UNL d   1     -40.161  15.435  16.966  0.00  0.00     0.124 A 
ATOM      9  C   UNL d   1     -38.711  13.758  18.540  0.00  0.00     0.086 A 
ATOM     10  C   UNL d   1     -38.109  13.242  18.781  0.00  0.00     0.021 C 
ENDROOT
BRANCH   3  11
ATOM     11  N   UNL d   1     -40.519  14.637  19.377  0.00  0.00    -0.227 NA
BRANCH  11  12
ATOM     12  C   UNL d   1     -40.336  14.893  20.140  0.00  0.00     0.083 A 
ATOM     13  C   UNL d   1     -40.402  14.367  20.771  0.00  0.00     0.021 A 
ATOM     14  C   UNL d   1     -40.219  14.622  21.542  0.00  0.00     0.021 A 
ATOM     15  C   UNL d   1     -39.974  15.393  21.671  0.00  0.00     0.085 A 
ATOM     16  C   UNL d   1     -39.909  15.922  21.031  0.00  0.00     0.021 A 
ATOM     17  C   UNL d   1     -40.090  15.669  20.269  0.00  0.00     0.021 A 
BRANCH  15  18
ATOM     18  N   UNL d   1     -39.790  15.647  22.447  0.00  0.00    -0.208 NA
ATOM     19  C   UNL d   1     -39.021  15.585  22.740  0.00  0.00     0.279 C 
ATOM     20  O   UNL d   1     -38.841  15.839  23.514  0.00  0.00    -0.265 OA
ATOM     21  C   UNL d   1     -38.431  15.270  22.264  0.00  0.00     0.068 C 
ENDBRANCH  15  18
ENDBRANCH  11  12
ENDBRANCH   3  11
BRANCH   4  22
ATOM     22  C   UNL d   1     -38.955  14.933  16.215  0.00  0.00     0.004 A 
ATOM     23  C   UNL d   1     -38.936  14.223  15.795  0.00  0.00     0.000 A 
ATOM     24  C   UNL d   1     -38.429  14.145  15.149  0.00  0.00     0.000 A 
ATOM     25  C   UNL d   1     -37.940  14.780  14.921  0.00  0.00     0.000 A 
ATOM     26  C   UNL d   1     -37.966  15.483  15.345  0.00  0.00     0.000 A 
ATOM     27  C   UNL d   1     -38.474  15.557  15.992  0.00  0.00     0.000 A 
ENDBRANCH   4  22
TORSDOF 4
ENDMDL
MODEL 3
REMARK VINA RESULT:      -5.7      1.123      1.545
REMARK  4 active torsions:
REMARK  status: ('A' for Active; 'I' for Inactive)
REMARK    1  A    between atoms: N_10  and  C_3 
REMARK    2  A    between atoms: C_11  and  C_4 
REMARK    3  A    between atoms: C_15  and  N_10 
REMARK       I    between atoms: C_12  and  N_13 
REMARK    4  A    between atoms: N_13  and  C_16 
ROOT
ATOM      1  C   UNL d   1     -48.524  13.423  22.707  0.00  0.00     0.167 A 
ATOM      2  N   UNL d   1     -47.785  13.527  23.043  0.00  0.00    -0.195 N 
ATOM      3  C   UNL d   1     -47.346  12.875  23.297  0.00  0.00     0.167 A 
ATOM      4  C   UNL d   1     -48.823  14.161  22.511  0.00  0.00     0.057 A 
ATOM      5  N   UNL d   1     -47.622  14.331  23.058  0.00  0.00    -0.161 NA
ATOM      6  N   UNL d   1     -48.838  12.664  22.618  0.00  0.00    -0.227 NA
ATOM      7  C   UNL d   1     -47.660  12.113  23.209  0.00  0.00     0.058 A 
ATOM      8  C   UNL d   1     -48.258  14.720  22.732  0.00  0.00     0.124 A 
ATOM      9  C   UNL d   1     -48.399  12.009  22.872  0.00  0.00     0.086 A 
ATOM     10  C   UNL d   1     -48.696  11.239  22.792  0.00  0.00     0.021 C 
ENDROOT
BRANCH   3  11
ATOM     11  N   UNL d   1     -46.606  12.980  23.634  0.00  0.00    -0.227 NA
BRANCH  11  12
ATOM     12  C   UNL d   1     -45.968  12.515  23.391  0.00  0.00     0.083 A 
ATOM     13  C   UNL d   1     -45.880  11.755  23.698  0.00  0.00     0.021 A 
ATOM     14  C   UNL d   1     -45.239  11.284  23.455  0.00  0.00     0.021 A 
ATOM     15  C   UNL d   1     -44.698  11.576  22.912  0.00  0.00     0.085 A 
ATOM     16  C   UNL d   1     -44.791  12.344  22.604  0.00  0.00     0.021 A 
ATOM     17  C   UNL d   1     -45.425  12.809  22.845  0.00  0.00     0.021 A 
BRANCH  15  18
ATOM     18  N   UNL d   1     -44.054  11.100  22.669  0.00  0.00    -0.208 NA
ATOM     19  C   UNL d   1     -43.878  10.396  23.062  0.00  0.00     0.279 C 
ATOM     20  O   UNL d   1     -43.235   9.924  22.817  0.00  0.00    -0.265 OA
ATOM     21  C   UNL d   1     -44.340  10.161  23.698  0.00  0.00     0.068 C 
ENDBRANCH  15  18
ENDBRANCH  11  12
ENDBRANCH   3  11
BRANCH   4  22
ATOM     22  C   UNL d   1     -49.567  14.240  22.159  0.00  0.00     0.004 A 
ATOM     23  C   UNL d   1     -50.203  14.495  22.618  0.00  0.00     0.000 A 
ATOM     24  C   UNL d   1     -50.948  14.577  22.274  0.00  0.00     0.000 A 
ATOM     25  C   UNL d   1     -51.057  14.402  21.467  0.00  0.00     0.000 A 
ATOM     26  C   UNL d   1     -50.418  14.148  21.018  0.00  0.00     0.000 A 
ATOM     27  C   UNL d   1     -49.674  14.068  21.366  0.00  0.00     0.000 A 
ENDBRANCH   4  22
TORSDOF 4
ENDMDL
MODEL 4
REMARK VINA RESULT:      -4.5      6.797      9.328
REMARK  4 active torsions:
REMARK  status: ('A' for Active; 'I' for Inactive)
REMARK    1  A    between atoms: N_10  and  C_3 
REMARK    2  A    between atoms: C_11  and  C_4 
REMARK    3  A    between atoms: C_15  and  N_10 
REMARK       I    between atoms: C_12  and  N_13 
REMARK    4  A    between atoms: N_13  and  C_16 
ROOT
ATOM      1  C   UNL d   1     -39.768  14.677  19.275  0.00  0.00     0.167 A 
ATOM      2  N   UNL d   1     -39.035  14.549  18.934  0.00  0.00    -0.195 N 
ATOM      3  C   UNL d   1     -38.946  14.573  18.113  0.00  0.00     0.167 A 
ATOM      4  C   UNL d   1     -39.687  14.620  20.089  0.00  0.00     0.057 A 
ATOM      5  N   UNL d   1     -38.494  14.411  19.535  0.00  0.00    -0.161 NA
ATOM      6  N   UNL d   1     -40.427  14.832  18.800  0.00  0.00    -0.227 NA
ATOM      7  C   UNL d   1     -39.605  14.728  17.636  0.00  0.00     0.058 A 
ATOM      8  C   UNL d   1     -38.893  14.454  20.244  0.00  0.00     0.124 A 
ATOM      9  C   UNL d   1     -40.339  14.857  17.977  0.00  0.00     0.086 A 
ATOM     10  C   UNL d   1     -40.987  15.010  17.483  0.00  0.00     0.021 C 
ENDROOT
BRANCH   3  11
ATOM     11  N   UNL d   1     -38.211  14.445  17.773  0.00  0.00    -0.227 NA
BRANCH  11  12
ATOM     12  C   UNL d   1     -38.154  14.102  17.024  0.00  0.00     0.083 A 
ATOM     13  C   UNL d   1     -38.251  13.287  16.943  0.00  0.00     0.021 A 
ATOM     14  C   UNL d   1     -38.194  12.938  16.190  0.00  0.00     0.021 A 
ATOM     15  C   UNL d   1     -38.042  13.403  15.532  0.00  0.00     0.085 A 
ATOM     16  C   UNL d   1     -37.945  14.226  15.618  0.00  0.00     0.021 A 
ATOM     17  C   UNL d   1     -38.001  14.570  16.363  0.00  0.00     0.021 A 
BRANCH  15  18
ATOM     18  N   UNL d   1     -37.986  13.050  14.776  0.00  0.00    -0.208 NA
ATOM     19  C   UNL d   1     -38.004  13.512  14.092  0.00  0.00     0.279 C 
ATOM     20  O   UNL d   1     -37.947  13.156  13.339  0.00  0.00    -0.265 OA
ATOM     21  C   UNL d   1     -38.078  14.326  14.156  0.00  0.00     0.068 C 
ENDBRANCH  15  18
ENDBRANCH  11  12
ENDBRANCH   3  11
BRANCH   4  22
ATOM     22  C   UNL d   1     -40.335  14.723  20.591  0.00  0.00     0.004 A 
ATOM     23  C   UNL d   1     -40.407  15.428  21.012  0.00  0.00     0.000 A 
ATOM     24  C   UNL d   1     -41.051  15.539  21.515  0.00  0.00     0.000 A 
ATOM     25  C   UNL d   1     -41.626  14.941  21.597  0.00  0.00     0.000 A 
ATOM     26  C   UNL d   1     -41.546  14.243  21.173  0.00  0.00     0.000 A 
ATOM     27  C   UNL d   1     -40.900  14.135  20.670  0.00  0.00     0.000 A 
ENDBRANCH   4  22
TORSDOF 4
ENDMDL
