MODEL 1
REMARK VINA RESULT:      78.1      0.000      0.000
REMARK  6 active torsions:
REMARK  status: ('A' for Active; 'I' for Inactive)
REMARK    1  A    between atoms: C_22  and  C_3 
REMARK    2  A    between atoms: S_17  and  C_5 
REMARK    3  A    between atoms: C_11  and  C_16 
REMARK       I    between atoms: N_14  and  C_11 
REMARK    4  A    between atoms: C_19  and  N_14 
REMARK    5  A    between atoms: C_16  and  C_20 
REMARK    6  A    between atoms: C_20  and  S_17 
ROOT
ATOM      1  C   UNL d   1     -57.371 -98.805 -43.246  0.00  0.00     0.092 A 
ATOM      2  C   UNL d   1     -58.498 -98.794 -44.118  0.00  0.00     0.057 A 
ATOM      3  C   UNL d   1     -58.187 -98.798 -43.355  0.00  0.00     0.016 A 
ATOM      4  N   UNL d   1     -57.177 -98.802 -44.660  0.00  0.00    -0.239 NA
ATOM      5  C   UNL d   1     -56.866 -98.807 -43.898  0.00  0.00     0.120 A 
ATOM      6  C   UNL d   1     -57.993 -98.796 -44.770  0.00  0.00     0.081 A 
ATOM      7  C   UNL d   1     -59.314 -98.787 -44.228  0.00  0.00     0.193 A 
ATOM      8  C   UNL d   1     -57.053 -98.809 -42.472  0.00  0.00     0.103 C 
ATOM      9  N   UNL d   1     -56.747 -98.814 -41.697  0.00  0.00    -0.191 NA
ATOM     10  C   UNL d   1     -59.126 -98.785 -45.648  0.00  0.00     0.042 A 
ATOM     11  C   UNL d   1     -59.631 -98.783 -44.996  0.00  0.00     0.019 A 
ATOM     12  C   UNL d   1     -58.303 -98.791 -45.532  0.00  0.00    -0.003 A 
ATOM     13  O   UNL d   1     -59.818 -98.785 -43.576  0.00  0.00    -0.287 OA
ATOM     14  C   UNL d   1     -58.867 -98.784 -46.438  0.00  0.00     0.009 C 
ATOM     15  C   UNL d   1     -59.940 -98.778 -45.767  0.00  0.00     0.009 C 
ENDROOT
BRANCH   3  16
ATOM     16  C   UNL d   1     -58.692 -98.796 -42.704  0.00  0.00     0.001 C 
ATOM     17  C   UNL d   1     -59.414 -99.192 -42.739  0.00  0.00     0.000 C 
ENDBRANCH   3  16
BRANCH   5  18
ATOM     18  S   UNL d   1     -56.041 -98.813 -43.780  0.00  0.00    -0.067 SA
BRANCH  18  19
ATOM     19  C   UNL d   1     -55.662 -99.506 -43.538  0.00  0.00     0.042 C 
BRANCH  19  20
ATOM     20  C   UNL d   1     -55.067 -99.471 -42.965  0.00  0.00     0.070 C 
BRANCH  20  21
ATOM     21  C   UNL d   1     -55.094 -99.989 -42.310  0.00  0.00     0.280 C 
ATOM     22  N   UNL d   1     -54.879-100.782 -42.408  0.00  0.00    -0.208 NA
ATOM     23  O   UNL d   1     -55.334 -99.705 -41.573  0.00  0.00    -0.265 OA
BRANCH  22  24
ATOM     24  C   UNL d   1     -54.906-101.302 -41.752  0.00  0.00     0.085 A 
ATOM     25  C   UNL d   1     -55.119-102.088 -41.868  0.00  0.00     0.021 A 
ATOM     26  C   UNL d   1     -55.148-102.604 -41.227  0.00  0.00     0.031 A 
ATOM     27  C   UNL d   1     -54.963-102.333 -40.470  0.00  0.00     0.140 A 
ATOM     28  C   UNL d   1     -54.748-101.538 -40.357  0.00  0.00     0.031 A 
ATOM     29  F   UNL d   1     -54.989-102.847 -39.816  0.00  0.00    -0.204 F 
ATOM     30  C   UNL d   1     -54.719-101.023 -40.999  0.00  0.00     0.021 A 
ENDBRANCH  22  24
ENDBRANCH  20  21
ENDBRANCH  19  20
ENDBRANCH  18  19
ENDBRANCH   5  18
TORSDOF 6
ENDMDL
