MODEL 1
REMARK VINA RESULT:     137.8      0.000      0.000
REMARK  4 active torsions:
REMARK  status: ('A' for Active; 'I' for Inactive)
REMARK    1  A    between atoms: C_4  and  N_1 
REMARK    2  A    between atoms: C_8  and  C_2 
REMARK    3  A    between atoms: C_17  and  C_6 
REMARK    4  A    between atoms: C_7  and  C_8 
ROOT
ATOM      1  N   UNL d   1     -56.778 -99.776 -43.619  0.00  0.00    -0.255 N 
ATOM      2  C   UNL d   1     -55.935-100.521 -42.905  0.00  0.00     0.101 A 
ATOM      3  C   UNL d   1     -56.955 -99.661 -42.812  0.00  0.00     0.305 A 
ATOM      4  C   UNL d   1     -56.436-100.120 -42.372  0.00  0.00     0.256 A 
ATOM      5  C   UNL d   1     -56.155-100.302 -43.664  0.00  0.00     0.075 A 
ATOM      6  O   UNL d   1     -57.547 -99.174 -42.508  0.00  0.00    -0.263 OA
ATOM      7  O   UNL d   1     -56.415-100.174 -41.549  0.00  0.00    -0.281 OA
ENDROOT
BRANCH   2   8
ATOM      8  C   UNL d   1     -55.329-101.043 -42.700  0.00  0.00     0.223 C 
ATOM      9  O   UNL d   1     -54.715-101.189 -43.219  0.00  0.00    -0.284 OA
BRANCH   8  10
ATOM     10  C   UNL d   1     -55.341-101.422 -41.967  0.00  0.00     0.139 A 
ATOM     11  O   UNL d   1     -54.822-101.277 -41.339  0.00  0.00    -0.304 OA
ATOM     12  C   UNL d   1     -55.035-101.776 -40.722  0.00  0.00     0.100 A 
ATOM     13  C   UNL d   1     -54.722-101.878 -39.965  0.00  0.00     0.025 A 
ATOM     14  C   UNL d   1     -55.679-102.227 -40.957  0.00  0.00     0.025 A 
ATOM     15  C   UNL d   1     -55.048-102.422 -39.457  0.00  0.00     0.002 A 
ATOM     16  C   UNL d   1     -55.698-102.876 -39.698  0.00  0.00     0.000 A 
ATOM     17  C   UNL d   1     -56.009-102.777 -40.445  0.00  0.00     0.002 A 
ATOM     18  C   UNL d   1     -55.868-102.009 -41.727  0.00  0.00     0.030 A 
ENDBRANCH   8  10
ENDBRANCH   2   8
BRANCH   5  19
ATOM     19  C   UNL d   1     -55.794-100.577 -44.359  0.00  0.00     0.017 A 
ATOM     20  C   UNL d   1     -55.784-101.383 -44.527  0.00  0.00     0.001 A 
ATOM     21  C   UNL d   1     -55.426-101.656 -45.218  0.00  0.00     0.000 A 
ATOM     22  C   UNL d   1     -55.079-101.117 -45.739  0.00  0.00     0.000 A 
ATOM     23  C   UNL d   1     -55.090-100.306 -45.570  0.00  0.00     0.000 A 
ATOM     24  C   UNL d   1     -54.718-101.388 -46.435  0.00  0.00     0.000 C 
ATOM     25  C   UNL d   1     -55.452-100.039 -44.872  0.00  0.00     0.001 A 
ENDBRANCH   5  19
BRANCH   1  26
ATOM     26  C   UNL d   1     -57.168 -99.419 -44.258  0.00  0.00     0.179 A 
ATOM     27  N   UNL d   1     -56.804 -99.044 -44.888  0.00  0.00    -0.108 NA
ATOM     28  O   UNL d   1     -57.400 -98.769 -45.393  0.00  0.00    -0.210 OA
ATOM     29  C   UNL d   1     -58.126 -98.976 -45.070  0.00  0.00     0.128 A 
ATOM     30  C   UNL d   1     -57.985 -99.385 -44.356  0.00  0.00     0.067 A 
ATOM     31  C   UNL d   1     -58.871 -98.817 -45.384  0.00  0.00     0.029 C 
ENDBRANCH   1  26
TORSDOF 4
ENDMDL
