MODEL 1
REMARK VINA RESULT:      -7.5      0.000      0.000
REMARK  4 active torsions:
REMARK  status: ('A' for Active; 'I' for Inactive)
REMARK    1  A    between atoms: N_14  and  S_1 
REMARK    2  A    between atoms: C_5  and  C_17 
REMARK    3  A    between atoms: C_18  and  N_14 
REMARK    4  A    between atoms: C_17  and  C_18 
ROOT
ATOM      1  N   UNL d   1     -48.790  14.321  22.659  0.00  0.00    -0.208 NA
ATOM      2  C   UNL d   1     -47.968  14.435  22.659  0.00  0.00     0.279 A 
ATOM      3  C   UNL d   1     -49.112  13.597  22.913  0.00  0.00     0.085 A 
ATOM      4  C   UNL d   1     -47.468  13.828  22.912  0.00  0.00     0.059 A 
ATOM      5  C   UNL d   1     -47.786  13.103  23.167  0.00  0.00     0.006 A 
ATOM      6  C   UNL d   1     -48.606  12.995  23.165  0.00  0.00     0.018 A 
ATOM      7  C   UNL d   1     -49.930  13.486  22.912  0.00  0.00     0.019 A 
ATOM      8  C   UNL d   1     -48.929  12.271  23.419  0.00  0.00     0.002 A 
ATOM      9  C   UNL d   1     -50.247  12.767  23.165  0.00  0.00     0.002 A 
ATOM     10  C   UNL d   1     -49.746  12.160  23.418  0.00  0.00     0.000 A 
ATOM     11  O   UNL d   1     -47.652  15.154  22.406  0.00  0.00    -0.265 OA
ATOM     12  C   UNL d   1     -50.063  11.441  23.671  0.00  0.00     0.000 C 
ATOM     13  C   UNL d   1     -51.064  12.656  23.164  0.00  0.00     0.000 C 
ENDROOT
BRANCH   4  14
ATOM     14  C   UNL d   1     -46.650  13.939  22.913  0.00  0.00     0.026 C 
BRANCH  14  15
ATOM     15  C   UNL d   1     -46.156  13.356  22.601  0.00  0.00     0.112 C 
BRANCH  15  16
ATOM     16  N   UNL d   1     -45.339  13.460  22.617  0.00  0.00    -0.160 NA
BRANCH  16  17
ATOM     17  S   UNL d   1     -44.841  12.910  22.238  0.00  0.00     0.266 S 
ATOM     18  O   UNL d   1     -44.671  13.642  21.885  0.00  0.00    -0.203 OA
ATOM     19  O   UNL d   1     -44.284  12.547  21.753  0.00  0.00    -0.203 OA
ATOM     20  C   UNL d   1     -45.028  12.193  22.605  0.00  0.00     0.165 C 
ENDBRANCH  16  17
ENDBRANCH  15  16
ENDBRANCH  14  15
ENDBRANCH   4  14
TORSDOF 4
ENDMDL
MODEL 2
REMARK VINA RESULT:      -7.4      2.185      3.841
REMARK  4 active torsions:
REMARK  status: ('A' for Active; 'I' for Inactive)
REMARK    1  A    between atoms: N_14  and  S_1 
REMARK    2  A    between atoms: C_5  and  C_17 
REMARK    3  A    between atoms: C_18  and  N_14 
REMARK    4  A    between atoms: C_17  and  C_18 
ROOT
ATOM      1  N   UNL d   1     -46.283  13.930  22.833  0.00  0.00    -0.208 NA
ATOM      2  C   UNL d   1     -46.814  14.563  22.756  0.00  0.00     0.279 A 
ATOM      3  C   UNL d   1     -46.560  13.176  23.051  0.00  0.00     0.085 A 
ATOM      4  C   UNL d   1     -47.620  14.445  22.894  0.00  0.00     0.059 A 
ATOM      5  C   UNL d   1     -47.901  13.693  23.112  0.00  0.00     0.006 A 
ATOM      6  C   UNL d   1     -47.367  13.066  23.188  0.00  0.00     0.018 A 
ATOM      7  C   UNL d   1     -46.030  12.548  23.128  0.00  0.00     0.019 A 
ATOM      8  C   UNL d   1     -47.644  12.311  23.405  0.00  0.00     0.002 A 
ATOM      9  C   UNL d   1     -46.308  11.801  23.343  0.00  0.00     0.002 A 
ATOM     10  C   UNL d   1     -47.114  11.683  23.482  0.00  0.00     0.000 A 
ATOM     11  O   UNL d   1     -46.536  15.310  22.540  0.00  0.00    -0.265 OA
ATOM     12  C   UNL d   1     -47.392  10.936  23.698  0.00  0.00     0.000 C 
ATOM     13  C   UNL d   1     -45.779  11.173  23.420  0.00  0.00     0.000 C 
ENDROOT
BRANCH   4  14
ATOM     14  C   UNL d   1     -48.149  15.074  22.818  0.00  0.00     0.026 C 
BRANCH  14  15
ATOM     15  C   UNL d   1     -48.949  14.921  22.681  0.00  0.00     0.112 C 
BRANCH  15  16
ATOM     16  N   UNL d   1     -49.503  15.523  22.783  0.00  0.00    -0.160 NA
BRANCH  16  17
ATOM     17  S   UNL d   1     -50.311  15.374  22.645  0.00  0.00     0.266 S 
ATOM     18  O   UNL d   1     -49.964  15.429  21.893  0.00  0.00    -0.203 OA
ATOM     19  O   UNL d   1     -51.044  15.236  22.297  0.00  0.00    -0.203 OA
ATOM     20  C   UNL d   1     -50.632  15.324  23.406  0.00  0.00     0.165 C 
ENDBRANCH  16  17
ENDBRANCH  15  16
ENDBRANCH  14  15
ENDBRANCH   4  14
TORSDOF 4
ENDMDL
MODEL 3
REMARK VINA RESULT:      -7.3      1.362      1.535
REMARK  4 active torsions:
REMARK  status: ('A' for Active; 'I' for Inactive)
REMARK    1  A    between atoms: N_14  and  S_1 
REMARK    2  A    between atoms: C_5  and  C_17 
REMARK    3  A    between atoms: C_18  and  N_14 
REMARK    4  A    between atoms: C_17  and  C_18 
ROOT
ATOM      1  N   UNL d   1     -48.148  14.299  22.232  0.00  0.00    -0.208 NA
ATOM      2  C   UNL d   1     -47.460  14.028  22.608  0.00  0.00     0.279 A 
ATOM      3  C   UNL d   1     -48.853  13.859  22.281  0.00  0.00     0.085 A 
ATOM      4  C   UNL d   1     -47.474  13.319  23.032  0.00  0.00     0.059 A 
ATOM      5  C   UNL d   1     -48.176  12.877  23.084  0.00  0.00     0.006 A 
ATOM      6  C   UNL d   1     -48.859  13.152  22.708  0.00  0.00     0.018 A 
ATOM      7  C   UNL d   1     -49.537  14.131  21.907  0.00  0.00     0.019 A 
ATOM      8  C   UNL d   1     -49.565  12.712  22.757  0.00  0.00     0.002 A 
ATOM      9  C   UNL d   1     -50.234  13.692  21.958  0.00  0.00     0.002 A 
ATOM     10  C   UNL d   1     -50.248  12.984  22.383  0.00  0.00     0.000 A 
ATOM     11  O   UNL d   1     -46.763  14.466  22.556  0.00  0.00    -0.265 OA
ATOM     12  C   UNL d   1     -50.945  12.545  22.434  0.00  0.00     0.000 C 
ATOM     13  C   UNL d   1     -50.918  13.964  21.584  0.00  0.00     0.000 C 
ENDROOT
BRANCH   4  14
ATOM     14  C   UNL d   1     -46.790  13.047  23.406  0.00  0.00     0.026 C 
BRANCH  14  15
ATOM     15  C   UNL d   1     -46.533  12.274  23.279  0.00  0.00     0.112 C 
BRANCH  15  16
ATOM     16  N   UNL d   1     -45.837  12.010  23.634  0.00  0.00    -0.160 NA
BRANCH  16  17
ATOM     17  S   UNL d   1     -45.573  11.230  23.508  0.00  0.00     0.266 S 
ATOM     18  O   UNL d   1     -44.925  11.714  23.324  0.00  0.00    -0.203 OA
ATOM     19  O   UNL d   1     -45.126  10.563  23.328  0.00  0.00    -0.203 OA
ATOM     20  C   UNL d   1     -46.234  10.769  23.697  0.00  0.00     0.165 C 
ENDBRANCH  16  17
ENDBRANCH  15  16
ENDBRANCH  14  15
ENDBRANCH   4  14
TORSDOF 4
ENDMDL
MODEL 4
REMARK VINA RESULT:      -7.3      1.389      1.948
REMARK  4 active torsions:
REMARK  status: ('A' for Active; 'I' for Inactive)
REMARK    1  A    between atoms: N_14  and  S_1 
REMARK    2  A    between atoms: C_5  and  C_17 
REMARK    3  A    between atoms: C_18  and  N_14 
REMARK    4  A    between atoms: C_17  and  C_18 
ROOT
ATOM      1  N   UNL d   1     -49.195  12.300  22.853  0.00  0.00    -0.208 NA
ATOM      2  C   UNL d   1     -48.423  12.037  23.007  0.00  0.00     0.279 A 
ATOM      3  C   UNL d   1     -49.364  13.115  22.834  0.00  0.00     0.085 A 
ATOM      4  C   UNL d   1     -47.820  12.585  23.142  0.00  0.00     0.059 A 
ATOM      5  C   UNL d   1     -47.984  13.400  23.124  0.00  0.00     0.006 A 
ATOM      6  C   UNL d   1     -48.755  13.657  22.970  0.00  0.00     0.018 A 
ATOM      7  C   UNL d   1     -50.132  13.374  22.681  0.00  0.00     0.019 A 
ATOM      8  C   UNL d   1     -48.924  14.471  22.952  0.00  0.00     0.002 A 
ATOM      9  C   UNL d   1     -50.296  14.183  22.663  0.00  0.00     0.002 A 
ATOM     10  C   UNL d   1     -49.693  14.731  22.798  0.00  0.00     0.000 A 
ATOM     11  O   UNL d   1     -48.259  11.228  23.025  0.00  0.00    -0.265 OA
ATOM     12  C   UNL d   1     -49.857  15.540  22.781  0.00  0.00     0.000 C 
ATOM     13  C   UNL d   1     -51.064  14.442  22.510  0.00  0.00     0.000 C 
ENDROOT
BRANCH   4  14
ATOM     14  C   UNL d   1     -47.051  12.325  23.295  0.00  0.00     0.026 C 
BRANCH  14  15
ATOM     15  C   UNL d   1     -46.423  12.618  22.847  0.00  0.00     0.112 C 
BRANCH  15  16
ATOM     16  N   UNL d   1     -45.648  12.505  23.106  0.00  0.00    -0.160 NA
BRANCH  16  17
ATOM     17  S   UNL d   1     -45.015  12.572  22.569  0.00  0.00     0.266 S 
ATOM     18  O   UNL d   1     -44.900  11.848  22.958  0.00  0.00    -0.203 OA
ATOM     19  O   UNL d   1     -44.334  12.442  22.125  0.00  0.00    -0.203 OA
ATOM     20  C   UNL d   1     -45.153  13.298  22.196  0.00  0.00     0.165 C 
ENDBRANCH  16  17
ENDBRANCH  15  16
ENDBRANCH  14  15
ENDBRANCH   4  14
TORSDOF 4
ENDMDL
MODEL 5
REMARK VINA RESULT:      -5.8      8.012      8.848
REMARK  4 active torsions:
REMARK  status: ('A' for Active; 'I' for Inactive)
REMARK    1  A    between atoms: N_14  and  S_1 
REMARK    2  A    between atoms: C_5  and  C_17 
REMARK    3  A    between atoms: C_18  and  N_14 
REMARK    4  A    between atoms: C_17  and  C_18 
ROOT
ATOM      1  N   UNL d   1     -40.929  15.898  19.741  0.00  0.00    -0.208 NA
ATOM      2  C   UNL d   1     -40.787  15.524  20.468  0.00  0.00     0.279 A 
ATOM      3  C   UNL d   1     -40.691  15.536  19.031  0.00  0.00     0.085 A 
ATOM      4  C   UNL d   1     -40.409  14.790  20.487  0.00  0.00     0.059 A 
ATOM      5  C   UNL d   1     -40.170  14.424  19.780  0.00  0.00     0.006 A 
ATOM      6  C   UNL d   1     -40.314  14.802  19.058  0.00  0.00     0.018 A 
ATOM      7  C   UNL d   1     -40.834  15.910  18.309  0.00  0.00     0.019 A 
ATOM      8  C   UNL d   1     -40.076  14.440  18.347  0.00  0.00     0.002 A 
ATOM      9  C   UNL d   1     -40.596  15.548  17.606  0.00  0.00     0.002 A 
ATOM     10  C   UNL d   1     -40.218  14.814  17.625  0.00  0.00     0.000 A 
ATOM     11  O   UNL d   1     -41.025  15.886  21.171  0.00  0.00    -0.265 OA
ATOM     12  C   UNL d   1     -39.981  14.452  16.922  0.00  0.00     0.000 C 
ATOM     13  C   UNL d   1     -40.738  15.922  16.884  0.00  0.00     0.000 C 
ENDROOT
BRANCH   4  14
ATOM     14  C   UNL d   1     -40.267  14.416  21.209  0.00  0.00     0.026 C 
BRANCH  14  15
ATOM     15  C   UNL d   1     -39.509  14.140  21.386  0.00  0.00     0.112 C 
BRANCH  15  16
ATOM     16  N   UNL d   1     -39.390  13.670  22.053  0.00  0.00    -0.160 NA
BRANCH  16  17
ATOM     17  S   UNL d   1     -38.619  13.541  22.341  0.00  0.00     0.266 S 
ATOM     18  O   UNL d   1     -39.025  13.918  22.958  0.00  0.00    -0.203 OA
ATOM     19  O   UNL d   1     -37.940  13.513  22.804  0.00  0.00    -0.203 OA
ATOM     20  C   UNL d   1     -38.237  13.167  21.709  0.00  0.00     0.165 C 
ENDBRANCH  16  17
ENDBRANCH  15  16
ENDBRANCH  14  15
ENDBRANCH   4  14
TORSDOF 4
ENDMDL
MODEL 6
REMARK VINA RESULT:      -5.7      2.107      4.319
REMARK  4 active torsions:
REMARK  status: ('A' for Active; 'I' for Inactive)
REMARK    1  A    between atoms: N_14  and  S_1 
REMARK    2  A    between atoms: C_5  and  C_17 
REMARK    3  A    between atoms: C_18  and  N_14 
REMARK    4  A    between atoms: C_17  and  C_18 
ROOT
ATOM      1  N   UNL d   1     -45.796  13.072  22.675  0.00  0.00    -0.208 NA
ATOM      2  C   UNL d   1     -46.576  13.330  22.790  0.00  0.00     0.279 A 
ATOM      3  C   UNL d   1     -45.563  12.315  22.931  0.00  0.00     0.085 A 
ATOM      4  C   UNL d   1     -47.124  12.835  23.161  0.00  0.00     0.059 A 
ATOM      5  C   UNL d   1     -46.895  12.078  23.419  0.00  0.00     0.006 A 
ATOM      6  C   UNL d   1     -46.116  11.826  23.302  0.00  0.00     0.018 A 
ATOM      7  C   UNL d   1     -44.786  12.061  22.815  0.00  0.00     0.019 A 
ATOM      8  C   UNL d   1     -45.882  11.069  23.558  0.00  0.00     0.002 A 
ATOM      9  C   UNL d   1     -44.558  11.310  23.071  0.00  0.00     0.002 A 
ATOM     10  C   UNL d   1     -45.106  10.815  23.442  0.00  0.00     0.000 A 
ATOM     11  O   UNL d   1     -46.804  14.081  22.535  0.00  0.00    -0.265 OA
ATOM     12  C   UNL d   1     -44.878  10.064  23.698  0.00  0.00     0.000 C 
ATOM     13  C   UNL d   1     -43.782  11.055  22.955  0.00  0.00     0.000 C 
ENDROOT
BRANCH   4  14
ATOM     14  C   UNL d   1     -47.900  13.089  23.277  0.00  0.00     0.026 C 
BRANCH  14  15
ATOM     15  C   UNL d   1     -48.528  12.587  23.094  0.00  0.00     0.112 C 
BRANCH  15  16
ATOM     16  N   UNL d   1     -49.303  12.829  23.240  0.00  0.00    -0.160 NA
BRANCH  16  17
ATOM     17  S   UNL d   1     -49.942  12.384  22.945  0.00  0.00     0.266 S 
ATOM     18  O   UNL d   1     -49.785  12.073  23.698  0.00  0.00    -0.203 OA
ATOM     19  O   UNL d   1     -50.554  11.842  22.849  0.00  0.00    -0.203 OA
ATOM     20  C   UNL d   1     -50.078  12.711  22.197  0.00  0.00     0.165 C 
ENDBRANCH  16  17
ENDBRANCH  15  16
ENDBRANCH  14  15
ENDBRANCH   4  14
TORSDOF 4
ENDMDL
MODEL 7
REMARK VINA RESULT:      -5.4      7.936      9.031
REMARK  4 active torsions:
REMARK  status: ('A' for Active; 'I' for Inactive)
REMARK    1  A    between atoms: N_14  and  S_1 
REMARK    2  A    between atoms: C_5  and  C_17 
REMARK    3  A    between atoms: C_18  and  N_14 
REMARK    4  A    between atoms: C_17  and  C_18 
ROOT
ATOM      1  N   UNL d   1     -40.646  15.071  21.216  0.00  0.00    -0.208 NA
ATOM      2  C   UNL d   1     -40.868  15.441  20.507  0.00  0.00     0.279 A 
ATOM      3  C   UNL d   1     -39.969  14.588  21.242  0.00  0.00     0.085 A 
ATOM      4  C   UNL d   1     -40.417  15.329  19.825  0.00  0.00     0.059 A 
ATOM      5  C   UNL d   1     -39.739  14.847  19.846  0.00  0.00     0.006 A 
ATOM      6  C   UNL d   1     -39.522  14.481  20.555  0.00  0.00     0.018 A 
ATOM      7  C   UNL d   1     -39.749  14.221  21.948  0.00  0.00     0.019 A 
ATOM      8  C   UNL d   1     -38.845  13.998  20.581  0.00  0.00     0.002 A 
ATOM      9  C   UNL d   1     -39.077  13.742  21.969  0.00  0.00     0.002 A 
ATOM     10  C   UNL d   1     -38.626  13.631  21.287  0.00  0.00     0.000 A 
ATOM     11  O   UNL d   1     -41.540  15.920  20.486  0.00  0.00    -0.265 OA
ATOM     12  C   UNL d   1     -37.953  13.152  21.308  0.00  0.00     0.000 C 
ATOM     13  C   UNL d   1     -38.857  13.375  22.675  0.00  0.00     0.000 C 
ENDROOT
BRANCH   4  14
ATOM     14  C   UNL d   1     -40.636  15.696  19.119  0.00  0.00     0.026 C 
BRANCH  14  15
ATOM     15  C   UNL d   1     -40.425  15.356  18.397  0.00  0.00     0.112 C 
BRANCH  15  16
ATOM     16  N   UNL d   1     -40.938  15.410  17.754  0.00  0.00    -0.160 NA
BRANCH  16  17
ATOM     17  S   UNL d   1     -40.643  15.339  16.978  0.00  0.00     0.266 S 
ATOM     18  O   UNL d   1     -41.236  14.763  17.042  0.00  0.00    -0.203 OA
ATOM     19  O   UNL d   1     -40.503  15.109  16.200  0.00  0.00    -0.203 OA
ATOM     20  C   UNL d   1     -40.056  15.921  16.940  0.00  0.00     0.165 C 
ENDBRANCH  16  17
ENDBRANCH  15  16
ENDBRANCH  14  15
ENDBRANCH   4  14
TORSDOF 4
ENDMDL
MODEL 8
REMARK VINA RESULT:      -5.3      9.024      9.913
REMARK  4 active torsions:
REMARK  status: ('A' for Active; 'I' for Inactive)
REMARK    1  A    between atoms: N_14  and  S_1 
REMARK    2  A    between atoms: C_5  and  C_17 
REMARK    3  A    between atoms: C_18  and  N_14 
REMARK    4  A    between atoms: C_17  and  C_18 
ROOT
ATOM      1  N   UNL d   1     -37.989  13.200  19.640  0.00  0.00    -0.208 NA
ATOM      2  C   UNL d   1     -38.256  13.439  18.892  0.00  0.00     0.279 A 
ATOM      3  C   UNL d   1     -38.301  13.550  20.328  0.00  0.00     0.085 A 
ATOM      4  C   UNL d   1     -38.833  14.027  18.829  0.00  0.00     0.059 A 
ATOM      5  C   UNL d   1     -39.147  14.380  19.513  0.00  0.00     0.006 A 
ATOM      6  C   UNL d   1     -38.877  14.137  20.257  0.00  0.00     0.018 A 
ATOM      7  C   UNL d   1     -38.034  13.310  21.071  0.00  0.00     0.019 A 
ATOM      8  C   UNL d   1     -39.188  14.488  20.945  0.00  0.00     0.002 A 
ATOM      9  C   UNL d   1     -38.345  13.660  21.751  0.00  0.00     0.002 A 
ATOM     10  C   UNL d   1     -38.921  14.248  21.688  0.00  0.00     0.000 A 
ATOM     11  O   UNL d   1     -37.945  13.089  18.212  0.00  0.00    -0.265 OA
ATOM     12  C   UNL d   1     -39.232  14.598  22.368  0.00  0.00     0.000 C 
ATOM     13  C   UNL d   1     -38.078  13.420  22.494  0.00  0.00     0.000 C 
ENDROOT
BRANCH   4  14
ATOM     14  C   UNL d   1     -39.100  14.267  18.085  0.00  0.00     0.026 C 
BRANCH  14  15
ATOM     15  C   UNL d   1     -39.851  14.599  18.007  0.00  0.00     0.112 C 
BRANCH  15  16
ATOM     16  N   UNL d   1     -40.190  14.675  17.259  0.00  0.00    -0.160 NA
BRANCH  16  17
ATOM     17  S   UNL d   1     -40.825  15.200  17.139  0.00  0.00     0.266 S 
ATOM     18  O   UNL d   1     -41.173  14.464  17.300  0.00  0.00    -0.203 OA
ATOM     19  O   UNL d   1     -41.572  15.537  17.061  0.00  0.00    -0.203 OA
ATOM     20  C   UNL d   1     -40.453  15.922  16.982  0.00  0.00     0.165 C 
ENDBRANCH  16  17
ENDBRANCH  15  16
ENDBRANCH  14  15
ENDBRANCH   4  14
TORSDOF 4
ENDMDL
MODEL 9
REMARK VINA RESULT:      -5.2      7.989      9.706
REMARK  4 active torsions:
REMARK  status: ('A' for Active; 'I' for Inactive)
REMARK    1  A    between atoms: N_14  and  S_1 
REMARK    2  A    between atoms: C_5  and  C_17 
REMARK    3  A    between atoms: C_18  and  N_14 
REMARK    4  A    between atoms: C_17  and  C_18 
ROOT
ATOM      1  N   UNL d   1     -40.958  14.628  18.555  0.00  0.00    -0.208 NA
ATOM      2  C   UNL d   1     -40.573  14.751  17.831  0.00  0.00     0.279 A 
ATOM      3  C   UNL d   1     -40.517  14.555  19.257  0.00  0.00     0.085 A 
ATOM      4  C   UNL d   1     -39.749  14.801  17.805  0.00  0.00     0.059 A 
ATOM      5  C   UNL d   1     -39.304  14.728  18.504  0.00  0.00     0.006 A 
ATOM      6  C   UNL d   1     -39.693  14.606  19.224  0.00  0.00     0.018 A 
ATOM      7  C   UNL d   1     -40.902  14.432  19.977  0.00  0.00     0.019 A 
ATOM      8  C   UNL d   1     -39.252  14.533  19.926  0.00  0.00     0.002 A 
ATOM      9  C   UNL d   1     -40.461  14.360  20.671  0.00  0.00     0.002 A 
ATOM     10  C   UNL d   1     -39.637  14.410  20.645  0.00  0.00     0.000 A 
ATOM     11  O   UNL d   1     -41.014  14.823  17.137  0.00  0.00    -0.265 OA
ATOM     12  C   UNL d   1     -39.196  14.338  21.339  0.00  0.00     0.000 C 
ATOM     13  C   UNL d   1     -40.847  14.238  21.390  0.00  0.00     0.000 C 
ENDROOT
BRANCH   4  14
ATOM     14  C   UNL d   1     -39.363  14.923  17.086  0.00  0.00     0.026 C 
BRANCH  14  15
ATOM     15  C   UNL d   1     -38.873  14.335  16.778  0.00  0.00     0.112 C 
BRANCH  15  16
ATOM     16  N   UNL d   1     -38.379  14.506  16.141  0.00  0.00    -0.160 NA
BRANCH  16  17
ATOM     17  S   UNL d   1     -38.137  13.898  15.625  0.00  0.00     0.266 S 
ATOM     18  O   UNL d   1     -38.323  14.542  15.136  0.00  0.00    -0.203 OA
ATOM     19  O   UNL d   1     -37.940  13.451  14.963  0.00  0.00    -0.203 OA
ATOM     20  C   UNL d   1     -37.958  13.271  16.135  0.00  0.00     0.165 C 
ENDBRANCH  16  17
ENDBRANCH  15  16
ENDBRANCH  14  15
ENDBRANCH   4  14
TORSDOF 4
ENDMDL
