MODEL 1
REMARK VINA RESULT:      49.8      0.000      0.000
REMARK  4 active torsions:
REMARK  status: ('A' for Active; 'I' for Inactive)
REMARK    1  A    between atoms: C_6  and  N_1 
REMARK    2  A    between atoms: C_8  and  C_2 
REMARK    3  A    between atoms: C_16  and  C_5 
REMARK    4  A    between atoms: C_7  and  C_8 
ROOT
ATOM      1  N   UNL d   1      46.158 -18.328  43.343  0.00  0.00    -0.251 N 
ATOM      2  C   UNL d   1      46.263 -17.001  43.289  0.00  0.00     0.101 A 
ATOM      3  C   UNL d   1      46.269 -18.048  44.111  0.00  0.00     0.305 A 
ATOM      4  C   UNL d   1      46.334 -17.222  44.077  0.00  0.00     0.256 A 
ATOM      5  C   UNL d   1      46.155 -17.677  42.839  0.00  0.00     0.075 A 
ATOM      6  O   UNL d   1      46.309 -18.509  44.798  0.00  0.00    -0.263 OA
ATOM      7  O   UNL d   1      46.450 -16.728  44.726  0.00  0.00    -0.281 OA
ENDROOT
BRANCH   2   8
ATOM      8  C   UNL d   1      46.296 -16.223  43.007  0.00  0.00     0.223 C 
ATOM      9  O   UNL d   1      46.634 -16.067  42.271  0.00  0.00    -0.284 OA
BRANCH   8  10
ATOM     10  C   UNL d   1      45.996 -15.607  43.455  0.00  0.00     0.139 A 
ATOM     11  O   UNL d   1      46.408 -14.935  43.696  0.00  0.00    -0.304 OA
ATOM     12  C   UNL d   1      45.897 -14.459  44.136  0.00  0.00     0.100 A 
ATOM     13  C   UNL d   1      46.007 -13.737  44.506  0.00  0.00     0.025 A 
ATOM     14  C   UNL d   1      45.173 -14.840  44.164  0.00  0.00     0.025 A 
ATOM     15  C   UNL d   1      45.383 -13.390  44.911  0.00  0.00     0.002 A 
ATOM     16  C   UNL d   1      44.647 -13.770  44.944  0.00  0.00     0.000 A 
ATOM     17  C   UNL d   1      44.549 -14.493  44.569  0.00  0.00     0.002 A 
ATOM     18  C   UNL d   1      45.228 -15.546  43.747  0.00  0.00     0.030 A 
ENDBRANCH   8  10
ENDBRANCH   2   8
BRANCH   5  19
ATOM     19  C   UNL d   1      46.059 -17.698  42.012  0.00  0.00     0.017 A 
ATOM     20  C   UNL d   1      46.646 -17.371  41.520  0.00  0.00     0.002 A 
ATOM     21  C   UNL d   1      46.558 -17.388  40.696  0.00  0.00     0.000 A 
ATOM     22  C   UNL d   1      45.878 -17.735  40.354  0.00  0.00     0.000 A 
ATOM     23  C   UNL d   1      45.292 -18.063  40.854  0.00  0.00     0.000 A 
ATOM     24  C   UNL d   1      45.385 -18.043  41.683  0.00  0.00     0.002 A 
ENDBRANCH   5  19
BRANCH   1  25
ATOM     25  C   UNL d   1      46.068 -19.112  43.125  0.00  0.00     0.182 A 
ATOM     26  N   UNL d   1      45.392 -19.578  43.236  0.00  0.00    -0.220 NA
ATOM     27  C   UNL d   1      45.545 -20.327  42.936  0.00  0.00     0.108 A 
ATOM     28  C   UNL d   1      46.314 -20.330  42.637  0.00  0.00     0.059 A 
ATOM     29  S   UNL d   1      46.636 -19.580  42.754  0.00  0.00    -0.048 SA
ENDBRANCH   1  25
TORSDOF 4
ENDMDL
