MODEL 1
REMARK VINA RESULT:      99.9      0.000      0.000
REMARK  6 active torsions:
REMARK  status: ('A' for Active; 'I' for Inactive)
REMARK    1  A    between atoms: S_12  and  C_5 
REMARK    2  A    between atoms: C_16  and  C_6 
REMARK    3  A    between atoms: C_10  and  C_14 
REMARK    4  A    between atoms: C_19  and  S_12 
REMARK    5  A    between atoms: C_13  and  C_19 
REMARK       I    between atoms: N_15  and  C_13 
REMARK    6  A    between atoms: C_22  and  N_15 
ROOT
ATOM      1  C   UNL d   1      43.441 -14.528  37.678  0.00  0.00     0.186 A 
ATOM      2  C   UNL d   1      44.163 -14.894  37.491  0.00  0.00     0.065 A 
ATOM      3  N   UNL d   1      42.730 -14.872  37.447  0.00  0.00    -0.203 NA
ATOM      4  N   UNL d   1      43.464 -15.946  36.843  0.00  0.00    -0.220 NA
ATOM      5  C   UNL d   1      44.164 -15.597  37.077  0.00  0.00     0.116 A 
ATOM      6  C   UNL d   1      42.739 -15.584  37.027  0.00  0.00     0.165 A 
ATOM      7  O   UNL d   1      43.434 -13.813  38.099  0.00  0.00    -0.289 OA
ATOM      8  C   UNL d   1      44.875 -14.542  37.727  0.00  0.00     0.007 A 
ATOM      9  C   UNL d   1      44.137 -13.460  38.335  0.00  0.00     0.102 A 
ATOM     10  C   UNL d   1      44.863 -13.828  38.148  0.00  0.00     0.023 A 
ATOM     11  C   UNL d   1      44.134 -12.760  38.747  0.00  0.00     0.025 A 
ATOM     12  C   UNL d   1      45.570 -13.475  38.384  0.00  0.00     0.002 A 
ATOM     13  C   UNL d   1      45.555 -12.763  38.803  0.00  0.00     0.000 A 
ATOM     14  C   UNL d   1      44.836 -12.399  38.988  0.00  0.00     0.002 A 
ENDROOT
BRANCH   5  15
ATOM     15  S   UNL d   1      44.891 -15.957  36.895  0.00  0.00    -0.062 SA
BRANCH  15  16
ATOM     16  C   UNL d   1      45.022 -16.741  37.123  0.00  0.00     0.099 C 
BRANCH  16  17
ATOM     17  C   UNL d   1      45.344 -16.908  37.860  0.00  0.00     0.286 C 
ATOM     18  N   UNL d   1      44.930 -17.378  38.390  0.00  0.00    -0.208 NA
ATOM     19  O   UNL d   1      46.081 -16.606  38.069  0.00  0.00    -0.265 OA
BRANCH  18  20
ATOM     20  C   UNL d   1      45.252 -17.546  39.131  0.00  0.00     0.085 A 
ATOM     21  C   UNL d   1      44.775 -17.520  39.796  0.00  0.00     0.019 A 
ATOM     22  C   UNL d   1      45.089 -17.687  40.530  0.00  0.00     0.008 A 
ATOM     23  C   UNL d   1      45.894 -17.882  40.601  0.00  0.00     0.065 A 
ATOM     24  C   UNL d   1      46.368 -17.906  39.932  0.00  0.00     0.008 A 
ATOM     25  C   UNL d   1      46.050 -17.738  39.192  0.00  0.00     0.019 A 
BRANCH  23  26
ATOM     26  C   UNL d   1      46.216 -18.050  41.338  0.00  0.00     0.211 C 
ATOM     27  O   UNL d   1      46.419 -18.827  41.523  0.00  0.00    -0.644 OA
ATOM     28  O   UNL d   1      46.338 -17.450  41.889  0.00  0.00    -0.644 OA
ENDBRANCH  23  26
ENDBRANCH  18  20
ENDBRANCH  16  17
ENDBRANCH  15  16
ENDBRANCH   5  15
BRANCH   6  29
ATOM     29  C   UNL d   1      42.028 -15.928  36.797  0.00  0.00     0.036 A 
ATOM     30  C   UNL d   1      41.395 -15.445  36.563  0.00  0.00     0.003 A 
ATOM     31  C   UNL d   1      40.681 -15.784  36.331  0.00  0.00     0.000 A 
ATOM     32  C   UNL d   1      40.596 -16.607  36.330  0.00  0.00     0.000 A 
ATOM     33  C   UNL d   1      41.224 -17.093  36.562  0.00  0.00     0.000 A 
ATOM     34  C   UNL d   1      41.944 -16.746  36.796  0.00  0.00     0.003 A 
ENDBRANCH   6  29
TORSDOF 6
ENDMDL
