MODEL 1
REMARK VINA RESULT:      49.5      0.000      0.000
REMARK  4 active torsions:
REMARK  status: ('A' for Active; 'I' for Inactive)
REMARK    1  A    between atoms: N_2  and  S_1 
REMARK    2  A    between atoms: C_3  and  S_1 
REMARK    3  A    between atoms: C_18  and  N_6 
REMARK    4  A    between atoms: C_19  and  C_18 
ROOT
ATOM      1  N   UNL d   1     -55.273-102.148 -40.540  0.00  0.00    -0.226 N 
ATOM      2  N   UNL d   1     -55.500-102.633 -38.967  0.00  0.00    -0.300 N 
ATOM      3  C   UNL d   1     -54.712-101.940 -39.953  0.00  0.00     0.111 A 
ATOM      4  C   UNL d   1     -55.923-102.586 -40.327  0.00  0.00     0.111 A 
ATOM      5  C   UNL d   1     -56.037-102.830 -39.538  0.00  0.00     0.100 A 
ATOM      6  C   UNL d   1     -54.826-102.184 -39.164  0.00  0.00     0.100 A 
ENDROOT
BRANCH   1   7
ATOM      7  S   UNL d   1     -55.161-101.907 -41.321  0.00  0.00     0.272 S 
ATOM      8  O   UNL d   1     -54.745-101.241 -41.055  0.00  0.00    -0.200 OA
ATOM      9  O   UNL d   1     -55.580-102.577 -41.588  0.00  0.00    -0.200 OA
BRANCH   7  10
ATOM     10  C   UNL d   1     -55.048-101.665 -42.106  0.00  0.00     0.106 A 
ATOM     11  C   UNL d   1     -55.149-102.184 -42.719  0.00  0.00     0.040 A 
ATOM     12  C   UNL d   1     -55.039-101.948 -43.484  0.00  0.00     0.123 A 
ATOM     13  O   UNL d   1     -55.148-102.501 -44.104  0.00  0.00    -0.301 OA
ATOM     14  C   UNL d   1     -54.825-101.187 -43.652  0.00  0.00     0.123 A 
ATOM     15  C   UNL d   1     -55.035-102.258 -44.889  0.00  0.00     0.149 A 
ATOM     16  C   UNL d   1     -54.813-101.465 -45.050  0.00  0.00     0.149 A 
ATOM     17  O   UNL d   1     -54.712-100.945 -44.437  0.00  0.00    -0.301 OA
ATOM     18  C   UNL d   1     -54.717-100.647 -43.062  0.00  0.00     0.028 A 
ATOM     19  C   UNL d   1     -54.827-100.875 -42.268  0.00  0.00     0.015 A 
ENDBRANCH   7  10
ENDBRANCH   1   7
BRANCH   2  20
ATOM     20  C   UNL d   1     -55.613-102.877 -38.178  0.00  0.00     0.080 C 
BRANCH  20  21
ATOM     21  C   UNL d   1     -55.413-102.390 -37.565  0.00  0.00     0.018 A 
ATOM     22  C   UNL d   1     -55.713-102.538 -36.797  0.00  0.00     0.002 A 
ATOM     23  C   UNL d   1     -55.513-102.051 -36.183  0.00  0.00     0.000 A 
ATOM     24  C   UNL d   1     -55.014-101.405 -36.306  0.00  0.00     0.000 A 
ATOM     25  C   UNL d   1     -54.712-101.244 -37.042  0.00  0.00     0.000 A 
ATOM     26  C   UNL d   1     -54.914-101.745 -37.687  0.00  0.00     0.002 A 
ENDBRANCH  20  21
ENDBRANCH   2  20
TORSDOF 4
ENDMDL
