MODEL 1
REMARK VINA RESULT:       1.8      0.000      0.000
REMARK  3 active torsions:
REMARK  status: ('A' for Active; 'I' for Inactive)
REMARK    1  A    between atoms: C_2  and  C_1 
REMARK       I    between atoms: N_8  and  C_2 
REMARK    2  A    between atoms: C_12  and  C_4 
REMARK    3  A    between atoms: C_9  and  N_8 
ROOT
ATOM      1  C   UNL d   1     -41.430-121.709 -52.109  0.00  0.00     0.106 A 
ATOM      2  C   UNL d   1     -41.218-121.026 -52.638  0.00  0.00     0.093 A 
ATOM      3  C   UNL d   1     -41.514-121.651 -51.392  0.00  0.00     0.093 A 
ATOM      4  C   UNL d   1     -41.222-120.269 -51.433  0.00  0.00     0.369 A 
ATOM      5  N   UNL d   1     -41.123-120.316 -52.255  0.00  0.00    -0.191 NA
ATOM      6  N   UNL d   1     -41.418-120.936 -51.002  0.00  0.00    -0.191 NA
ATOM      7  O   UNL d   1     -41.123-119.541 -51.050  0.00  0.00    -0.242 OA
ATOM      8  C   UNL d   1     -41.130-121.117 -53.445  0.00  0.00     0.021 C 
ENDROOT
BRANCH   1   9
ATOM      9  C   UNL d   1     -41.536-122.446 -52.456  0.00  0.00     0.331 C 
ATOM     10  N   UNL d   1     -41.876-122.511 -53.196  0.00  0.00    -0.365 NA
ATOM     11  O   UNL d   1     -41.298-123.121 -52.052  0.00  0.00    -0.251 OA
BRANCH  10  12
ATOM     12  C   UNL d   1     -42.241-122.552 -53.985  0.00  0.00     0.135 A 
ATOM     13  C   UNL d   1     -42.017-123.187 -54.554  0.00  0.00     0.030 A 
ATOM     14  C   UNL d   1     -41.416-123.786 -54.314  0.00  0.00     0.003 C 
ATOM     15  C   UNL d   1     -42.379-123.227 -55.336  0.00  0.00     0.003 A 
ATOM     16  C   UNL d   1     -42.981-122.630 -55.580  0.00  0.00     0.000 A 
ATOM     17  C   UNL d   1     -43.206-121.997 -55.019  0.00  0.00     0.003 A 
ATOM     18  C   UNL d   1     -42.840-121.956 -54.225  0.00  0.00     0.032 A 
ENDBRANCH  10  12
ENDBRANCH   1   9
BRANCH   3  19
ATOM     19  C   UNL d   1     -41.710-122.321 -50.962  0.00  0.00     0.018 A 
ATOM     20  C   UNL d   1     -41.123-122.843 -50.708  0.00  0.00     0.002 A 
ATOM     21  C   UNL d   1     -41.330-123.508 -50.281  0.00  0.00     0.000 A 
ATOM     22  C   UNL d   1     -42.116-123.659 -50.104  0.00  0.00     0.000 A 
ATOM     23  C   UNL d   1     -42.696-123.143 -50.355  0.00  0.00     0.000 A 
ATOM     24  C   UNL d   1     -42.503-122.477 -50.781  0.00  0.00     0.002 A 
ENDBRANCH   3  19
TORSDOF 3
ENDMDL
MODEL 2
REMARK VINA RESULT:       4.2      1.882      2.986
REMARK  3 active torsions:
REMARK  status: ('A' for Active; 'I' for Inactive)
REMARK    1  A    between atoms: C_2  and  C_1 
REMARK       I    between atoms: N_8  and  C_2 
REMARK    2  A    between atoms: C_12  and  C_4 
REMARK    3  A    between atoms: C_9  and  N_8 
ROOT
ATOM      1  C   UNL d   1     -43.132-122.575 -50.278  0.00  0.00     0.106 A 
ATOM      2  C   UNL d   1     -43.834-122.289 -50.743  0.00  0.00     0.093 A 
ATOM      3  C   UNL d   1     -43.181-123.034 -49.719  0.00  0.00     0.093 A 
ATOM      4  C   UNL d   1     -44.586-123.105 -49.853  0.00  0.00     0.369 A 
ATOM      5  N   UNL d   1     -44.550-122.581 -50.495  0.00  0.00    -0.191 NA
ATOM      6  N   UNL d   1     -43.902-123.331 -49.465  0.00  0.00    -0.191 NA
ATOM      7  O   UNL d   1     -45.319-123.400 -49.606  0.00  0.00    -0.242 OA
ATOM      8  C   UNL d   1     -43.753-121.771 -51.370  0.00  0.00     0.021 C 
ENDROOT
BRANCH   1   9
ATOM      9  C   UNL d   1     -42.389-122.303 -50.496  0.00  0.00     0.331 C 
ATOM     10  N   UNL d   1     -42.105-122.430 -51.252  0.00  0.00    -0.365 NA
ATOM     11  O   UNL d   1     -41.928-121.901 -49.947  0.00  0.00    -0.251 OA
BRANCH  10  12
ATOM     12  C   UNL d   1     -41.829-122.579 -52.064  0.00  0.00     0.135 A 
ATOM     13  C   UNL d   1     -41.397-121.957 -52.515  0.00  0.00     0.030 A 
ATOM     14  C   UNL d   1     -41.248-121.176 -52.133  0.00  0.00     0.003 C 
ATOM     15  C   UNL d   1     -41.123-122.105 -53.320  0.00  0.00     0.003 A 
ATOM     16  C   UNL d   1     -41.271-122.884 -53.705  0.00  0.00     0.000 A 
ATOM     17  C   UNL d   1     -41.699-123.505 -53.261  0.00  0.00     0.003 A 
ATOM     18  C   UNL d   1     -41.978-123.357 -52.444  0.00  0.00     0.032 A 
ENDBRANCH  10  12
ENDBRANCH   1   9
BRANCH   3  19
ATOM     19  C   UNL d   1     -42.493-123.258 -49.333  0.00  0.00     0.018 A 
ATOM     20  C   UNL d   1     -41.865-123.591 -49.753  0.00  0.00     0.002 A 
ATOM     21  C   UNL d   1     -41.185-123.811 -49.357  0.00  0.00     0.000 A 
ATOM     22  C   UNL d   1     -41.124-123.703 -48.547  0.00  0.00     0.000 A 
ATOM     23  C   UNL d   1     -41.744-123.374 -48.132  0.00  0.00     0.000 A 
ATOM     24  C   UNL d   1     -42.427-123.151 -48.514  0.00  0.00     0.002 A 
ENDBRANCH   3  19
TORSDOF 3
ENDMDL
