MODEL 1
REMARK VINA RESULT:      -6.0      0.000      0.000
REMARK  9 active torsions:
REMARK  status: ('A' for Active; 'I' for Inactive)
REMARK    1  A    between atoms: C_17  and  N_1 
REMARK    2  A    between atoms: S_10  and  C_2 
REMARK    3  A    between atoms: N_8  and  C_9 
REMARK    4  A    between atoms: C_19  and  S_10 
REMARK    5  A    between atoms: C_11  and  C_19 
REMARK       I    between atoms: N_13  and  C_11 
REMARK    6  A    between atoms: C_20  and  N_13 
REMARK    7  A    between atoms: C_28  and  C_17 
REMARK    8  A    between atoms: C_23  and  C_20 
REMARK    9  A    between atoms: C_29  and  C_28 
ROOT
ATOM      1  N   UNL d   1      51.442  34.334  53.417  0.00  0.00    -0.253 N 
ATOM      2  C   UNL d   1      51.496  33.723  52.865  0.00  0.00     0.182 A 
ATOM      3  C   UNL d   1      50.773  34.826  53.425  0.00  0.00     0.268 A 
ATOM      4  C   UNL d   1      50.165  34.705  52.883  0.00  0.00     0.076 A 
ATOM      5  N   UNL d   1      50.880  33.605  52.320  0.00  0.00    -0.222 NA
ATOM      6  C   UNL d   1      50.218  34.095  52.330  0.00  0.00     0.088 A 
ATOM      7  C   UNL d   1      49.503  35.196  52.894  0.00  0.00     0.024 A 
ATOM      8  C   UNL d   1      48.895  35.075  52.351  0.00  0.00     0.065 A 
ATOM      9  O   UNL d   1      50.719  35.437  53.977  0.00  0.00    -0.267 OA
ATOM     10  C   UNL d   1      49.611  33.975  51.789  0.00  0.00     0.021 A 
ATOM     11  C   UNL d   1      48.949  34.464  51.799  0.00  0.00     0.019 A 
ENDROOT
BRANCH   2  12
ATOM     12  S   UNL d   1      52.161  33.230  52.853  0.00  0.00    -0.044 SA
BRANCH  12  13
ATOM     13  C   UNL d   1      52.070  32.405  52.777  0.00  0.00     0.101 C 
BRANCH  13  14
ATOM     14  C   UNL d   1      52.731  31.910  52.837  0.00  0.00     0.286 C 
ATOM     15  N   UNL d   1      52.678  31.205  53.271  0.00  0.00    -0.206 NA
ATOM     16  O   UNL d   1      53.436  32.124  52.465  0.00  0.00    -0.265 OA
BRANCH  15  17
ATOM     17  C   UNL d   1      53.345  30.708  53.330  0.00  0.00     0.102 C 
BRANCH  17  18
ATOM     18  C   UNL d   1      53.325  30.055  53.844  0.00  0.00     0.019 A 
ATOM     19  C   UNL d   1      53.314  29.289  53.537  0.00  0.00     0.002 A 
ATOM     20  C   UNL d   1      53.294  28.639  54.043  0.00  0.00     0.000 A 
ATOM     21  C   UNL d   1      53.287  28.760  54.874  0.00  0.00     0.000 A 
ATOM     22  C   UNL d   1      53.299  29.527  55.180  0.00  0.00     0.000 A 
ATOM     23  C   UNL d   1      53.318  30.180  54.668  0.00  0.00     0.002 A 
ENDBRANCH  17  18
ENDBRANCH  15  17
ENDBRANCH  13  14
ENDBRANCH  12  13
ENDBRANCH   2  12
BRANCH   1  24
ATOM     24  C   UNL d   1      52.053  34.454  53.961  0.00  0.00     0.085 C 
BRANCH  24  25
ATOM     25  C   UNL d   1      52.517  35.134  53.916  0.00  0.00     0.019 C 
BRANCH  25  26
ATOM     26  C   UNL d   1      53.144  35.242  54.450  0.00  0.00     0.002 C 
ATOM     27  C   UNL d   1      53.530  35.970  54.493  0.00  0.00     0.000 C 
ENDBRANCH  25  26
ENDBRANCH  24  25
ENDBRANCH   1  24
BRANCH   8  28
ATOM     28  N   UNL d   1      48.234  35.565  52.362  0.00  0.00    -0.300 N 
ATOM     29  C   UNL d   1      47.808  35.693  51.669  0.00  0.00     0.107 A 
ATOM     30  C   UNL d   1      47.137  36.189  51.674  0.00  0.00     0.142 A 
ATOM     31  O   UNL d   1      46.899  36.554  52.384  0.00  0.00    -0.300 OA
ATOM     32  C   UNL d   1      47.334  36.421  53.083  0.00  0.00     0.142 A 
ATOM     33  C   UNL d   1      47.996  35.930  53.072  0.00  0.00     0.107 A 
ENDBRANCH   8  28
TORSDOF 9
ENDMDL
MODEL 2
REMARK VINA RESULT:      -5.9      1.167      6.221
REMARK  9 active torsions:
REMARK  status: ('A' for Active; 'I' for Inactive)
REMARK    1  A    between atoms: C_17  and  N_1 
REMARK    2  A    between atoms: S_10  and  C_2 
REMARK    3  A    between atoms: N_8  and  C_9 
REMARK    4  A    between atoms: C_19  and  S_10 
REMARK    5  A    between atoms: C_11  and  C_19 
REMARK       I    between atoms: N_13  and  C_11 
REMARK    6  A    between atoms: C_20  and  N_13 
REMARK    7  A    between atoms: C_28  and  C_17 
REMARK    8  A    between atoms: C_23  and  C_20 
REMARK    9  A    between atoms: C_29  and  C_28 
ROOT
ATOM      1  N   UNL d   1      52.311  33.735  53.224  0.00  0.00    -0.253 N 
ATOM      2  C   UNL d   1      51.528  33.598  53.003  0.00  0.00     0.182 A 
ATOM      3  C   UNL d   1      52.806  33.093  53.408  0.00  0.00     0.268 A 
ATOM      4  C   UNL d   1      52.516  32.323  53.370  0.00  0.00     0.076 A 
ATOM      5  N   UNL d   1      51.240  32.821  52.966  0.00  0.00    -0.222 NA
ATOM      6  C   UNL d   1      51.733  32.187  53.149  0.00  0.00     0.088 A 
ATOM      7  C   UNL d   1      53.009  31.690  53.553  0.00  0.00     0.024 A 
ATOM      8  C   UNL d   1      52.719  30.920  53.515  0.00  0.00     0.065 A 
ATOM      9  O   UNL d   1      53.589  33.229  53.629  0.00  0.00    -0.267 OA
ATOM     10  C   UNL d   1      51.443  31.418  53.111  0.00  0.00     0.021 A 
ATOM     11  C   UNL d   1      51.935  30.784  53.294  0.00  0.00     0.019 A 
ENDROOT
BRANCH   2  12
ATOM     12  S   UNL d   1      51.031  34.235  52.819  0.00  0.00    -0.044 SA
BRANCH  12  13
ATOM     13  C   UNL d   1      50.205  34.162  52.907  0.00  0.00     0.101 C 
BRANCH  13  14
ATOM     14  C   UNL d   1      49.701  34.692  52.519  0.00  0.00     0.286 C 
ATOM     15  N   UNL d   1      49.135  35.113  52.955  0.00  0.00    -0.206 NA
ATOM     16  O   UNL d   1      49.767  34.795  51.703  0.00  0.00    -0.265 OA
BRANCH  15  17
ATOM     17  C   UNL d   1      48.628  35.646  52.563  0.00  0.00     0.102 C 
BRANCH  17  18
ATOM     18  C   UNL d   1      48.005  36.002  52.981  0.00  0.00     0.019 A 
ATOM     19  C   UNL d   1      48.144  36.341  53.720  0.00  0.00     0.002 A 
ATOM     20  C   UNL d   1      47.528  36.695  54.138  0.00  0.00     0.000 A 
ATOM     21  C   UNL d   1      46.756  36.709  53.806  0.00  0.00     0.000 A 
ATOM     22  C   UNL d   1      46.618  36.370  53.066  0.00  0.00     0.000 A 
ATOM     23  C   UNL d   1      47.241  36.014  52.648  0.00  0.00     0.002 A 
ENDBRANCH  17  18
ENDBRANCH  15  17
ENDBRANCH  13  14
ENDBRANCH  12  13
ENDBRANCH   2  12
BRANCH   1  24
ATOM     24  C   UNL d   1      52.602  34.508  53.262  0.00  0.00     0.085 C 
BRANCH  24  25
ATOM     25  C   UNL d   1      52.839  34.824  53.986  0.00  0.00     0.019 C 
BRANCH  25  26
ATOM     26  C   UNL d   1      53.121  35.604  54.022  0.00  0.00     0.002 C 
ATOM     27  C   UNL d   1      53.148  36.000  54.746  0.00  0.00     0.000 C 
ENDBRANCH  25  26
ENDBRANCH  24  25
ENDBRANCH   1  24
BRANCH   8  28
ATOM     28  N   UNL d   1      53.212  30.287  53.698  0.00  0.00    -0.300 N 
ATOM     29  C   UNL d   1      53.002  29.764  54.299  0.00  0.00     0.107 A 
ATOM     30  C   UNL d   1      53.498  29.121  54.489  0.00  0.00     0.142 A 
ATOM     31  O   UNL d   1      54.208  29.009  54.068  0.00  0.00    -0.300 OA
ATOM     32  C   UNL d   1      54.415  29.541  53.460  0.00  0.00     0.142 A 
ATOM     33  C   UNL d   1      53.922  30.175  53.276  0.00  0.00     0.107 A 
ENDBRANCH   8  28
TORSDOF 9
ENDMDL
MODEL 3
REMARK VINA RESULT:      -4.6      1.451      6.168
REMARK  9 active torsions:
REMARK  status: ('A' for Active; 'I' for Inactive)
REMARK    1  A    between atoms: C_17  and  N_1 
REMARK    2  A    between atoms: S_10  and  C_2 
REMARK    3  A    between atoms: N_8  and  C_9 
REMARK    4  A    between atoms: C_19  and  S_10 
REMARK    5  A    between atoms: C_11  and  C_19 
REMARK       I    between atoms: N_13  and  C_11 
REMARK    6  A    between atoms: C_20  and  N_13 
REMARK    7  A    between atoms: C_28  and  C_17 
REMARK    8  A    between atoms: C_23  and  C_20 
REMARK    9  A    between atoms: C_29  and  C_28 
ROOT
ATOM      1  N   UNL d   1      53.112  33.019  54.058  0.00  0.00    -0.253 N 
ATOM      2  C   UNL d   1      52.602  33.056  53.411  0.00  0.00     0.182 A 
ATOM      3  C   UNL d   1      53.357  32.280  54.349  0.00  0.00     0.268 A 
ATOM      4  C   UNL d   1      53.091  31.586  53.993  0.00  0.00     0.076 A 
ATOM      5  N   UNL d   1      52.336  32.354  53.055  0.00  0.00    -0.222 NA
ATOM      6  C   UNL d   1      52.580  31.623  53.346  0.00  0.00     0.088 A 
ATOM      7  C   UNL d   1      53.336  30.856  54.284  0.00  0.00     0.024 A 
ATOM      8  C   UNL d   1      53.069  30.163  53.928  0.00  0.00     0.065 A 
ATOM      9  O   UNL d   1      53.868  32.243  54.996  0.00  0.00    -0.267 OA
ATOM     10  C   UNL d   1      52.314  30.931  52.990  0.00  0.00     0.021 A 
ATOM     11  C   UNL d   1      52.559  30.200  53.281  0.00  0.00     0.019 A 
ENDROOT
BRANCH   2  12
ATOM     12  S   UNL d   1      52.355  33.789  53.117  0.00  0.00    -0.044 SA
BRANCH  12  13
ATOM     13  C   UNL d   1      51.702  33.837  52.601  0.00  0.00     0.101 C 
BRANCH  13  14
ATOM     14  C   UNL d   1      51.134  34.430  52.709  0.00  0.00     0.286 C 
ATOM     15  N   UNL d   1      50.381  34.344  52.369  0.00  0.00    -0.206 NA
ATOM     16  O   UNL d   1      51.322  35.100  53.152  0.00  0.00    -0.265 OA
BRANCH  15  17
ATOM     17  C   UNL d   1      49.811  34.941  52.479  0.00  0.00     0.102 C 
BRANCH  17  18
ATOM     18  C   UNL d   1      49.139  34.961  51.990  0.00  0.00     0.019 A 
ATOM     19  C   UNL d   1      49.140  34.558  51.271  0.00  0.00     0.002 A 
ATOM     20  C   UNL d   1      48.476  34.575  50.783  0.00  0.00     0.000 A 
ATOM     21  C   UNL d   1      47.796  35.007  51.023  0.00  0.00     0.000 A 
ATOM     22  C   UNL d   1      47.797  35.410  51.743  0.00  0.00     0.000 A 
ATOM     23  C   UNL d   1      48.467  35.391  52.232  0.00  0.00     0.002 A 
ENDBRANCH  17  18
ENDBRANCH  15  17
ENDBRANCH  13  14
ENDBRANCH  12  13
ENDBRANCH   2  12
BRANCH   1  24
ATOM     24  C   UNL d   1      53.379  33.715  54.414  0.00  0.00     0.085 C 
BRANCH  24  25
ATOM     25  C   UNL d   1      54.158  33.771  54.679  0.00  0.00     0.019 C 
BRANCH  25  26
ATOM     26  C   UNL d   1      54.408  34.451  55.084  0.00  0.00     0.002 C 
ATOM     27  C   UNL d   1      55.213  34.615  55.158  0.00  0.00     0.000 C 
ENDBRANCH  25  26
ENDBRANCH  24  25
ENDBRANCH   1  24
BRANCH   8  28
ATOM     28  N   UNL d   1      53.314  29.433  54.220  0.00  0.00    -0.300 N 
ATOM     29  C   UNL d   1      53.837  28.971  53.781  0.00  0.00     0.107 A 
ATOM     30  C   UNL d   1      54.088  28.231  54.071  0.00  0.00     0.142 A 
ATOM     31  O   UNL d   1      53.809  27.960  54.807  0.00  0.00    -0.300 OA
ATOM     32  C   UNL d   1      53.280  28.432  55.248  0.00  0.00     0.142 A 
ATOM     33  C   UNL d   1      53.035  29.162  54.956  0.00  0.00     0.107 A 
ENDBRANCH   8  28
TORSDOF 9
ENDMDL
MODEL 4
REMARK VINA RESULT:      -4.4      1.572      1.928
REMARK  9 active torsions:
REMARK  status: ('A' for Active; 'I' for Inactive)
REMARK    1  A    between atoms: C_17  and  N_1 
REMARK    2  A    between atoms: S_10  and  C_2 
REMARK    3  A    between atoms: N_8  and  C_9 
REMARK    4  A    between atoms: C_19  and  S_10 
REMARK    5  A    between atoms: C_11  and  C_19 
REMARK       I    between atoms: N_13  and  C_11 
REMARK    6  A    between atoms: C_20  and  N_13 
REMARK    7  A    between atoms: C_28  and  C_17 
REMARK    8  A    between atoms: C_23  and  C_20 
REMARK    9  A    between atoms: C_29  and  C_28 
ROOT
ATOM      1  N   UNL d   1      50.737  34.602  53.189  0.00  0.00    -0.253 N 
ATOM      2  C   UNL d   1      50.985  34.083  52.598  0.00  0.00     0.182 A 
ATOM      3  C   UNL d   1      50.004  34.988  53.118  0.00  0.00     0.268 A 
ATOM      4  C   UNL d   1      49.527  34.852  52.460  0.00  0.00     0.076 A 
ATOM      5  N   UNL d   1      50.501  33.949  51.936  0.00  0.00    -0.222 NA
ATOM      6  C   UNL d   1      49.775  34.333  51.869  0.00  0.00     0.088 A 
ATOM      7  C   UNL d   1      48.802  35.236  52.395  0.00  0.00     0.024 A 
ATOM      8  C   UNL d   1      48.325  35.100  51.737  0.00  0.00     0.065 A 
ATOM      9  O   UNL d   1      49.755  35.507  53.709  0.00  0.00    -0.267 OA
ATOM     10  C   UNL d   1      49.299  34.198  51.213  0.00  0.00     0.021 A 
ATOM     11  C   UNL d   1      48.573  34.581  51.146  0.00  0.00     0.019 A 
ENDROOT
BRANCH   2  12
ATOM     12  S   UNL d   1      51.715  33.697  52.663  0.00  0.00    -0.044 SA
BRANCH  12  13
ATOM     13  C   UNL d   1      51.768  32.876  52.527  0.00  0.00     0.101 C 
BRANCH  13  14
ATOM     14  C   UNL d   1      52.459  32.468  52.734  0.00  0.00     0.286 C 
ATOM     15  N   UNL d   1      52.969  32.789  53.305  0.00  0.00    -0.206 NA
ATOM     16  O   UNL d   1      52.633  31.748  52.371  0.00  0.00    -0.265 OA
BRANCH  15  17
ATOM     17  C   UNL d   1      53.663  32.378  53.513  0.00  0.00     0.102 C 
BRANCH  17  18
ATOM     18  C   UNL d   1      54.185  32.709  54.068  0.00  0.00     0.019 A 
ATOM     19  C   UNL d   1      54.857  33.115  53.813  0.00  0.00     0.002 A 
ATOM     20  C   UNL d   1      55.377  33.444  54.360  0.00  0.00     0.000 A 
ATOM     21  C   UNL d   1      55.220  33.364  55.181  0.00  0.00     0.000 A 
ATOM     22  C   UNL d   1      54.549  32.958  55.436  0.00  0.00     0.000 A 
ATOM     23  C   UNL d   1      54.026  32.627  54.882  0.00  0.00     0.002 A 
ENDBRANCH  17  18
ENDBRANCH  15  17
ENDBRANCH  13  14
ENDBRANCH  12  13
ENDBRANCH   2  12
BRANCH   1  24
ATOM     24  C   UNL d   1      51.216  34.737  53.848  0.00  0.00     0.085 C 
BRANCH  24  25
ATOM     25  C   UNL d   1      51.672  35.424  53.893  0.00  0.00     0.019 C 
BRANCH  25  26
ATOM     26  C   UNL d   1      52.089  35.597  54.590  0.00  0.00     0.002 C 
ATOM     27  C   UNL d   1      52.760  36.075  54.561  0.00  0.00     0.000 C 
ENDBRANCH  25  26
ENDBRANCH  24  25
ENDBRANCH   1  24
BRANCH   8  28
ATOM     28  N   UNL d   1      47.600  35.484  51.671  0.00  0.00    -0.300 N 
ATOM     29  C   UNL d   1      47.038  35.210  51.134  0.00  0.00     0.107 A 
ATOM     30  C   UNL d   1      46.301  35.595  51.062  0.00  0.00     0.142 A 
ATOM     31  O   UNL d   1      46.135  36.259  51.538  0.00  0.00    -0.300 OA
ATOM     32  C   UNL d   1      46.707  36.532  52.080  0.00  0.00     0.142 A 
ATOM     33  C   UNL d   1      47.433  36.148  52.146  0.00  0.00     0.107 A 
ENDBRANCH   8  28
TORSDOF 9
ENDMDL
MODEL 5
REMARK VINA RESULT:      -4.1      1.746      6.539
REMARK  9 active torsions:
REMARK  status: ('A' for Active; 'I' for Inactive)
REMARK    1  A    between atoms: C_17  and  N_1 
REMARK    2  A    between atoms: S_10  and  C_2 
REMARK    3  A    between atoms: N_8  and  C_9 
REMARK    4  A    between atoms: C_19  and  S_10 
REMARK    5  A    between atoms: C_11  and  C_19 
REMARK       I    between atoms: N_13  and  C_11 
REMARK    6  A    between atoms: C_20  and  N_13 
REMARK    7  A    between atoms: C_28  and  C_17 
REMARK    8  A    between atoms: C_23  and  C_20 
REMARK    9  A    between atoms: C_29  and  C_28 
ROOT
ATOM      1  N   UNL d   1      50.211  34.608  52.324  0.00  0.00    -0.253 N 
ATOM      2  C   UNL d   1      50.025  34.915  53.067  0.00  0.00     0.182 A 
ATOM      3  C   UNL d   1      50.866  34.104  52.238  0.00  0.00     0.268 A 
ATOM      4  C   UNL d   1      51.328  33.912  52.892  0.00  0.00     0.076 A 
ATOM      5  N   UNL d   1      50.494  34.719  53.723  0.00  0.00    -0.222 NA
ATOM      6  C   UNL d   1      51.143  34.220  53.635  0.00  0.00     0.088 A 
ATOM      7  C   UNL d   1      51.976  33.412  52.802  0.00  0.00     0.024 A 
ATOM      8  C   UNL d   1      52.439  33.220  53.456  0.00  0.00     0.065 A 
ATOM      9  O   UNL d   1      51.051  33.796  51.495  0.00  0.00    -0.267 OA
ATOM     10  C   UNL d   1      51.605  34.028  54.287  0.00  0.00     0.021 A 
ATOM     11  C   UNL d   1      52.254  33.528  54.199  0.00  0.00     0.019 A 
ENDROOT
BRANCH   2  12
ATOM     12  S   UNL d   1      49.373  35.418  53.158  0.00  0.00    -0.044 SA
BRANCH  12  13
ATOM     13  C   UNL d   1      48.892  35.363  53.836  0.00  0.00     0.101 C 
BRANCH  13  14
ATOM     14  C   UNL d   1      48.319  35.943  53.983  0.00  0.00     0.286 C 
ATOM     15  N   UNL d   1      47.514  35.746  53.935  0.00  0.00    -0.206 NA
ATOM     16  O   UNL d   1      48.555  36.709  54.177  0.00  0.00    -0.265 OA
BRANCH  15  17
ATOM     17  C   UNL d   1      46.939  36.331  54.083  0.00  0.00     0.102 C 
BRANCH  17  18
ATOM     18  C   UNL d   1      46.135  36.126  54.078  0.00  0.00     0.019 A 
ATOM     19  C   UNL d   1      45.760  35.909  54.780  0.00  0.00     0.002 A 
ATOM     20  C   UNL d   1      44.961  35.704  54.780  0.00  0.00     0.000 A 
ATOM     21  C   UNL d   1      44.531  35.718  54.058  0.00  0.00     0.000 A 
ATOM     22  C   UNL d   1      44.907  35.935  53.357  0.00  0.00     0.000 A 
ATOM     23  C   UNL d   1      45.711  36.140  53.361  0.00  0.00     0.002 A 
ENDBRANCH  17  18
ENDBRANCH  15  17
ENDBRANCH  13  14
ENDBRANCH  12  13
ENDBRANCH   2  12
BRANCH   1  24
ATOM     24  C   UNL d   1      49.745  34.801  51.669  0.00  0.00     0.085 C 
BRANCH  24  25
ATOM     25  C   UNL d   1      49.289  34.220  51.301  0.00  0.00     0.019 C 
BRANCH  25  26
ATOM     26  C   UNL d   1      48.789  34.427  50.672  0.00  0.00     0.002 C 
ATOM     27  C   UNL d   1      48.001  34.180  50.672  0.00  0.00     0.000 C 
ENDBRANCH  25  26
ENDBRANCH  24  25
ENDBRANCH   1  24
BRANCH   8  28
ATOM     28  N   UNL d   1      53.087  32.720  53.366  0.00  0.00    -0.300 N 
ATOM     29  C   UNL d   1      53.847  33.038  53.329  0.00  0.00     0.107 A 
ATOM     30  C   UNL d   1      54.508  32.536  53.238  0.00  0.00     0.142 A 
ATOM     31  O   UNL d   1      54.396  31.712  53.185  0.00  0.00    -0.300 OA
ATOM     32  C   UNL d   1      53.624  31.397  53.224  0.00  0.00     0.142 A 
ATOM     33  C   UNL d   1      52.976  31.897  53.314  0.00  0.00     0.107 A 
ENDBRANCH   8  28
TORSDOF 9
ENDMDL
