MODEL 1
REMARK VINA RESULT:      33.9      0.000      0.000
REMARK  5 active torsions:
REMARK  status: ('A' for Active; 'I' for Inactive)
REMARK    1  A    between atoms: N_12  and  C_5 
REMARK    2  A    between atoms: C_17  and  N_12 
REMARK    3  A    between atoms: C_19  and  C_17 
REMARK    4  A    between atoms: C_18  and  C_20 
REMARK    5  A    between atoms: C_20  and  C_19 
ROOT
ATOM      1  C   UNL d   1      14.273  13.187  -1.866  0.00  0.00     0.159 A 
ATOM      2  N   UNL d   1      14.225  13.892  -2.292  0.00  0.00    -0.275 N 
ATOM      3  C   UNL d   1      14.607  13.188  -1.102  0.00  0.00     0.103 A 
ATOM      4  N   UNL d   1      13.989  12.485  -2.195  0.00  0.00    -0.226 NA
ATOM      5  C   UNL d   1      14.512  14.602  -1.958  0.00  0.00     0.149 A 
ATOM      6  C   UNL d   1      14.891  13.890  -0.773  0.00  0.00     0.016 A 
ATOM      7  C   UNL d   1      14.843  14.595  -1.199  0.00  0.00     0.038 A 
ATOM      8  C   UNL d   1      13.609  13.191  -3.382  0.00  0.00     0.084 A 
ATOM      9  C   UNL d   1      13.657  12.486  -2.956  0.00  0.00     0.099 A 
ATOM     10  C   UNL d   1      14.655  12.484  -0.676  0.00  0.00     0.104 C 
ATOM     11  N   UNL d   1      14.702  11.779  -0.249  0.00  0.00    -0.191 NA
ATOM     12  C   UNL d   1      15.221  13.887  -0.016  0.00  0.00     0.001 C 
ATOM     13  C   UNL d   1      13.274  13.194  -4.147  0.00  0.00     0.019 A 
ATOM     14  C   UNL d   1      13.369  11.780  -3.292  0.00  0.00     0.021 A 
ATOM     15  C   UNL d   1      12.995  12.492  -4.468  0.00  0.00     0.002 A 
ATOM     16  C   UNL d   1      13.043  11.788  -4.042  0.00  0.00     0.002 A 
ENDROOT
BRANCH   5  17
ATOM     17  N   UNL d   1      14.465  15.307  -2.384  0.00  0.00    -0.227 NA
BRANCH  17  18
ATOM     18  C   UNL d   1      14.895  15.966  -2.139  0.00  0.00     0.101 C 
BRANCH  18  19
ATOM     19  C   UNL d   1      14.839  16.674  -2.558  0.00  0.00     0.024 C 
BRANCH  19  20
ATOM     20  C   UNL d   1      15.389  16.849  -3.149  0.00  0.00     0.047 C 
BRANCH  20  21
ATOM     21  C   UNL d   1      15.156  17.273  -3.817  0.00  0.00     0.234 C 
ATOM     22  O   UNL d   1      15.556  17.170  -4.531  0.00  0.00    -0.283 OA
ENDBRANCH  20  21
ENDBRANCH  19  20
ENDBRANCH  18  19
ENDBRANCH  17  18
ENDBRANCH   5  17
TORSDOF 5
ENDMDL
