MODEL 1
REMARK VINA RESULT:      39.6      0.000      0.000
REMARK  2 active torsions:
REMARK  status: ('A' for Active; 'I' for Inactive)
REMARK    1  A    between atoms: N_2  and  S_1 
REMARK    2  A    between atoms: C_3  and  S_1 
ROOT
ATOM      1  C   UNL d   1     -54.840-101.793 -41.740  0.00  0.00     0.104 A 
ATOM      2  O   UNL d   1     -54.932-102.632 -39.418  0.00  0.00    -0.273 OA
ATOM      3  C   UNL d   1     -54.853-102.104 -38.777  0.00  0.00     0.300 A 
ATOM      4  C   UNL d   1     -54.792-101.546 -40.338  0.00  0.00     0.024 A 
ATOM      5  C   UNL d   1     -54.902-102.353 -40.192  0.00  0.00     0.103 A 
ATOM      6  C   UNL d   1     -54.712-101.010 -39.703  0.00  0.00     0.007 A 
ATOM      7  C   UNL d   1     -54.761-101.267 -41.112  0.00  0.00     0.015 A 
ATOM      8  C   UNL d   1     -54.743-101.296 -38.924  0.00  0.00     0.069 A 
ATOM      9  C   UNL d   1     -54.950-102.601 -41.593  0.00  0.00     0.015 A 
ATOM     10  O   UNL d   1     -54.885-102.390 -38.002  0.00  0.00    -0.259 OA
ATOM     11  C   UNL d   1     -54.980-102.880 -40.819  0.00  0.00     0.025 A 
ENDROOT
BRANCH   1  12
ATOM     12  S   UNL d   1     -54.810-101.519 -42.512  0.00  0.00     0.272 S 
ATOM     13  O   UNL d   1     -54.852-102.293 -42.797  0.00  0.00    -0.200 OA
ATOM     14  O   UNL d   1     -54.768-100.742 -42.238  0.00  0.00    -0.200 OA
BRANCH  12  15
ATOM     15  N   UNL d   1     -54.780-101.241 -43.291  0.00  0.00    -0.225 N 
ATOM     16  C   UNL d   1     -54.746-101.778 -43.922  0.00  0.00     0.118 A 
ATOM     17  C   UNL d   1     -54.716-101.503 -44.696  0.00  0.00     0.142 A 
ATOM     18  O   UNL d   1     -54.719-100.693 -44.856  0.00  0.00    -0.300 OA
ATOM     19  C   UNL d   1     -54.753-100.153 -44.222  0.00  0.00     0.142 A 
ATOM     20  C   UNL d   1     -54.783-100.425 -43.444  0.00  0.00     0.118 A 
ENDBRANCH  12  15
ENDBRANCH   1  12
TORSDOF 2
ENDMDL
