MODEL 1
REMARK VINA RESULT:     102.1      0.000      0.000
REMARK  7 active torsions:
REMARK  status: ('A' for Active; 'I' for Inactive)
REMARK    1  A    between atoms: C_10  and  C_4 
REMARK    2  A    between atoms: N_12  and  C_5 
REMARK    3  A    between atoms: C_11  and  C_8 
REMARK    4  A    between atoms: C_21  and  N_12 
REMARK    5  A    between atoms: N_16  and  C_25 
REMARK    6  A    between atoms: C_20  and  C_21 
REMARK    7  A    between atoms: C_25  and  C_20 
ROOT
ATOM      1  C   UNL d   1      59.681  48.521  51.351  0.00  0.00     0.168 A 
ATOM      2  N   UNL d   1      58.902  48.405  51.075  0.00  0.00    -0.184 N 
ATOM      3  N   UNL d   1      60.257  47.977  51.166  0.00  0.00    -0.231 NA
ATOM      4  C   UNL d   1      59.855  49.169  51.799  0.00  0.00     0.057 A 
ATOM      5  C   UNL d   1      58.738  47.752  50.626  0.00  0.00     0.217 A 
ATOM      6  N   UNL d   1      58.507  49.590  51.704  0.00  0.00    -0.160 NA
ATOM      7  C   UNL d   1      59.312  47.203  50.438  0.00  0.00     0.067 A 
ATOM      8  C   UNL d   1      60.086  47.318  50.713  0.00  0.00     0.064 A 
ATOM      9  C   UNL d   1      59.269  49.704  51.975  0.00  0.00     0.124 A 
ENDROOT
BRANCH   4  10
ATOM     10  C   UNL d   1      60.617  49.282  52.070  0.00  0.00     0.005 A 
ATOM     11  C   UNL d   1      60.813  49.108  52.839  0.00  0.00     0.001 A 
ATOM     12  C   UNL d   1      61.583  49.222  53.113  0.00  0.00     0.011 A 
ATOM     13  C   UNL d   1      62.148  49.510  52.615  0.00  0.00     0.058 A 
ATOM     14  C   UNL d   1      61.947  49.686  51.834  0.00  0.00     0.011 A 
ATOM     15 CL   UNL d   1      62.938  49.627  52.896  0.00  0.00    -0.082 Cl
ATOM     16  C   UNL d   1      61.196  49.575  51.567  0.00  0.00     0.001 A 
ENDBRANCH   4  10
BRANCH   5  17
ATOM     17  N   UNL d   1      57.944  47.634  50.344  0.00  0.00    -0.380 NA
BRANCH  17  18
ATOM     18  C   UNL d   1      57.177  47.451  50.038  0.00  0.00     0.164 C 
BRANCH  18  19
ATOM     19  C   UNL d   1      56.502  47.825  50.379  0.00  0.00     0.054 C 
BRANCH  19  20
ATOM     20  C   UNL d   1      56.108  48.453  49.948  0.00  0.00     0.083 C 
BRANCH  20  21
ATOM     21  N   UNL d   1      56.543  48.922  49.398  0.00  0.00    -0.300 N 
ATOM     22  C   UNL d   1      56.036  49.593  49.527  0.00  0.00     0.100 C 
ATOM     23  C   UNL d   1      57.182  48.997  48.849  0.00  0.00     0.100 C 
ENDBRANCH  20  21
ENDBRANCH  19  20
ENDBRANCH  18  19
ENDBRANCH  17  18
ENDBRANCH   5  17
BRANCH   8  24
ATOM     24  C   UNL d   1      60.695  46.752  50.523  0.00  0.00     0.036 C 
ATOM     25  C   UNL d   1      61.298  46.188  50.338  0.00  0.00     0.006 C 
ATOM     26  C   UNL d   1      61.313  46.961  49.973  0.00  0.00     0.006 C 
ATOM     27  C   UNL d   1      60.681  45.979  50.888  0.00  0.00     0.006 C 
ENDBRANCH   8  24
TORSDOF 7
ENDMDL
MODEL 2
REMARK VINA RESULT:     103.6      2.783      4.945
REMARK  7 active torsions:
REMARK  status: ('A' for Active; 'I' for Inactive)
REMARK    1  A    between atoms: C_10  and  C_4 
REMARK    2  A    between atoms: N_12  and  C_5 
REMARK    3  A    between atoms: C_11  and  C_8 
REMARK    4  A    between atoms: C_21  and  N_12 
REMARK    5  A    between atoms: N_16  and  C_25 
REMARK    6  A    between atoms: C_20  and  C_21 
REMARK    7  A    between atoms: C_25  and  C_20 
ROOT
ATOM      1  C   UNL d   1      61.921  45.613  49.843  0.00  0.00     0.168 A 
ATOM      2  N   UNL d   1      61.901  46.447  49.840  0.00  0.00    -0.184 N 
ATOM      3  N   UNL d   1      61.442  45.202  50.356  0.00  0.00    -0.231 NA
ATOM      4  C   UNL d   1      62.414  45.222  49.338  0.00  0.00     0.057 A 
ATOM      5  C   UNL d   1      61.402  46.829  50.351  0.00  0.00     0.217 A 
ATOM      6  N   UNL d   1      62.867  46.463  48.829  0.00  0.00    -0.160 NA
ATOM      7  C   UNL d   1      60.919  46.422  50.868  0.00  0.00     0.067 A 
ATOM      8  C   UNL d   1      60.939  45.592  50.870  0.00  0.00     0.064 A 
ATOM      9  C   UNL d   1      62.887  45.646  48.831  0.00  0.00     0.124 A 
ENDROOT
BRANCH   4  10
ATOM     10  C   UNL d   1      62.434  44.405  49.341  0.00  0.00     0.005 A 
ATOM     11  C   UNL d   1      62.962  44.006  49.811  0.00  0.00     0.001 A 
ATOM     12  C   UNL d   1      62.982  43.181  49.814  0.00  0.00     0.011 A 
ATOM     13  C   UNL d   1      62.474  42.765  49.346  0.00  0.00     0.058 A 
ATOM     14  C   UNL d   1      61.939  43.174  48.868  0.00  0.00     0.011 A 
ATOM     15 CL   UNL d   1      62.495  41.919  49.348  0.00  0.00    -0.082 Cl
ATOM     16  C   UNL d   1      61.919  43.977  48.866  0.00  0.00     0.001 A 
ENDBRANCH   4  10
BRANCH   5  17
ATOM     17  N   UNL d   1      61.381  47.680  50.349  0.00  0.00    -0.380 NA
BRANCH  17  18
ATOM     18  C   UNL d   1      61.434  48.523  50.350  0.00  0.00     0.164 C 
BRANCH  18  19
ATOM     19  C   UNL d   1      60.732  48.977  50.234  0.00  0.00     0.054 C 
BRANCH  19  20
ATOM     20  C   UNL d   1      60.628  49.708  50.671  0.00  0.00     0.083 C 
BRANCH  20  21
ATOM     21  N   UNL d   1      60.537  49.687  51.510  0.00  0.00    -0.300 N 
ATOM     22  C   UNL d   1      59.692  49.609  51.444  0.00  0.00     0.100 C 
ATOM     23  C   UNL d   1      60.883  49.708  52.281  0.00  0.00     0.100 C 
ENDBRANCH  20  21
ENDBRANCH  19  20
ENDBRANCH  18  19
ENDBRANCH  17  18
ENDBRANCH   5  17
BRANCH   8  24
ATOM     24  C   UNL d   1      60.440  45.154  51.405  0.00  0.00     0.036 C 
ATOM     25  C   UNL d   1      59.948  44.720  51.940  0.00  0.00     0.006 C 
ATOM     26  C   UNL d   1      59.660  44.911  51.157  0.00  0.00     0.006 C 
ATOM     27  C   UNL d   1      60.727  44.963  52.188  0.00  0.00     0.006 C 
ENDBRANCH   8  24
TORSDOF 7
ENDMDL
