MODEL 1
REMARK VINA RESULT:      -1.5      0.000      0.000
REMARK  3 active torsions:
REMARK  status: ('A' for Active; 'I' for Inactive)
REMARK    1  A    between atoms: S_3  and  C_1 
REMARK    2  A    between atoms: C_7  and  N_2 
REMARK    3  A    between atoms: C_13  and  C_7 
ROOT
ATOM      1  C   UNL d   1     -41.784-123.218 -50.767  0.00  0.00     0.255 A 
ATOM      2  N   UNL d   1     -41.503-122.529 -51.130  0.00  0.00    -0.278 N 
ATOM      3  N   UNL d   1     -41.871-123.806 -51.311  0.00  0.00    -0.215 NA
ATOM      4  C   UNL d   1     -41.409-122.694 -51.943  0.00  0.00     0.084 A 
ATOM      5  C   UNL d   1     -41.636-123.482 -52.054  0.00  0.00     0.100 A 
ATOM      6  C   UNL d   1     -41.154-122.247 -52.588  0.00  0.00     0.019 A 
ATOM      7  C   UNL d   1     -41.606-123.817 -52.810  0.00  0.00     0.021 A 
ATOM      8  C   UNL d   1     -41.123-122.579 -53.342  0.00  0.00     0.002 A 
ATOM      9  C   UNL d   1     -41.349-123.367 -53.454  0.00  0.00     0.002 A 
ENDROOT
BRANCH   1  10
ATOM     10  S   UNL d   1     -41.949-123.285 -49.960  0.00  0.00     0.174 S 
ATOM     11  O   UNL d   1     -42.749-123.402 -50.133  0.00  0.00    -0.589 OA
ATOM     12  O   UNL d   1     -42.115-123.351 -49.153  0.00  0.00    -0.589 OA
ATOM     13  O   UNL d   1     -41.151-123.167 -49.787  0.00  0.00    -0.589 OA
ENDBRANCH   1  10
BRANCH   2  14
ATOM     14  C   UNL d   1     -41.340-121.810 -50.783  0.00  0.00     0.082 C 
BRANCH  14  15
ATOM     15  C   UNL d   1     -41.654-121.145 -51.142  0.00  0.00     0.018 C 
ATOM     16  C   UNL d   1     -41.179-120.501 -51.340  0.00  0.00     0.002 C 
ATOM     17  C   UNL d   1     -42.452-121.088 -51.320  0.00  0.00     0.002 C 
ENDBRANCH  14  15
ENDBRANCH   2  14
TORSDOF 3
ENDMDL
MODEL 2
REMARK VINA RESULT:      -1.4      2.282      3.588
REMARK  3 active torsions:
REMARK  status: ('A' for Active; 'I' for Inactive)
REMARK    1  A    between atoms: S_3  and  C_1 
REMARK    2  A    between atoms: C_7  and  N_2 
REMARK    3  A    between atoms: C_13  and  C_7 
ROOT
ATOM      1  C   UNL d   1     -41.666-123.003 -49.918  0.00  0.00     0.255 A 
ATOM      2  N   UNL d   1     -42.312-123.387 -49.571  0.00  0.00    -0.278 N 
ATOM      3  N   UNL d   1     -41.123-122.805 -49.358  0.00  0.00    -0.215 NA
ATOM      4  C   UNL d   1     -42.165-123.431 -48.750  0.00  0.00     0.084 A 
ATOM      5  C   UNL d   1     -41.432-123.072 -48.619  0.00  0.00     0.100 A 
ATOM      6  C   UNL d   1     -42.588-123.743 -48.114  0.00  0.00     0.019 A 
ATOM      7  C   UNL d   1     -41.126-123.026 -47.852  0.00  0.00     0.021 A 
ATOM      8  C   UNL d   1     -42.286-123.698 -47.348  0.00  0.00     0.002 A 
ATOM      9  C   UNL d   1     -41.553-123.339 -47.216  0.00  0.00     0.002 A 
ENDROOT
BRANCH   1  10
ATOM     10  S   UNL d   1     -41.597-122.849 -50.728  0.00  0.00     0.174 S 
ATOM     11  O   UNL d   1     -41.671-122.039 -50.580  0.00  0.00    -0.589 OA
ATOM     12  O   UNL d   1     -41.527-122.695 -51.536  0.00  0.00    -0.589 OA
ATOM     13  O   UNL d   1     -41.523-123.658 -50.875  0.00  0.00    -0.589 OA
ENDBRANCH   1  10
BRANCH   2  14
ATOM     14  C   UNL d   1     -42.979-123.678 -49.938  0.00  0.00     0.082 C 
BRANCH  14  15
ATOM     15  C   UNL d   1     -43.696-123.354 -49.715  0.00  0.00     0.018 C 
ATOM     16  C   UNL d   1     -43.843-122.546 -49.791  0.00  0.00     0.002 C 
ATOM     17  C   UNL d   1     -44.300-123.815 -49.407  0.00  0.00     0.002 C 
ENDBRANCH  14  15
ENDBRANCH   2  14
TORSDOF 3
ENDMDL
MODEL 3
REMARK VINA RESULT:      -1.0      2.506      3.472
REMARK  3 active torsions:
REMARK  status: ('A' for Active; 'I' for Inactive)
REMARK    1  A    between atoms: S_3  and  C_1 
REMARK    2  A    between atoms: C_7  and  N_2 
REMARK    3  A    between atoms: C_13  and  C_7 
ROOT
ATOM      1  C   UNL d   1     -41.882-121.775 -53.322  0.00  0.00     0.255 A 
ATOM      2  N   UNL d   1     -41.466-122.488 -53.262  0.00  0.00    -0.278 N 
ATOM      3  N   UNL d   1     -42.130-121.533 -52.596  0.00  0.00    -0.215 NA
ATOM      4  C   UNL d   1     -41.454-122.703 -52.456  0.00  0.00     0.084 A 
ATOM      5  C   UNL d   1     -41.863-122.114 -52.045  0.00  0.00     0.100 A 
ATOM      6  C   UNL d   1     -41.133-123.342 -52.043  0.00  0.00     0.019 A 
ATOM      7  C   UNL d   1     -41.950-122.167 -51.224  0.00  0.00     0.021 A 
ATOM      8  C   UNL d   1     -41.217-123.397 -51.224  0.00  0.00     0.002 A 
ATOM      9  C   UNL d   1     -41.627-122.808 -50.813  0.00  0.00     0.002 A 
ENDROOT
BRANCH   1  10
ATOM     10  S   UNL d   1     -42.018-121.375 -54.033  0.00  0.00     0.174 S 
ATOM     11  O   UNL d   1     -42.811-121.610 -54.013  0.00  0.00    -0.589 OA
ATOM     12  O   UNL d   1     -42.155-120.975 -54.743  0.00  0.00    -0.589 OA
ATOM     13  O   UNL d   1     -41.228-121.140 -54.053  0.00  0.00    -0.589 OA
ENDBRANCH   1  10
BRANCH   2  14
ATOM     14  C   UNL d   1     -41.123-122.921 -53.861  0.00  0.00     0.082 C 
BRANCH  14  15
ATOM     15  C   UNL d   1     -41.580-123.505 -54.206  0.00  0.00     0.018 C 
ATOM     16  C   UNL d   1     -42.245-123.809 -53.825  0.00  0.00     0.002 C 
ATOM     17  C   UNL d   1     -41.399-123.816 -54.942  0.00  0.00     0.002 C 
ENDBRANCH  14  15
ENDBRANCH   2  14
TORSDOF 3
ENDMDL
MODEL 4
REMARK VINA RESULT:      -0.2      1.872      2.632
REMARK  3 active torsions:
REMARK  status: ('A' for Active; 'I' for Inactive)
REMARK    1  A    between atoms: S_3  and  C_1 
REMARK    2  A    between atoms: C_7  and  N_2 
REMARK    3  A    between atoms: C_13  and  C_7 
ROOT
ATOM      1  C   UNL d   1     -42.389-121.768 -52.689  0.00  0.00     0.255 A 
ATOM      2  N   UNL d   1     -41.738-122.169 -53.006  0.00  0.00    -0.278 N 
ATOM      3  N   UNL d   1     -42.868-121.499 -53.278  0.00  0.00    -0.215 NA
ATOM      4  C   UNL d   1     -41.813-122.149 -53.837  0.00  0.00     0.084 A 
ATOM      5  C   UNL d   1     -42.510-121.737 -54.005  0.00  0.00     0.100 A 
ATOM      6  C   UNL d   1     -41.353-122.444 -54.456  0.00  0.00     0.019 A 
ATOM      7  C   UNL d   1     -42.743-121.621 -54.790  0.00  0.00     0.021 A 
ATOM      8  C   UNL d   1     -41.583-122.331 -55.240  0.00  0.00     0.002 A 
ATOM      9  C   UNL d   1     -42.280-121.918 -55.408  0.00  0.00     0.002 A 
ENDROOT
BRANCH   1  10
ATOM     10  S   UNL d   1     -42.522-121.663 -51.879  0.00  0.00     0.174 S 
ATOM     11  O   UNL d   1     -43.178-122.166 -51.922  0.00  0.00    -0.589 OA
ATOM     12  O   UNL d   1     -42.654-121.559 -51.071  0.00  0.00    -0.589 OA
ATOM     13  O   UNL d   1     -41.868-121.162 -51.837  0.00  0.00    -0.589 OA
ENDBRANCH   1  10
BRANCH   2  14
ATOM     14  C   UNL d   1     -41.124-122.524 -52.605  0.00  0.00     0.082 C 
BRANCH  14  15
ATOM     15  C   UNL d   1     -41.140-123.341 -52.551  0.00  0.00     0.018 C 
ATOM     16  C   UNL d   1     -41.125-123.815 -53.226  0.00  0.00     0.002 C 
ATOM     17  C   UNL d   1     -41.172-123.724 -51.827  0.00  0.00     0.002 C 
ENDBRANCH  14  15
ENDBRANCH   2  14
TORSDOF 3
ENDMDL
MODEL 5
REMARK VINA RESULT:       0.1      1.445      2.103
REMARK  3 active torsions:
REMARK  status: ('A' for Active; 'I' for Inactive)
REMARK    1  A    between atoms: S_3  and  C_1 
REMARK    2  A    between atoms: C_7  and  N_2 
REMARK    3  A    between atoms: C_13  and  C_7 
ROOT
ATOM      1  C   UNL d   1     -41.738-121.709 -51.963  0.00  0.00     0.255 A 
ATOM      2  N   UNL d   1     -41.402-122.464 -51.989  0.00  0.00    -0.278 N 
ATOM      3  N   UNL d   1     -41.936-121.464 -52.704  0.00  0.00    -0.215 NA
ATOM      4  C   UNL d   1     -41.388-122.706 -52.788  0.00  0.00     0.084 A 
ATOM      5  C   UNL d   1     -41.718-122.089 -53.229  0.00  0.00     0.100 A 
ATOM      6  C   UNL d   1     -41.127-123.389 -53.171  0.00  0.00     0.019 A 
ATOM      7  C   UNL d   1     -41.784-122.159 -54.051  0.00  0.00     0.021 A 
ATOM      8  C   UNL d   1     -41.192-123.461 -53.989  0.00  0.00     0.002 A 
ATOM      9  C   UNL d   1     -41.522-122.844 -54.431  0.00  0.00     0.002 A 
ENDROOT
BRANCH   1  10
ATOM     10  S   UNL d   1     -41.851-121.273 -51.269  0.00  0.00     0.174 S 
ATOM     11  O   UNL d   1     -42.582-121.644 -51.155  0.00  0.00    -0.589 OA
ATOM     12  O   UNL d   1     -41.965-120.837 -50.576  0.00  0.00    -0.589 OA
ATOM     13  O   UNL d   1     -41.123-120.903 -51.383  0.00  0.00    -0.589 OA
ENDBRANCH   1  10
BRANCH   2  14
ATOM     14  C   UNL d   1     -41.127-122.912 -51.366  0.00  0.00     0.082 C 
BRANCH  14  15
ATOM     15  C   UNL d   1     -41.666-123.403 -50.995  0.00  0.00     0.018 C 
ATOM     16  C   UNL d   1     -41.663-123.502 -50.176  0.00  0.00     0.002 C 
ATOM     17  C   UNL d   1     -42.233-123.817 -51.418  0.00  0.00     0.002 C 
ENDBRANCH  14  15
ENDBRANCH   2  14
TORSDOF 3
ENDMDL
MODEL 6
REMARK VINA RESULT:       0.2      2.641      3.184
REMARK  3 active torsions:
REMARK  status: ('A' for Active; 'I' for Inactive)
REMARK    1  A    between atoms: S_3  and  C_1 
REMARK    2  A    between atoms: C_7  and  N_2 
REMARK    3  A    between atoms: C_13  and  C_7 
ROOT
ATOM      1  C   UNL d   1     -41.738-123.313 -53.834  0.00  0.00     0.255 A 
ATOM      2  N   UNL d   1     -41.583-122.528 -53.626  0.00  0.00    -0.278 N 
ATOM      3  N   UNL d   1     -41.691-123.790 -53.187  0.00  0.00    -0.215 NA
ATOM      4  C   UNL d   1     -41.430-122.511 -52.806  0.00  0.00     0.084 A 
ATOM      5  C   UNL d   1     -41.497-123.289 -52.535  0.00  0.00     0.100 A 
ATOM      6  C   UNL d   1     -41.243-121.907 -52.275  0.00  0.00     0.019 A 
ATOM      7  C   UNL d   1     -41.377-123.459 -51.734  0.00  0.00     0.021 A 
ATOM      8  C   UNL d   1     -41.123-122.074 -51.476  0.00  0.00     0.002 A 
ATOM      9  C   UNL d   1     -41.190-122.853 -51.205  0.00  0.00     0.002 A 
ENDROOT
BRANCH   1  10
ATOM     10  S   UNL d   1     -41.916-123.565 -54.602  0.00  0.00     0.174 S 
ATOM     11  O   UNL d   1     -41.128-123.792 -54.710  0.00  0.00    -0.589 OA
ATOM     12  O   UNL d   1     -42.093-123.817 -55.368  0.00  0.00    -0.589 OA
ATOM     13  O   UNL d   1     -42.702-123.339 -54.494  0.00  0.00    -0.589 OA
ENDBRANCH   1  10
BRANCH   2  14
ATOM     14  C   UNL d   1     -41.573-121.873 -54.112  0.00  0.00     0.082 C 
BRANCH  14  15
ATOM     15  C   UNL d   1     -42.102-121.274 -53.937  0.00  0.00     0.018 C 
ATOM     16  C   UNL d   1     -41.842-120.535 -53.678  0.00  0.00     0.002 C 
ATOM     17  C   UNL d   1     -42.912-121.379 -54.010  0.00  0.00     0.002 C 
ENDBRANCH  14  15
ENDBRANCH   2  14
TORSDOF 3
ENDMDL
MODEL 7
REMARK VINA RESULT:       0.3      1.832      2.920
REMARK  3 active torsions:
REMARK  status: ('A' for Active; 'I' for Inactive)
REMARK    1  A    between atoms: S_3  and  C_1 
REMARK    2  A    between atoms: C_7  and  N_2 
REMARK    3  A    between atoms: C_13  and  C_7 
ROOT
ATOM      1  C   UNL d   1     -41.584-122.589 -52.629  0.00  0.00     0.255 A 
ATOM      2  N   UNL d   1     -41.510-122.813 -51.836  0.00  0.00    -0.278 N 
ATOM      3  N   UNL d   1     -41.500-121.791 -52.704  0.00  0.00    -0.215 NA
ATOM      4  C   UNL d   1     -41.373-122.120 -51.391  0.00  0.00     0.084 A 
ATOM      5  C   UNL d   1     -41.367-121.490 -51.927  0.00  0.00     0.100 A 
ATOM      6  C   UNL d   1     -41.254-121.974 -50.587  0.00  0.00     0.019 A 
ATOM      7  C   UNL d   1     -41.242-120.718 -51.656  0.00  0.00     0.021 A 
ATOM      8  C   UNL d   1     -41.130-121.206 -50.314  0.00  0.00     0.002 A 
ATOM      9  C   UNL d   1     -41.124-120.577 -50.850  0.00  0.00     0.002 A 
ENDROOT
BRANCH   1  10
ATOM     10  S   UNL d   1     -41.724-123.116 -53.250  0.00  0.00     0.174 S 
ATOM     11  O   UNL d   1     -41.131-123.614 -52.962  0.00  0.00    -0.589 OA
ATOM     12  O   UNL d   1     -41.864-123.643 -53.871  0.00  0.00    -0.589 OA
ATOM     13  O   UNL d   1     -42.317-122.619 -53.538  0.00  0.00    -0.589 OA
ENDBRANCH   1  10
BRANCH   2  14
ATOM     14  C   UNL d   1     -41.558-123.563 -51.520  0.00  0.00     0.082 C 
BRANCH  14  15
ATOM     15  C   UNL d   1     -41.942-123.639 -50.802  0.00  0.00     0.018 C 
ATOM     16  C   UNL d   1     -41.523-123.770 -50.104  0.00  0.00     0.002 C 
ATOM     17  C   UNL d   1     -42.758-123.589 -50.742  0.00  0.00     0.002 C 
ENDBRANCH  14  15
ENDBRANCH   2  14
TORSDOF 3
ENDMDL
MODEL 8
REMARK VINA RESULT:       0.5      1.017      1.383
REMARK  3 active torsions:
REMARK  status: ('A' for Active; 'I' for Inactive)
REMARK    1  A    between atoms: S_3  and  C_1 
REMARK    2  A    between atoms: C_7  and  N_2 
REMARK    3  A    between atoms: C_13  and  C_7 
ROOT
ATOM      1  C   UNL d   1     -41.704-123.201 -50.056  0.00  0.00     0.255 A 
ATOM      2  N   UNL d   1     -42.012-122.594 -50.526  0.00  0.00    -0.278 N 
ATOM      3  N   UNL d   1     -41.331-123.748 -50.515  0.00  0.00    -0.215 NA
ATOM      4  C   UNL d   1     -41.822-122.769 -51.319  0.00  0.00     0.084 A 
ATOM      5  C   UNL d   1     -41.402-123.481 -51.312  0.00  0.00     0.100 A 
ATOM      6  C   UNL d   1     -41.969-122.388 -52.037  0.00  0.00     0.019 A 
ATOM      7  C   UNL d   1     -41.131-123.808 -52.023  0.00  0.00     0.021 A 
ATOM      8  C   UNL d   1     -41.700-122.711 -52.746  0.00  0.00     0.002 A 
ATOM      9  C   UNL d   1     -41.280-123.423 -52.739  0.00  0.00     0.002 A 
ENDROOT
BRANCH   1  10
ATOM     10  S   UNL d   1     -41.774-123.235 -49.233  0.00  0.00     0.174 S 
ATOM     11  O   UNL d   1     -41.189-122.656 -49.159  0.00  0.00    -0.589 OA
ATOM     12  O   UNL d   1     -41.845-123.268 -48.411  0.00  0.00    -0.589 OA
ATOM     13  O   UNL d   1     -42.359-123.812 -49.306  0.00  0.00    -0.589 OA
ENDBRANCH   1  10
BRANCH   2  14
ATOM     14  C   UNL d   1     -42.428-121.935 -50.285  0.00  0.00     0.082 C 
BRANCH  14  15
ATOM     15  C   UNL d   1     -43.240-121.954 -50.380  0.00  0.00     0.018 C 
ATOM     16  C   UNL d   1     -43.731-122.293 -49.810  0.00  0.00     0.002 C 
ATOM     17  C   UNL d   1     -43.603-121.638 -51.044  0.00  0.00     0.002 C 
ENDBRANCH  14  15
ENDBRANCH   2  14
TORSDOF 3
ENDMDL
MODEL 9
REMARK VINA RESULT:       0.6      2.159      3.389
REMARK  3 active torsions:
REMARK  status: ('A' for Active; 'I' for Inactive)
REMARK    1  A    between atoms: S_3  and  C_1 
REMARK    2  A    between atoms: C_7  and  N_2 
REMARK    3  A    between atoms: C_13  and  C_7 
ROOT
ATOM      1  C   UNL d   1     -42.975-123.185 -49.493  0.00  0.00     0.255 A 
ATOM      2  N   UNL d   1     -42.149-123.235 -49.489  0.00  0.00    -0.278 N 
ATOM      3  N   UNL d   1     -43.270-123.338 -48.759  0.00  0.00    -0.215 NA
ATOM      4  C   UNL d   1     -41.914-123.430 -48.712  0.00  0.00     0.084 A 
ATOM      5  C   UNL d   1     -42.605-123.494 -48.262  0.00  0.00     0.100 A 
ATOM      6  C   UNL d   1     -41.180-123.558 -48.356  0.00  0.00     0.019 A 
ATOM      7  C   UNL d   1     -42.558-123.684 -47.458  0.00  0.00     0.021 A 
ATOM      8  C   UNL d   1     -41.131-123.748 -47.555  0.00  0.00     0.002 A 
ATOM      9  C   UNL d   1     -41.821-123.811 -47.105  0.00  0.00     0.002 A 
ENDROOT
BRANCH   1  10
ATOM     10  S   UNL d   1     -43.428-123.002 -50.160  0.00  0.00     0.174 S 
ATOM     11  O   UNL d   1     -43.246-123.740 -50.486  0.00  0.00    -0.589 OA
ATOM     12  O   UNL d   1     -43.879-122.819 -50.828  0.00  0.00    -0.589 OA
ATOM     13  O   UNL d   1     -43.609-122.265 -49.836  0.00  0.00    -0.589 OA
ENDBRANCH   1  10
BRANCH   2  14
ATOM     14  C   UNL d   1     -41.637-123.120 -50.112  0.00  0.00     0.082 C 
BRANCH  14  15
ATOM     15  C   UNL d   1     -41.332-122.367 -50.208  0.00  0.00     0.018 C 
ATOM     16  C   UNL d   1     -41.218-122.044 -50.957  0.00  0.00     0.002 C 
ATOM     17  C   UNL d   1     -41.126-121.902 -49.566  0.00  0.00     0.002 C 
ENDBRANCH  14  15
ENDBRANCH   2  14
TORSDOF 3
ENDMDL
