MODEL 1
REMARK VINA RESULT:      -6.2      0.000      0.000
REMARK  4 active torsions:
REMARK  status: ('A' for Active; 'I' for Inactive)
REMARK    1  A    between atoms: N_3  and  S_1 
REMARK    2  A    between atoms: N_5  and  S_1 
REMARK    3  A    between atoms: S_2  and  N_4 
REMARK    4  A    between atoms: C_14  and  S_2 
ROOT
ATOM      1  N   UNL d   1     -41.621-123.022 -50.518  0.00  0.00    -0.213 N 
ATOM      2  N   UNL d   1     -41.633-122.778 -52.137  0.00  0.00    -0.226 N 
ATOM      3  C   UNL d   1     -41.349-123.509 -51.832  0.00  0.00     0.111 A 
ATOM      4  C   UNL d   1     -41.900-122.197 -51.631  0.00  0.00     0.111 A 
ATOM      5  C   UNL d   1     -41.894-122.320 -50.815  0.00  0.00     0.113 A 
ATOM      6  C   UNL d   1     -41.343-123.631 -51.016  0.00  0.00     0.113 A 
ENDROOT
BRANCH   2   7
ATOM      7  S   UNL d   1     -41.640-122.655 -52.953  0.00  0.00     0.271 S 
ATOM      8  O   UNL d   1     -41.489-121.897 -53.257  0.00  0.00    -0.200 OA
ATOM      9  O   UNL d   1     -41.794-123.282 -53.463  0.00  0.00    -0.200 OA
BRANCH   7  10
ATOM     10  C   UNL d   1     -41.646-122.533 -53.768  0.00  0.00     0.104 A 
ATOM     11  C   UNL d   1     -41.123-122.953 -54.248  0.00  0.00     0.013 A 
ATOM     12  C   UNL d   1     -41.129-122.830 -55.064  0.00  0.00     0.001 A 
ATOM     13  C   UNL d   1     -41.658-122.288 -55.396  0.00  0.00     0.000 A 
ATOM     14  C   UNL d   1     -42.184-121.867 -54.903  0.00  0.00     0.001 A 
ATOM     15  C   UNL d   1     -42.171-121.994 -54.096  0.00  0.00     0.013 A 
ENDBRANCH   7  10
ENDBRANCH   2   7
BRANCH   1  16
ATOM     16  S   UNL d   1     -41.615-123.146 -49.689  0.00  0.00     0.337 S 
ATOM     17  O   UNL d   1     -42.095-123.725 -49.356  0.00  0.00    -0.181 OA
ATOM     18  O   UNL d   1     -41.123-122.683 -49.207  0.00  0.00    -0.181 OA
BRANCH  16  19
ATOM     19  N   UNL d   1     -41.753-123.419 -48.920  0.00  0.00    -0.213 N 
ATOM     20  C   UNL d   1     -41.139-123.773 -48.487  0.00  0.00     0.113 C 
ATOM     21  C   UNL d   1     -42.498-123.340 -48.587  0.00  0.00     0.113 C 
ENDBRANCH  16  19
ENDBRANCH   1  16
TORSDOF 4
ENDMDL
MODEL 2
REMARK VINA RESULT:      -5.8      0.718      4.664
REMARK  4 active torsions:
REMARK  status: ('A' for Active; 'I' for Inactive)
REMARK    1  A    between atoms: N_3  and  S_1 
REMARK    2  A    between atoms: N_5  and  S_1 
REMARK    3  A    between atoms: S_2  and  N_4 
REMARK    4  A    between atoms: C_14  and  S_2 
ROOT
ATOM      1  N   UNL d   1     -41.442-122.936 -52.477  0.00  0.00    -0.213 N 
ATOM      2  N   UNL d   1     -41.605-123.068 -50.853  0.00  0.00    -0.226 N 
ATOM      3  C   UNL d   1     -41.670-122.311 -51.214  0.00  0.00     0.111 A 
ATOM      4  C   UNL d   1     -41.462-123.729 -51.308  0.00  0.00     0.111 A 
ATOM      5  C   UNL d   1     -41.380-123.663 -52.126  0.00  0.00     0.113 A 
ATOM      6  C   UNL d   1     -41.587-122.244 -52.032  0.00  0.00     0.113 A 
ENDROOT
BRANCH   2   7
ATOM      7  S   UNL d   1     -41.687-123.134 -50.035  0.00  0.00     0.271 S 
ATOM      8  O   UNL d   1     -42.249-123.658 -49.718  0.00  0.00    -0.200 OA
ATOM      9  O   UNL d   1     -41.214-122.683 -49.534  0.00  0.00    -0.200 OA
BRANCH   7  10
ATOM     10  C   UNL d   1     -41.770-123.201 -49.217  0.00  0.00     0.104 A 
ATOM     11  C   UNL d   1     -41.123-123.429 -48.759  0.00  0.00     0.013 A 
ATOM     12  C   UNL d   1     -41.205-123.495 -47.941  0.00  0.00     0.001 A 
ATOM     13  C   UNL d   1     -41.934-123.333 -47.584  0.00  0.00     0.000 A 
ATOM     14  C   UNL d   1     -42.584-123.103 -48.055  0.00  0.00     0.001 A 
ATOM     15  C   UNL d   1     -42.493-123.039 -48.865  0.00  0.00     0.013 A 
ENDBRANCH   7  10
ENDBRANCH   2   7
BRANCH   1  16
ATOM     16  S   UNL d   1     -41.358-122.868 -53.308  0.00  0.00     0.337 S 
ATOM     17  O   UNL d   1     -41.509-123.516 -53.791  0.00  0.00    -0.181 OA
ATOM     18  O   UNL d   1     -41.123-122.145 -53.641  0.00  0.00    -0.181 OA
BRANCH  16  19
ATOM     19  N   UNL d   1     -41.335-123.007 -54.123  0.00  0.00    -0.213 N 
ATOM     20  C   UNL d   1     -41.514-122.395 -54.655  0.00  0.00     0.113 C 
ATOM     21  C   UNL d   1     -41.136-123.750 -54.405  0.00  0.00     0.113 C 
ENDBRANCH  16  19
ENDBRANCH   1  16
TORSDOF 4
ENDMDL
