MODEL 1
REMARK VINA RESULT:      14.8      0.000      0.000
REMARK  0 active torsions:
REMARK  status: ('A' for Active; 'I' for Inactive)
ROOT
ATOM      1  N   UNL d   1     -58.620 -98.756 -43.606  0.00  0.00    -0.300 N 
ATOM      2  C   UNL d   1     -59.274 -98.756 -44.870  0.00  0.00     0.295 A 
ATOM      3  N   UNL d   1     -58.528 -98.756 -45.240  0.00  0.00    -0.205 NA
ATOM      4  C   UNL d   1     -59.322 -98.756 -44.047  0.00  0.00     0.123 A 
ATOM      5  C   UNL d   1     -57.895 -98.756 -43.966  0.00  0.00     0.082 A 
ATOM      6  C   UNL d   1     -57.842 -98.756 -44.781  0.00  0.00     0.101 A 
ATOM      7  O   UNL d   1     -59.959 -98.756 -45.299  0.00  0.00    -0.264 OA
ATOM      8  C   UNL d   1     -58.830 -98.756 -42.823  0.00  0.00     0.080 A 
ATOM      9  C   UNL d   1     -59.961 -98.756 -43.519  0.00  0.00     0.024 A 
ATOM     10  C   UNL d   1     -57.205 -98.756 -43.499  0.00  0.00     0.019 A 
ATOM     11  C   UNL d   1     -57.096 -98.756 -45.152  0.00  0.00     0.021 A 
ATOM     12  C   UNL d   1     -59.640 -98.757 -42.742  0.00  0.00     0.021 A 
ATOM     13  C   UNL d   1     -56.459 -98.756 -43.869  0.00  0.00     0.002 A 
ATOM     14  C   UNL d   1     -56.420 -98.756 -44.682  0.00  0.00     0.002 A 
ENDROOT
TORSDOF 0
ENDMDL
MODEL 2
REMARK VINA RESULT:      17.5      1.219      2.133
REMARK  0 active torsions:
REMARK  status: ('A' for Active; 'I' for Inactive)
ROOT
ATOM      1  N   UNL d   1     -59.256 -98.781 -43.953  0.00  0.00    -0.300 N 
ATOM      2  C   UNL d   1     -57.834 -98.763 -43.902  0.00  0.00     0.295 A 
ATOM      3  N   UNL d   1     -57.818 -98.762 -44.735  0.00  0.00    -0.205 NA
ATOM      4  C   UNL d   1     -58.558 -98.772 -43.507  0.00  0.00     0.123 A 
ATOM      5  C   UNL d   1     -59.240 -98.780 -44.763  0.00  0.00     0.082 A 
ATOM      6  C   UNL d   1     -58.525 -98.771 -45.159  0.00  0.00     0.101 A 
ATOM      7  O   UNL d   1     -57.154 -98.755 -43.465  0.00  0.00    -0.264 OA
ATOM      8  C   UNL d   1     -59.875 -98.789 -43.429  0.00  0.00     0.080 A 
ATOM      9  C   UNL d   1     -58.763 -98.776 -42.704  0.00  0.00     0.024 A 
ATOM     10  C   UNL d   1     -59.957 -98.789 -45.187  0.00  0.00     0.019 A 
ATOM     11  C   UNL d   1     -58.509 -98.770 -45.992  0.00  0.00     0.021 A 
ATOM     12  C   UNL d   1     -59.602 -98.786 -42.663  0.00  0.00     0.021 A 
ATOM     13  C   UNL d   1     -59.940 -98.788 -46.020  0.00  0.00     0.002 A 
ATOM     14  C   UNL d   1     -59.222 -98.779 -46.403  0.00  0.00     0.002 A 
ENDROOT
TORSDOF 0
ENDMDL
