MODEL 1
REMARK VINA RESULT:      28.7      0.000      0.000
REMARK  5 active torsions:
REMARK  status: ('A' for Active; 'I' for Inactive)
REMARK    1  A    between atoms: O_8  and  C_1 
REMARK    2  A    between atoms: C_12  and  C_5 
REMARK    3  A    between atoms: C_10  and  O_8 
REMARK    4  A    between atoms: N_16  and  C_12 
REMARK    5  A    between atoms: O_19  and  C_15 
ROOT
ATOM      1  C   UNL d   1      46.321 -16.607  43.539  0.00  0.00     0.161 A 
ATOM      2  C   UNL d   1      46.448 -18.248  43.317  0.00  0.00     0.108 A 
ATOM      3  C   UNL d   1      46.384 -17.740  42.655  0.00  0.00     0.064 A 
ATOM      4  C   UNL d   1      46.321 -16.928  42.764  0.00  0.00     0.222 A 
ATOM      5  C   UNL d   1      46.512 -19.069  43.207  0.00  0.00     0.079 A 
ATOM      6  O   UNL d   1      46.450 -17.940  44.087  0.00  0.00    -0.305 OA
ATOM      7  C   UNL d   1      46.386 -17.110  44.194  0.00  0.00     0.126 A 
ATOM      8  C   UNL d   1      46.384 -18.068  41.890  0.00  0.00     0.009 A 
ATOM      9  C   UNL d   1      46.511 -19.380  42.440  0.00  0.00     0.199 A 
ATOM     10  O   UNL d   1      46.256 -16.423  42.114  0.00  0.00    -0.284 OA
ATOM     11  C   UNL d   1      46.447 -18.882  41.785  0.00  0.00     0.042 A 
ATOM     12  O   UNL d   1      46.575 -20.199  42.341  0.00  0.00    -0.286 OA
ATOM     13  C   UNL d   1      46.386 -16.795  44.954  0.00  0.00     0.029 C 
ENDROOT
BRANCH   1  14
ATOM     14  O   UNL d   1      46.258 -15.793  43.644  0.00  0.00    -0.300 OA
BRANCH  14  15
ATOM     15  C   UNL d   1      45.633 -15.483  44.081  0.00  0.00     0.122 A 
ATOM     16  C   UNL d   1      45.619 -14.682  44.267  0.00  0.00     0.117 A 
ATOM     17  C   UNL d   1      44.994 -14.372  44.703  0.00  0.00     0.026 A 
ATOM     18  C   UNL d   1      44.381 -14.864  44.954  0.00  0.00     0.002 A 
ATOM     19  C   UNL d   1      44.400 -15.676  44.763  0.00  0.00     0.002 A 
ATOM     20  C   UNL d   1      45.022 -15.980  44.329  0.00  0.00     0.027 A 
BRANCH  16  21
ATOM     21  O   UNL d   1      46.232 -14.190  44.016  0.00  0.00    -0.326 OA
ATOM     22  C   UNL d   1      46.101 -13.382  43.935  0.00  0.00     0.181 C 
ENDBRANCH  16  21
ENDBRANCH  14  15
ENDBRANCH   1  14
BRANCH   5  23
ATOM     23  C   UNL d   1      46.576 -19.567  43.861  0.00  0.00     0.086 C 
BRANCH  23  24
ATOM     24  N   UNL d   1      45.918 -19.979  44.122  0.00  0.00    -0.300 N 
ATOM     25  C   UNL d   1      45.408 -20.329  43.575  0.00  0.00     0.100 C 
ATOM     26  C   UNL d   1      45.758 -20.046  44.931  0.00  0.00     0.100 C 
ENDBRANCH  23  24
ENDBRANCH   5  23
TORSDOF 5
ENDMDL
