MODEL 1
REMARK VINA RESULT:      -8.5      0.000      0.000
REMARK  3 active torsions:
REMARK  status: ('A' for Active; 'I' for Inactive)
REMARK    1  A    between atoms: C_3  and  C_1 
REMARK    2  A    between atoms: N_4  and  C_3 
REMARK    3  A    between atoms: C_8  and  C_3 
ROOT
ATOM      1  C   UNL d   1      52.994  32.312  53.585  0.00  0.00     0.069 C 
ENDROOT
BRANCH   1   2
ATOM      2  C   UNL d   1      52.319  32.753  53.393  0.00  0.00     0.057 A 
ATOM      3  C   UNL d   1      52.289  33.171  52.681  0.00  0.00     0.214 A 
ATOM      4  C   UNL d   1      51.616  33.603  52.503  0.00  0.00     0.120 A 
ATOM      5  O   UNL d   1      52.927  33.158  52.150  0.00  0.00    -0.285 OA
ATOM      6  N   UNL d   1      51.570  34.026  51.796  0.00  0.00    -0.241 NA
ATOM      7  C   UNL d   1      50.977  33.616  53.034  0.00  0.00     0.021 A 
ATOM      8  C   UNL d   1      50.886  34.458  51.627  0.00  0.00     0.099 A 
ATOM      9  C   UNL d   1      50.274  34.470  52.137  0.00  0.00     0.021 A 
ATOM     10  C   UNL d   1      50.302  34.052  52.851  0.00  0.00     0.003 A 
ATOM     11  C   UNL d   1      51.020  33.197  53.736  0.00  0.00     0.002 A 
ATOM     12  C   UNL d   1      51.706  32.765  53.902  0.00  0.00     0.005 A 
ENDBRANCH   1   2
BRANCH   1  13
ATOM     13  N   UNL d   1      53.631  32.670  53.956  0.00  0.00    -0.301 N 
ATOM     14  C   UNL d   1      53.594  32.820  54.762  0.00  0.00     0.100 A 
ATOM     15  C   UNL d   1      54.238  33.184  55.142  0.00  0.00     0.100 A 
ATOM     16  N   UNL d   1      54.900  33.389  54.720  0.00  0.00    -0.299 N 
ATOM     17  C   UNL d   1      54.939  33.239  53.910  0.00  0.00     0.100 A 
ATOM     18  C   UNL d   1      55.533  33.744  55.084  0.00  0.00     0.100 C 
ATOM     19  C   UNL d   1      54.306  32.882  53.536  0.00  0.00     0.100 A 
ENDBRANCH   1  13
BRANCH   1  20
ATOM     20  C   UNL d   1      53.044  31.517  53.411  0.00  0.00     0.035 A 
ATOM     21  C   UNL d   1      53.209  31.265  52.654  0.00  0.00     0.100 A 
ATOM     22  N   UNL d   1      53.261  30.461  52.474  0.00  0.00    -0.242 NA
ATOM     23  C   UNL d   1      53.142  29.904  53.074  0.00  0.00     0.099 A 
ATOM     24  C   UNL d   1      52.976  30.153  53.836  0.00  0.00     0.021 A 
ATOM     25  C   UNL d   1      52.926  30.960  54.011  0.00  0.00     0.005 A 
ENDBRANCH   1  20
TORSDOF 3
ENDMDL
MODEL 2
REMARK VINA RESULT:      -8.4      0.889      2.678
REMARK  3 active torsions:
REMARK  status: ('A' for Active; 'I' for Inactive)
REMARK    1  A    between atoms: C_3  and  C_1 
REMARK    2  A    between atoms: N_4  and  C_3 
REMARK    3  A    between atoms: C_8  and  C_3 
ROOT
ATOM      1  C   UNL d   1      53.393  32.592  53.755  0.00  0.00     0.069 C 
ENDROOT
BRANCH   1   2
ATOM      2  C   UNL d   1      52.836  33.034  53.329  0.00  0.00     0.057 A 
ATOM      3  C   UNL d   1      52.088  33.174  53.651  0.00  0.00     0.214 A 
ATOM      4  C   UNL d   1      51.547  33.613  53.221  0.00  0.00     0.120 A 
ATOM      5  O   UNL d   1      51.883  32.878  54.398  0.00  0.00    -0.285 OA
ATOM      6  N   UNL d   1      50.796  33.761  53.528  0.00  0.00    -0.241 NA
ATOM      7  C   UNL d   1      51.753  33.909  52.472  0.00  0.00     0.021 A 
ATOM      8  C   UNL d   1      50.258  34.205  53.084  0.00  0.00     0.099 A 
ATOM      9  C   UNL d   1      50.456  34.490  52.367  0.00  0.00     0.021 A 
ATOM     10  C   UNL d   1      51.205  34.350  52.042  0.00  0.00     0.003 A 
ATOM     11  C   UNL d   1      52.497  33.763  52.165  0.00  0.00     0.002 A 
ATOM     12  C   UNL d   1      53.034  33.319  52.611  0.00  0.00     0.005 A 
ENDBRANCH   1   2
BRANCH   1  13
ATOM     13  N   UNL d   1      53.379  31.773  53.728  0.00  0.00    -0.301 N 
ATOM     14  C   UNL d   1      53.558  31.390  53.025  0.00  0.00     0.100 A 
ATOM     15  C   UNL d   1      53.545  30.559  52.994  0.00  0.00     0.100 A 
ATOM     16  N   UNL d   1      53.356  30.128  53.656  0.00  0.00    -0.299 N 
ATOM     17  C   UNL d   1      53.176  30.511  54.363  0.00  0.00     0.100 A 
ATOM     18  C   UNL d   1      53.341  29.316  53.634  0.00  0.00     0.100 C 
ATOM     19  C   UNL d   1      53.189  31.327  54.393  0.00  0.00     0.100 A 
ENDBRANCH   1  13
BRANCH   1  20
ATOM     20  C   UNL d   1      53.966  32.955  54.207  0.00  0.00     0.035 A 
ATOM     21  C   UNL d   1      53.832  33.120  54.994  0.00  0.00     0.100 A 
ATOM     22  N   UNL d   1      54.408  33.488  55.456  0.00  0.00    -0.242 NA
ATOM     23  C   UNL d   1      55.133  33.691  55.113  0.00  0.00     0.099 A 
ATOM     24  C   UNL d   1      55.271  33.527  54.323  0.00  0.00     0.021 A 
ATOM     25  C   UNL d   1      54.690  33.158  53.864  0.00  0.00     0.005 A 
ENDBRANCH   1  20
TORSDOF 3
ENDMDL
MODEL 3
REMARK VINA RESULT:      -8.1      0.650      3.290
REMARK  3 active torsions:
REMARK  status: ('A' for Active; 'I' for Inactive)
REMARK    1  A    between atoms: C_3  and  C_1 
REMARK    2  A    between atoms: N_4  and  C_3 
REMARK    3  A    between atoms: C_8  and  C_3 
ROOT
ATOM      1  C   UNL d   1      52.827  32.385  53.527  0.00  0.00     0.069 C 
ENDROOT
BRANCH   1   2
ATOM      2  C   UNL d   1      53.402  32.700  54.033  0.00  0.00     0.057 A 
ATOM      3  C   UNL d   1      54.109  32.993  53.723  0.00  0.00     0.214 A 
ATOM      4  C   UNL d   1      54.669  33.302  54.234  0.00  0.00     0.120 A 
ATOM      5  O   UNL d   1      54.256  32.976  52.906  0.00  0.00    -0.285 OA
ATOM      6  N   UNL d   1      55.381  33.598  53.939  0.00  0.00    -0.241 NA
ATOM      7  C   UNL d   1      54.522  33.319  55.052  0.00  0.00     0.021 A 
ATOM      8  C   UNL d   1      55.938  33.908  54.465  0.00  0.00     0.099 A 
ATOM      9  C   UNL d   1      55.797  33.924  55.250  0.00  0.00     0.021 A 
ATOM     10  C   UNL d   1      55.088  33.632  55.563  0.00  0.00     0.003 A 
ATOM     11  C   UNL d   1      53.817  33.026  55.346  0.00  0.00     0.002 A 
ATOM     12  C   UNL d   1      53.261  32.717  54.817  0.00  0.00     0.005 A 
ENDBRANCH   1   2
BRANCH   1  13
ATOM     13  N   UNL d   1      52.217  32.855  53.249  0.00  0.00    -0.301 N 
ATOM     14  C   UNL d   1      51.507  32.878  53.661  0.00  0.00     0.100 A 
ATOM     15  C   UNL d   1      50.885  33.354  53.382  0.00  0.00     0.100 A 
ATOM     16  N   UNL d   1      50.978  33.794  52.706  0.00  0.00    -0.299 N 
ATOM     17  C   UNL d   1      51.690  33.772  52.291  0.00  0.00     0.100 A 
ATOM     18  C   UNL d   1      50.374  34.261  52.428  0.00  0.00     0.100 C 
ATOM     19  C   UNL d   1      52.301  33.304  52.564  0.00  0.00     0.100 A 
ENDBRANCH   1  13
BRANCH   1  20
ATOM     20  C   UNL d   1      52.853  31.604  53.292  0.00  0.00     0.035 A 
ATOM     21  C   UNL d   1      52.977  31.408  52.511  0.00  0.00     0.100 A 
ATOM     22  N   UNL d   1      53.003  30.620  52.268  0.00  0.00    -0.242 NA
ATOM     23  C   UNL d   1      52.902  30.021  52.829  0.00  0.00     0.099 A 
ATOM     24  C   UNL d   1      52.777  30.213  53.615  0.00  0.00     0.021 A 
ATOM     25  C   UNL d   1      52.752  31.005  53.853  0.00  0.00     0.005 A 
ENDBRANCH   1  20
TORSDOF 3
ENDMDL
MODEL 4
REMARK VINA RESULT:      -8.0      1.127      3.847
REMARK  3 active torsions:
REMARK  status: ('A' for Active; 'I' for Inactive)
REMARK    1  A    between atoms: C_3  and  C_1 
REMARK    2  A    between atoms: N_4  and  C_3 
REMARK    3  A    between atoms: C_8  and  C_3 
ROOT
ATOM      1  C   UNL d   1      53.496  32.582  53.724  0.00  0.00     0.069 C 
ENDROOT
BRANCH   1   2
ATOM      2  C   UNL d   1      53.457  31.756  53.661  0.00  0.00     0.057 A 
ATOM      3  C   UNL d   1      53.358  31.296  54.340  0.00  0.00     0.214 A 
ATOM      4  C   UNL d   1      53.322  30.481  54.265  0.00  0.00     0.120 A 
ATOM      5  O   UNL d   1      53.296  31.648  55.089  0.00  0.00    -0.285 OA
ATOM      6  N   UNL d   1      53.223  30.008  54.933  0.00  0.00    -0.241 NA
ATOM      7  C   UNL d   1      53.384  30.129  53.515  0.00  0.00     0.021 A 
ATOM      8  C   UNL d   1      53.188  29.186  54.845  0.00  0.00     0.099 A 
ATOM      9  C   UNL d   1      53.247  28.849  54.125  0.00  0.00     0.021 A 
ATOM     10  C   UNL d   1      53.347  29.309  53.444  0.00  0.00     0.003 A 
ATOM     11  C   UNL d   1      53.482  30.597  52.850  0.00  0.00     0.002 A 
ATOM     12  C   UNL d   1      53.517  31.419  52.942  0.00  0.00     0.005 A 
ENDBRANCH   1   2
BRANCH   1  13
ATOM     13  N   UNL d   1      52.853  33.043  53.512  0.00  0.00    -0.301 N 
ATOM     14  C   UNL d   1      52.753  33.257  52.725  0.00  0.00     0.100 A 
ATOM     15  C   UNL d   1      52.102  33.725  52.507  0.00  0.00     0.100 A 
ATOM     16  N   UNL d   1      51.568  33.971  53.066  0.00  0.00    -0.299 N 
ATOM     17  C   UNL d   1      51.667  33.758  53.857  0.00  0.00     0.100 A 
ATOM     18  C   UNL d   1      50.929  34.429  52.860  0.00  0.00     0.100 C 
ATOM     19  C   UNL d   1      52.306  33.298  54.072  0.00  0.00     0.100 A 
ENDBRANCH   1  13
BRANCH   1  20
ATOM     20  C   UNL d   1      54.168  32.955  53.995  0.00  0.00     0.035 A 
ATOM     21  C   UNL d   1      54.823  33.034  53.517  0.00  0.00     0.100 A 
ATOM     22  N   UNL d   1      55.505  33.411  53.787  0.00  0.00    -0.242 NA
ATOM     23  C   UNL d   1      55.523  33.712  54.557  0.00  0.00     0.099 A 
ATOM     24  C   UNL d   1      54.867  33.635  55.041  0.00  0.00     0.021 A 
ATOM     25  C   UNL d   1      54.186  33.256  54.766  0.00  0.00     0.005 A 
ENDBRANCH   1  20
TORSDOF 3
ENDMDL
MODEL 5
REMARK VINA RESULT:      -7.3      0.955      3.830
REMARK  3 active torsions:
REMARK  status: ('A' for Active; 'I' for Inactive)
REMARK    1  A    between atoms: C_3  and  C_1 
REMARK    2  A    between atoms: N_4  and  C_3 
REMARK    3  A    between atoms: C_8  and  C_3 
ROOT
ATOM      1  C   UNL d   1      52.810  32.528  53.301  0.00  0.00     0.069 C 
ENDROOT
BRANCH   1   2
ATOM      2  C   UNL d   1      53.505  32.841  53.625  0.00  0.00     0.057 A 
ATOM      3  C   UNL d   1      53.539  33.024  54.430  0.00  0.00     0.214 A 
ATOM      4  C   UNL d   1      54.232  33.332  54.738  0.00  0.00     0.120 A 
ATOM      5  O   UNL d   1      52.884  32.899  54.924  0.00  0.00    -0.285 OA
ATOM      6  N   UNL d   1      54.282  33.520  55.540  0.00  0.00    -0.241 NA
ATOM      7  C   UNL d   1      54.888  33.457  54.243  0.00  0.00     0.021 A 
ATOM      8  C   UNL d   1      54.987  33.831  55.839  0.00  0.00     0.099 A 
ATOM      9  C   UNL d   1      55.616  33.950  55.365  0.00  0.00     0.021 A 
ATOM     10  C   UNL d   1      55.584  33.768  54.558  0.00  0.00     0.003 A 
ATOM     11  C   UNL d   1      54.841  33.271  53.448  0.00  0.00     0.002 A 
ATOM     12  C   UNL d   1      54.134  32.960  53.151  0.00  0.00     0.005 A 
ENDBRANCH   1   2
BRANCH   1  13
ATOM     13  N   UNL d   1      52.721  31.718  53.214  0.00  0.00    -0.301 N 
ATOM     14  C   UNL d   1      53.054  31.345  52.563  0.00  0.00     0.100 A 
ATOM     15  C   UNL d   1      52.966  30.523  52.471  0.00  0.00     0.100 A 
ATOM     16  N   UNL d   1      52.554  30.091  53.021  0.00  0.00    -0.299 N 
ATOM     17  C   UNL d   1      52.220  30.465  53.675  0.00  0.00     0.100 A 
ATOM     18  C   UNL d   1      52.464  29.289  52.937  0.00  0.00     0.100 C 
ATOM     19  C   UNL d   1      52.305  31.271  53.766  0.00  0.00     0.100 A 
ENDBRANCH   1  13
BRANCH   1  20
ATOM     20  C   UNL d   1      52.199  33.013  53.062  0.00  0.00     0.035 A 
ATOM     21  C   UNL d   1      51.506  33.050  53.489  0.00  0.00     0.100 A 
ATOM     22  N   UNL d   1      50.885  33.538  53.252  0.00  0.00    -0.242 NA
ATOM     23  C   UNL d   1      50.970  33.997  52.569  0.00  0.00     0.099 A 
ATOM     24  C   UNL d   1      51.664  33.963  52.137  0.00  0.00     0.021 A 
ATOM     25  C   UNL d   1      52.284  33.471  52.380  0.00  0.00     0.005 A 
ENDBRANCH   1  20
TORSDOF 3
ENDMDL
MODEL 6
REMARK VINA RESULT:      -6.9      1.109      3.450
REMARK  3 active torsions:
REMARK  status: ('A' for Active; 'I' for Inactive)
REMARK    1  A    between atoms: C_3  and  C_1 
REMARK    2  A    between atoms: N_4  and  C_3 
REMARK    3  A    between atoms: C_8  and  C_3 
ROOT
ATOM      1  C   UNL d   1      53.294  32.503  53.643  0.00  0.00     0.069 C 
ENDROOT
BRANCH   1   2
ATOM      2  C   UNL d   1      53.280  31.677  53.582  0.00  0.00     0.057 A 
ATOM      3  C   UNL d   1      53.254  31.213  54.265  0.00  0.00     0.214 A 
ATOM      4  C   UNL d   1      53.240  30.398  54.191  0.00  0.00     0.120 A 
ATOM      5  O   UNL d   1      53.242  31.563  55.018  0.00  0.00    -0.285 OA
ATOM      6  N   UNL d   1      53.214  29.921  54.863  0.00  0.00    -0.241 NA
ATOM      7  C   UNL d   1      53.253  30.048  53.437  0.00  0.00     0.021 A 
ATOM      8  C   UNL d   1      53.201  29.099  54.776  0.00  0.00     0.099 A 
ATOM      9  C   UNL d   1      53.213  28.764  54.053  0.00  0.00     0.021 A 
ATOM     10  C   UNL d   1      53.239  29.227  53.367  0.00  0.00     0.003 A 
ATOM     11  C   UNL d   1      53.279  30.519  52.768  0.00  0.00     0.002 A 
ATOM     12  C   UNL d   1      53.292  31.341  52.859  0.00  0.00     0.005 A 
ENDBRANCH   1   2
BRANCH   1  13
ATOM     13  N   UNL d   1      53.953  32.884  53.945  0.00  0.00    -0.301 N 
ATOM     14  C   UNL d   1      54.634  32.935  53.490  0.00  0.00     0.100 A 
ATOM     15  C   UNL d   1      55.305  33.321  53.793  0.00  0.00     0.100 A 
ATOM     16  N   UNL d   1      55.288  33.647  54.537  0.00  0.00    -0.299 N 
ATOM     17  C   UNL d   1      54.605  33.598  54.996  0.00  0.00     0.100 A 
ATOM     18  C   UNL d   1      55.939  34.026  54.840  0.00  0.00     0.100 C 
ATOM     19  C   UNL d   1      53.946  33.218  54.698  0.00  0.00     0.100 A 
ENDBRANCH   1  13
BRANCH   1  20
ATOM     20  C   UNL d   1      52.659  32.956  53.406  0.00  0.00     0.035 A 
ATOM     21  C   UNL d   1      52.016  33.060  53.895  0.00  0.00     0.100 A 
ATOM     22  N   UNL d   1      51.371  33.517  53.661  0.00  0.00    -0.242 NA
ATOM     23  C   UNL d   1      51.380  33.876  52.915  0.00  0.00     0.099 A 
ATOM     24  C   UNL d   1      52.024  33.774  52.420  0.00  0.00     0.021 A 
ATOM     25  C   UNL d   1      52.668  33.315  52.661  0.00  0.00     0.005 A 
ENDBRANCH   1  20
TORSDOF 3
ENDMDL
MODEL 7
REMARK VINA RESULT:      -6.3      1.335      4.039
REMARK  3 active torsions:
REMARK  status: ('A' for Active; 'I' for Inactive)
REMARK    1  A    between atoms: C_3  and  C_1 
REMARK    2  A    between atoms: N_4  and  C_3 
REMARK    3  A    between atoms: C_8  and  C_3 
ROOT
ATOM      1  C   UNL d   1      52.354  33.678  53.330  0.00  0.00     0.069 C 
ENDROOT
BRANCH   1   2
ATOM      2  C   UNL d   1      52.701  32.931  53.239  0.00  0.00     0.057 A 
ATOM      3  C   UNL d   1      52.292  32.254  53.478  0.00  0.00     0.214 A 
ATOM      4  C   UNL d   1      52.646  31.522  53.382  0.00  0.00     0.120 A 
ATOM      5  O   UNL d   1      51.534  32.309  53.811  0.00  0.00    -0.285 OA
ATOM      6  N   UNL d   1      52.250  30.837  53.616  0.00  0.00    -0.241 NA
ATOM      7  C   UNL d   1      53.405  31.467  53.048  0.00  0.00     0.021 A 
ATOM      8  C   UNL d   1      52.618  30.103  53.514  0.00  0.00     0.099 A 
ATOM      9  C   UNL d   1      53.346  30.051  53.194  0.00  0.00     0.021 A 
ATOM     10  C   UNL d   1      53.758  30.728  52.954  0.00  0.00     0.003 A 
ATOM     11  C   UNL d   1      53.799  32.146  52.815  0.00  0.00     0.002 A 
ATOM     12  C   UNL d   1      53.429  32.878  52.919  0.00  0.00     0.005 A 
ENDBRANCH   1   2
BRANCH   1  13
ATOM     13  N   UNL d   1      51.687  33.880  52.899  0.00  0.00    -0.301 N 
ATOM     14  C   UNL d   1      51.759  34.041  52.098  0.00  0.00     0.100 A 
ATOM     15  C   UNL d   1      51.084  34.247  51.658  0.00  0.00     0.100 A 
ATOM     16  N   UNL d   1      50.357  34.288  52.017  0.00  0.00    -0.299 N 
ATOM     17  C   UNL d   1      50.283  34.126  52.822  0.00  0.00     0.100 A 
ATOM     18  C   UNL d   1      49.694  34.489  51.594  0.00  0.00     0.100 C 
ATOM     19  C   UNL d   1      50.946  33.924  53.255  0.00  0.00     0.100 A 
ENDBRANCH   1  13
BRANCH   1  20
ATOM     20  C   UNL d   1      52.663  34.228  53.847  0.00  0.00     0.035 A 
ATOM     21  C   UNL d   1      52.625  34.110  54.652  0.00  0.00     0.100 A 
ATOM     22  N   UNL d   1      52.936  34.664  55.179  0.00  0.00    -0.242 NA
ATOM     23  C   UNL d   1      53.292  35.349  54.882  0.00  0.00     0.099 A 
ATOM     24  C   UNL d   1      53.333  35.471  54.073  0.00  0.00     0.021 A 
ATOM     25  C   UNL d   1      53.019  34.912  53.549  0.00  0.00     0.005 A 
ENDBRANCH   1  20
TORSDOF 3
ENDMDL
MODEL 8
REMARK VINA RESULT:      -6.3      1.473      2.910
REMARK  3 active torsions:
REMARK  status: ('A' for Active; 'I' for Inactive)
REMARK    1  A    between atoms: C_3  and  C_1 
REMARK    2  A    between atoms: N_4  and  C_3 
REMARK    3  A    between atoms: C_8  and  C_3 
ROOT
ATOM      1  C   UNL d   1      52.572  33.815  53.434  0.00  0.00     0.069 C 
ENDROOT
BRANCH   1   2
ATOM      2  C   UNL d   1      51.962  33.984  52.899  0.00  0.00     0.057 A 
ATOM      3  C   UNL d   1      51.178  33.994  53.158  0.00  0.00     0.214 A 
ATOM      4  C   UNL d   1      50.585  34.163  52.619  0.00  0.00     0.120 A 
ATOM      5  O   UNL d   1      50.988  33.836  53.950  0.00  0.00    -0.285 OA
ATOM      6  N   UNL d   1      49.796  34.176  52.862  0.00  0.00    -0.241 NA
ATOM      7  C   UNL d   1      50.775  34.321  51.826  0.00  0.00     0.021 A 
ATOM      8  C   UNL d   1      49.206  34.348  52.309  0.00  0.00     0.099 A 
ATOM      9  C   UNL d   1      49.389  34.500  51.548  0.00  0.00     0.021 A 
ATOM     10  C   UNL d   1      50.175  34.491  51.287  0.00  0.00     0.003 A 
ATOM     11  C   UNL d   1      51.557  34.309  51.583  0.00  0.00     0.002 A 
ATOM     12  C   UNL d   1      52.145  34.136  52.139  0.00  0.00     0.005 A 
ENDBRANCH   1   2
BRANCH   1  13
ATOM     13  N   UNL d   1      52.901  33.066  53.463  0.00  0.00    -0.301 N 
ATOM     14  C   UNL d   1      53.632  32.933  53.113  0.00  0.00     0.100 A 
ATOM     15  C   UNL d   1      53.969  32.173  53.141  0.00  0.00     0.100 A 
ATOM     16  N   UNL d   1      53.578  31.565  53.511  0.00  0.00    -0.299 N 
ATOM     17  C   UNL d   1      52.845  31.697  53.863  0.00  0.00     0.100 A 
ATOM     18  C   UNL d   1      53.902  30.821  53.542  0.00  0.00     0.100 C 
ATOM     19  C   UNL d   1      52.513  32.442  53.837  0.00  0.00     0.100 A 
ENDBRANCH   1  13
BRANCH   1  20
ATOM     20  C   UNL d   1      52.859  34.384  53.943  0.00  0.00     0.035 A 
ATOM     21  C   UNL d   1      52.814  34.283  54.750  0.00  0.00     0.100 A 
ATOM     22  N   UNL d   1      53.103  34.856  55.269  0.00  0.00    -0.242 NA
ATOM     23  C   UNL d   1      53.445  35.543  54.961  0.00  0.00     0.099 A 
ATOM     24  C   UNL d   1      53.493  35.649  54.151  0.00  0.00     0.021 A 
ATOM     25  C   UNL d   1      53.201  35.072  53.636  0.00  0.00     0.005 A 
ENDBRANCH   1  20
TORSDOF 3
ENDMDL
MODEL 9
REMARK VINA RESULT:      -5.6      1.370      3.252
REMARK  3 active torsions:
REMARK  status: ('A' for Active; 'I' for Inactive)
REMARK    1  A    between atoms: C_3  and  C_1 
REMARK    2  A    between atoms: N_4  and  C_3 
REMARK    3  A    between atoms: C_8  and  C_3 
ROOT
ATOM      1  C   UNL d   1      51.791  33.626  53.099  0.00  0.00     0.069 C 
ENDROOT
BRANCH   1   2
ATOM      2  C   UNL d   1      51.927  32.812  53.173  0.00  0.00     0.057 A 
ATOM      3  C   UNL d   1      52.586  32.470  52.811  0.00  0.00     0.214 A 
ATOM      4  C   UNL d   1      52.710  31.665  52.892  0.00  0.00     0.120 A 
ATOM      5  O   UNL d   1      53.118  32.930  52.370  0.00  0.00    -0.285 OA
ATOM      6  N   UNL d   1      53.364  31.308  52.536  0.00  0.00    -0.241 NA
ATOM      7  C   UNL d   1      52.178  31.204  53.333  0.00  0.00     0.021 A 
ATOM      8  C   UNL d   1      53.478  30.494  52.625  0.00  0.00     0.099 A 
ATOM      9  C   UNL d   1      52.967  30.052  53.048  0.00  0.00     0.021 A 
ATOM     10  C   UNL d   1      52.306  30.393  53.412  0.00  0.00     0.003 A 
ATOM     11  C   UNL d   1      51.528  31.555  53.686  0.00  0.00     0.002 A 
ATOM     12  C   UNL d   1      51.416  32.370  53.596  0.00  0.00     0.005 A 
ENDBRANCH   1   2
BRANCH   1  13
ATOM     13  N   UNL d   1      52.239  34.162  53.526  0.00  0.00    -0.301 N 
ATOM     14  C   UNL d   1      52.147  34.204  54.341  0.00  0.00     0.100 A 
ATOM     15  C   UNL d   1      52.600  34.747  54.778  0.00  0.00     0.100 A 
ATOM     16  N   UNL d   1      53.131  35.233  54.403  0.00  0.00    -0.299 N 
ATOM     17  C   UNL d   1      53.225  35.192  53.585  0.00  0.00     0.100 A 
ATOM     18  C   UNL d   1      53.578  35.765  54.823  0.00  0.00     0.100 C 
ATOM     19  C   UNL d   1      52.780  34.659  53.155  0.00  0.00     0.100 A 
ENDBRANCH   1  13
BRANCH   1  20
ATOM     20  C   UNL d   1      51.211  33.914  52.603  0.00  0.00     0.035 A 
ATOM     21  C   UNL d   1      51.368  34.053  51.815  0.00  0.00     0.100 A 
ATOM     22  N   UNL d   1      50.786  34.344  51.309  0.00  0.00    -0.242 NA
ATOM     23  C   UNL d   1      50.030  34.498  51.609  0.00  0.00     0.099 A 
ATOM     24  C   UNL d   1      49.868  34.361  52.399  0.00  0.00     0.021 A 
ATOM     25  C   UNL d   1      50.456  34.068  52.902  0.00  0.00     0.005 A 
ENDBRANCH   1  20
TORSDOF 3
ENDMDL
