MODEL 1
REMARK VINA RESULT:      15.1      0.000      0.000
REMARK  3 active torsions:
REMARK  status: ('A' for Active; 'I' for Inactive)
REMARK    1  A    between atoms: N_5  and  C_1 
REMARK    2  A    between atoms: C_8  and  C_2 
REMARK       I    between atoms: C_7  and  N_5 
REMARK       I    between atoms: N_9  and  C_7 
REMARK    3  A    between atoms: C_13  and  N_9 
ROOT
ATOM      1  C   UNL d   1      45.339 -15.417  44.456  0.00  0.00     0.120 A 
ATOM      2  C   UNL d   1      45.458 -14.601  44.420  0.00  0.00     0.084 A 
ATOM      3  S   UNL d   1      44.559 -15.516  44.663  0.00  0.00    -0.068 SA
ATOM      4  C   UNL d   1      44.767 -14.242  44.599  0.00  0.00     0.013 A 
ATOM      5  C   UNL d   1      44.221 -14.791  44.747  0.00  0.00     0.031 A 
ATOM      6  C   UNL d   1      44.633 -13.407  44.629  0.00  0.00     0.001 C 
ATOM      7  C   UNL d   1      43.429 -14.622  44.954  0.00  0.00     0.007 C 
ENDROOT
BRANCH   1   8
ATOM      8  N   UNL d   1      46.297 -16.403  44.210  0.00  0.00    -0.184 NA
ATOM      9  C   UNL d   1      46.088 -17.115  43.886  0.00  0.00     0.369 C 
ATOM     10  N   UNL d   1      46.645 -17.710  43.735  0.00  0.00    -0.191 NA
ATOM     11  O   UNL d   1      45.294 -17.250  43.702  0.00  0.00    -0.242 OA
BRANCH  10  12
ATOM     12  C   UNL d   1      46.420 -18.418  43.410  0.00  0.00     0.086 A 
ATOM     13  C   UNL d   1      46.493 -18.545  42.592  0.00  0.00     0.019 A 
ATOM     14  C   UNL d   1      46.273 -19.243  42.258  0.00  0.00     0.002 A 
ATOM     15  C   UNL d   1      45.969 -19.849  42.733  0.00  0.00     0.000 A 
ATOM     16  C   UNL d   1      45.891 -19.733  43.557  0.00  0.00     0.002 A 
ATOM     17  C   UNL d   1      46.124 -19.007  43.873  0.00  0.00     0.019 A 
ENDBRANCH  10  12
ENDBRANCH   1   8
BRANCH   2  18
ATOM     18  C   UNL d   1      46.175 -14.226  44.228  0.00  0.00     0.299 C 
ATOM     19  O   UNL d   1      46.448 -14.214  43.444  0.00  0.00    -0.264 OA
ATOM     20  N   UNL d   1      46.633 -13.857  44.817  0.00  0.00    -0.102 N 
ENDBRANCH   2  18
TORSDOF 3
ENDMDL
MODEL 2
REMARK VINA RESULT:      15.6      1.370      4.838
REMARK  3 active torsions:
REMARK  status: ('A' for Active; 'I' for Inactive)
REMARK    1  A    between atoms: N_5  and  C_1 
REMARK    2  A    between atoms: C_8  and  C_2 
REMARK       I    between atoms: C_7  and  N_5 
REMARK       I    between atoms: N_9  and  C_7 
REMARK    3  A    between atoms: C_13  and  N_9 
ROOT
ATOM      1  C   UNL d   1      46.265 -18.309  43.398  0.00  0.00     0.120 A 
ATOM      2  C   UNL d   1      46.358 -19.127  43.447  0.00  0.00     0.084 A 
ATOM      3  S   UNL d   1      46.360 -18.123  42.612  0.00  0.00    -0.068 SA
ATOM      4  C   UNL d   1      46.502 -19.404  42.712  0.00  0.00     0.013 A 
ATOM      5  C   UNL d   1      46.504 -18.801  42.204  0.00  0.00     0.031 A 
ATOM      6  C   UNL d   1      46.633 -20.214  42.501  0.00  0.00     0.001 C 
ATOM      7  C   UNL d   1      46.637 -18.879  41.382  0.00  0.00     0.007 C 
ENDROOT
BRANCH   1   8
ATOM      8  N   UNL d   1      46.000 -17.443  44.462  0.00  0.00    -0.184 NA
ATOM      9  C   UNL d   1      45.873 -16.654  44.334  0.00  0.00     0.369 C 
ATOM     10  N   UNL d   1      45.714 -16.128  44.955  0.00  0.00    -0.191 NA
ATOM     11  O   UNL d   1      45.903 -16.366  43.560  0.00  0.00    -0.242 OA
BRANCH  10  12
ATOM     12  C   UNL d   1      45.589 -15.339  44.811  0.00  0.00     0.086 A 
ATOM     13  C   UNL d   1      44.816 -15.045  44.740  0.00  0.00     0.019 A 
ATOM     14  C   UNL d   1      44.679 -14.264  44.597  0.00  0.00     0.002 A 
ATOM     15  C   UNL d   1      45.316 -13.742  44.519  0.00  0.00     0.000 A 
ATOM     16  C   UNL d   1      46.100 -14.027  44.589  0.00  0.00     0.002 A 
ATOM     17  C   UNL d   1      46.211 -14.832  44.735  0.00  0.00     0.019 A 
ENDBRANCH  10  12
ENDBRANCH   1   8
BRANCH   2  18
ATOM     18  C   UNL d   1      46.309 -19.578  44.144  0.00  0.00     0.299 C 
ATOM     19  O   UNL d   1      46.647 -19.300  44.850  0.00  0.00    -0.264 OA
ATOM     20  N   UNL d   1      45.921 -20.314  44.149  0.00  0.00    -0.102 N 
ENDBRANCH   2  18
TORSDOF 3
ENDMDL
MODEL 3
REMARK VINA RESULT:      16.8      1.425      4.696
REMARK  3 active torsions:
REMARK  status: ('A' for Active; 'I' for Inactive)
REMARK    1  A    between atoms: N_5  and  C_1 
REMARK    2  A    between atoms: C_8  and  C_2 
REMARK       I    between atoms: C_7  and  N_5 
REMARK       I    between atoms: N_9  and  C_7 
REMARK    3  A    between atoms: C_13  and  N_9 
ROOT
ATOM      1  C   UNL d   1      46.572 -18.187  43.476  0.00  0.00     0.120 A 
ATOM      2  C   UNL d   1      46.597 -18.850  42.985  0.00  0.00     0.084 A 
ATOM      3  S   UNL d   1      46.549 -18.475  44.235  0.00  0.00    -0.068 SA
ATOM      4  C   UNL d   1      46.588 -19.500  43.449  0.00  0.00     0.013 A 
ATOM      5  C   UNL d   1      46.559 -19.279  44.205  0.00  0.00     0.031 A 
ATOM      6  C   UNL d   1      46.607 -20.303  43.181  0.00  0.00     0.001 C 
ATOM      7  C   UNL d   1      46.543 -19.811  44.850  0.00  0.00     0.007 C 
ENDROOT
BRANCH   1   8
ATOM      8  N   UNL d   1      46.571 -16.853  43.060  0.00  0.00    -0.184 NA
ATOM      9  C   UNL d   1      46.187 -16.284  43.490  0.00  0.00     0.369 C 
ATOM     10  N   UNL d   1      46.178 -15.488  43.257  0.00  0.00    -0.191 NA
ATOM     11  O   UNL d   1      45.794 -16.505  44.182  0.00  0.00    -0.242 OA
BRANCH  10  12
ATOM     12  C   UNL d   1      45.789 -14.929  43.697  0.00  0.00     0.086 A 
ATOM     13  C   UNL d   1      45.639 -14.177  43.380  0.00  0.00     0.019 A 
ATOM     14  C   UNL d   1      45.254 -13.614  43.808  0.00  0.00     0.002 A 
ATOM     15  C   UNL d   1      45.002 -13.783  44.577  0.00  0.00     0.000 A 
ATOM     16  C   UNL d   1      45.147 -14.537  44.908  0.00  0.00     0.002 A 
ATOM     17  C   UNL d   1      45.543 -15.095  44.447  0.00  0.00     0.019 A 
ENDBRANCH  10  12
ENDBRANCH   1   8
BRANCH   2  18
ATOM     18  C   UNL d   1      46.626 -18.835  42.154  0.00  0.00     0.299 C 
ATOM     19  O   UNL d   1      46.645 -19.543  41.721  0.00  0.00    -0.264 OA
ATOM     20  N   UNL d   1      46.636 -18.113  41.741  0.00  0.00    -0.102 N 
ENDBRANCH   2  18
TORSDOF 3
ENDMDL
