MODEL 1
REMARK VINA RESULT:      68.4      0.000      0.000
REMARK  7 active torsions:
REMARK  status: ('A' for Active; 'I' for Inactive)
REMARK    1  A    between atoms: N_4  and  S_1 
REMARK    2  A    between atoms: C_8  and  S_1 
REMARK    3  A    between atoms: N_2  and  C_3 
REMARK    4  A    between atoms: C_3  and  C_6 
REMARK    5  A    between atoms: C_7  and  C_3 
REMARK    6  A    between atoms: C_6  and  N_4 
REMARK    7  A    between atoms: C_17  and  N_5 
ROOT
ATOM      1  C   UNL d   1     -58.051 -98.781 -43.679  0.00  0.00     0.107 C 
ENDROOT
BRANCH   1   2
ATOM      2  N   UNL d   1     -58.269 -98.790 -44.475  0.00  0.00    -0.298 N 
ATOM      3  C   UNL d   1     -59.066 -98.755 -44.686  0.00  0.00     0.100 A 
ATOM      4  C   UNL d   1     -59.284 -98.765 -45.482  0.00  0.00     0.100 A 
ATOM      5  N   UNL d   1     -58.704 -98.809 -46.067  0.00  0.00    -0.301 N 
ATOM      6  C   UNL d   1     -57.910 -98.843 -45.853  0.00  0.00     0.100 A 
ATOM      7  C   UNL d   1     -57.689 -98.834 -45.060  0.00  0.00     0.100 A 
BRANCH   5   8
ATOM      8  C   UNL d   1     -58.921 -98.818 -46.857  0.00  0.00     0.064 A 
ATOM      9  C   UNL d   1     -58.350 -98.777 -47.443  0.00  0.00     0.018 A 
ATOM     10  C   UNL d   1     -58.566 -98.786 -48.238  0.00  0.00     0.002 A 
ATOM     11  C   UNL d   1     -59.363 -98.837 -48.444  0.00  0.00     0.000 A 
ATOM     12  C   UNL d   1     -59.940 -98.879 -47.855  0.00  0.00     0.002 A 
ATOM     13  C   UNL d   1     -59.718 -98.870 -47.063  0.00  0.00     0.018 A 
ENDBRANCH   5   8
ENDBRANCH   1   2
BRANCH   1  14
ATOM     14  C   UNL d   1     -57.256 -98.759 -43.453  0.00  0.00     0.132 C 
BRANCH  14  15
ATOM     15  N   UNL d   1     -56.758 -99.405 -43.648  0.00  0.00    -0.155 NA
BRANCH  15  16
ATOM     16  S   UNL d   1     -55.958 -99.373 -43.468  0.00  0.00     0.285 S 
ATOM     17  O   UNL d   1     -55.149 -99.348 -43.293  0.00  0.00    -0.198 OA
ATOM     18  O   UNL d   1     -56.102 -98.770 -42.916  0.00  0.00    -0.198 OA
BRANCH  16  19
ATOM     19  C   UNL d   1     -55.818 -99.977 -44.021  0.00  0.00     0.105 A 
ATOM     20  C   UNL d   1     -55.391 -99.817 -44.709  0.00  0.00     0.015 A 
ATOM     21  C   UNL d   1     -55.247-100.411 -45.264  0.00  0.00     0.030 A 
ATOM     22  C   UNL d   1     -55.542-101.178 -45.119  0.00  0.00     0.140 A 
ATOM     23  C   UNL d   1     -55.969-101.338 -44.432  0.00  0.00     0.030 A 
ATOM     24  F   UNL d   1     -55.400-101.786 -45.679  0.00  0.00    -0.204 F 
ATOM     25  C   UNL d   1     -56.107-100.737 -43.883  0.00  0.00     0.015 A 
ENDBRANCH  16  19
ENDBRANCH  15  16
ENDBRANCH  14  15
ENDBRANCH   1  14
BRANCH   1  26
ATOM     26  C   UNL d   1     -58.644 -98.793 -43.086  0.00  0.00     0.118 A 
ATOM     27  O   UNL d   1     -59.438 -98.848 -43.292  0.00  0.00    -0.304 OA
ATOM     28  C   UNL d   1     -59.885 -98.848 -42.593  0.00  0.00     0.123 A 
ATOM     29  C   UNL d   1     -59.368 -98.794 -41.965  0.00  0.00     0.029 A 
ATOM     30  C   UNL d   1     -58.599 -98.760 -42.267  0.00  0.00     0.028 A 
ENDBRANCH   1  26
TORSDOF 7
ENDMDL
