MODEL 1
REMARK VINA RESULT:      -3.3      0.000      0.000
REMARK  7 active torsions:
REMARK  status: ('A' for Active; 'I' for Inactive)
REMARK    1  A    between atoms: S_2  and  C_1 
REMARK    2  A    between atoms: C_7  and  S_2 
REMARK    3  A    between atoms: C_9  and  N_3 
REMARK    4  A    between atoms: C_11  and  C_7 
REMARK    5  A    between atoms: C_8  and  C_9 
REMARK       I    between atoms: N_10  and  C_8 
REMARK       I    between atoms: N_15  and  C_11 
REMARK    6  A    between atoms: C_12  and  C_16 
REMARK    7  A    between atoms: C_23  and  N_15 
ROOT
ATOM      1  C   UNL d   1      58.847  -0.354  29.427  0.00  0.00     0.107 A 
ATOM      2  N   UNL d   1      59.359  -1.441  28.856  0.00  0.00    -0.299 N 
ATOM      3  C   UNL d   1      58.690  -1.144  29.231  0.00  0.00     0.092 A 
ATOM      4  C   UNL d   1      59.609  -0.173  29.171  0.00  0.00     0.028 A 
ATOM      5  C   UNL d   1      59.924  -0.850  28.817  0.00  0.00     0.065 A 
ATOM      6  C   UNL d   1      60.053   0.516  29.215  0.00  0.00     0.002 A 
ATOM      7  C   UNL d   1      60.688  -0.827  28.508  0.00  0.00     0.018 A 
ATOM      8  C   UNL d   1      60.821   0.540  28.906  0.00  0.00     0.000 A 
ATOM      9  C   UNL d   1      61.133  -0.137  28.552  0.00  0.00     0.002 A 
ENDROOT
BRANCH   1  10
ATOM     10  S   UNL d   1      58.327   0.161  29.813  0.00  0.00     0.217 S 
ATOM     11  O   UNL d   1      58.806   0.220  30.473  0.00  0.00    -0.217 OA
ATOM     12  O   UNL d   1      57.842   0.099  29.140  0.00  0.00    -0.217 OA
BRANCH  10  13
ATOM     13  C   UNL d   1      57.802   0.678  30.194  0.00  0.00     0.161 C 
BRANCH  13  14
ATOM     14  C   UNL d   1      57.527   0.499  30.939  0.00  0.00     0.291 C 
ATOM     15  N   UNL d   1      56.756   0.228  31.046  0.00  0.00    -0.207 NA
ATOM     16  O   UNL d   1      58.023   0.590  31.596  0.00  0.00    -0.264 OA
BRANCH  15  17
ATOM     17  C   UNL d   1      56.481   0.048  31.802  0.00  0.00     0.085 A 
ATOM     18  C   UNL d   1      56.301   0.654  32.336  0.00  0.00     0.019 A 
ATOM     19  C   UNL d   1      56.026   0.482  33.090  0.00  0.00     0.006 A 
ATOM     20  C   UNL d   1      55.926  -0.309  33.326  0.00  0.00     0.059 A 
ATOM     21  C   UNL d   1      56.103  -0.923  32.801  0.00  0.00     0.006 A 
ATOM     22  C   UNL d   1      56.383  -0.744  32.034  0.00  0.00     0.019 A 
BRANCH  20  23
ATOM     23  C   UNL d   1      55.654  -0.491  34.075  0.00  0.00     0.297 C 
ATOM     24  O   UNL d   1      55.233   0.065  34.522  0.00  0.00    -0.264 OA
ATOM     25  N   UNL d   1      55.802  -1.250  34.396  0.00  0.00    -0.102 N 
ENDBRANCH  20  23
ENDBRANCH  15  17
ENDBRANCH  13  14
ENDBRANCH  10  13
ENDBRANCH   1  10
BRANCH   2  26
ATOM     26  C   UNL d   1      59.444  -2.208  28.567  0.00  0.00     0.142 C 
BRANCH  26  27
ATOM     27  C   UNL d   1      58.794  -2.711  28.535  0.00  0.00     0.282 C 
ATOM     28  N   UNL d   1      58.905  -3.527  28.511  0.00  0.00    -0.271 N 
ATOM     29  C   UNL d   1      59.667  -3.848  28.519  0.00  0.00     0.083 A 
ATOM     30  C   UNL d   1      58.256  -4.030  28.479  0.00  0.00     0.083 A 
ATOM     31  C   UNL d   1      59.778  -4.668  28.495  0.00  0.00     0.019 A 
ATOM     32  C   UNL d   1      59.127  -5.167  28.463  0.00  0.00     0.003 A 
ATOM     33  C   UNL d   1      58.368  -4.854  28.455  0.00  0.00     0.019 A 
ATOM     34  O   UNL d   1      58.035  -2.398  28.527  0.00  0.00    -0.265 OA
ENDBRANCH  26  27
ENDBRANCH   2  26
TORSDOF 7
ENDMDL
