MODEL 1
REMARK VINA RESULT:      -7.0      0.000      0.000
REMARK  6 active torsions:
REMARK  status: ('A' for Active; 'I' for Inactive)
REMARK    1  A    between atoms: C_16  and  N_1 
REMARK    2  A    between atoms: C_11  and  C_2 
REMARK    3  A    between atoms: S_15  and  C_3 
REMARK    4  A    between atoms: C_8  and  C_11 
REMARK    5  A    between atoms: C_13  and  C_17 
REMARK       I    between atoms: N_14  and  C_13 
REMARK    6  A    between atoms: C_17  and  S_15 
ROOT
ATOM      1  N   UNL d   1     -47.102  12.965  22.827  0.00  0.00    -0.269 N 
ATOM      2  C   UNL d   1     -46.297  12.930  22.658  0.00  0.00     0.172 A 
ATOM      3  C   UNL d   1     -47.297  13.747  22.925  0.00  0.00     0.201 A 
ATOM      4  N   UNL d   1     -46.008  13.697  22.655  0.00  0.00    -0.128 NA
ATOM      5  N   UNL d   1     -46.635  14.208  22.823  0.00  0.00    -0.121 NA
ENDROOT
BRANCH   2   6
ATOM      6  C   UNL d   1     -45.938  12.211  22.531  0.00  0.00     0.059 C 
BRANCH   6   7
ATOM      7  C   UNL d   1     -45.121  12.176  22.426  0.00  0.00     0.094 A 
ATOM      8  C   UNL d   1     -44.765  12.610  21.825  0.00  0.00     0.082 A 
ATOM      9  C   UNL d   1     -43.945  12.574  21.722  0.00  0.00     0.285 A 
ATOM     10  O   UNL d   1     -43.574  13.017  21.108  0.00  0.00    -0.265 OA
ATOM     11  N   UNL d   1     -43.492  12.094  22.233  0.00  0.00    -0.152 NA
ATOM     12  C   UNL d   1     -43.849  11.664  22.828  0.00  0.00     0.371 A 
ATOM     13  N   UNL d   1     -44.675  11.705  22.927  0.00  0.00    -0.191 NA
ATOM     14  O   UNL d   1     -43.389  11.192  23.327  0.00  0.00    -0.242 OA
ENDBRANCH   6   7
ENDBRANCH   2   6
BRANCH   1  15
ATOM     15  C   UNL d   1     -47.636  12.346  22.892  0.00  0.00     0.067 A 
ATOM     16  C   UNL d   1     -47.767  11.992  23.630  0.00  0.00     0.018 A 
ATOM     17  C   UNL d   1     -48.310  11.363  23.698  0.00  0.00     0.002 A 
ATOM     18  C   UNL d   1     -48.713  11.098  23.028  0.00  0.00     0.000 A 
ATOM     19  C   UNL d   1     -48.579  11.456  22.293  0.00  0.00     0.002 A 
ATOM     20  C   UNL d   1     -48.041  12.078  22.227  0.00  0.00     0.018 A 
ENDBRANCH   1  15
BRANCH   3  21
ATOM     21  S   UNL d   1     -48.071  14.032  23.106  0.00  0.00    -0.043 SA
BRANCH  21  22
ATOM     22  C   UNL d   1     -48.385  14.674  22.672  0.00  0.00     0.099 C 
BRANCH  22  23
ATOM     23  C   UNL d   1     -49.048  15.076  22.962  0.00  0.00     0.271 C 
ATOM     24  N   UNL d   1     -49.771  15.018  22.560  0.00  0.00    -0.272 N 
ATOM     25  C   UNL d   1     -49.986  14.604  21.868  0.00  0.00     0.083 A 
ATOM     26  C   UNL d   1     -50.440  15.416  22.841  0.00  0.00     0.083 A 
ATOM     27  C   UNL d   1     -50.785  14.750  21.729  0.00  0.00     0.021 A 
ATOM     28  C   UNL d   1     -51.063  15.251  22.330  0.00  0.00     0.021 A 
ATOM     29  O   UNL d   1     -48.996  15.537  23.650  0.00  0.00    -0.266 OA
ENDBRANCH  22  23
ENDBRANCH  21  22
ENDBRANCH   3  21
TORSDOF 6
ENDMDL
MODEL 2
REMARK VINA RESULT:      -6.8      1.121      5.078
REMARK  6 active torsions:
REMARK  status: ('A' for Active; 'I' for Inactive)
REMARK    1  A    between atoms: C_16  and  N_1 
REMARK    2  A    between atoms: C_11  and  C_2 
REMARK    3  A    between atoms: S_15  and  C_3 
REMARK    4  A    between atoms: C_8  and  C_11 
REMARK    5  A    between atoms: C_13  and  C_17 
REMARK       I    between atoms: N_14  and  C_13 
REMARK    6  A    between atoms: C_17  and  S_15 
ROOT
ATOM      1  N   UNL d   1     -47.864  13.008  22.857  0.00  0.00    -0.269 N 
ATOM      2  C   UNL d   1     -48.382  13.642  22.777  0.00  0.00     0.172 A 
ATOM      3  C   UNL d   1     -47.109  13.309  22.871  0.00  0.00     0.201 A 
ATOM      4  N   UNL d   1     -47.936  14.328  22.744  0.00  0.00    -0.128 NA
ATOM      5  N   UNL d   1     -47.139  14.119  22.802  0.00  0.00    -0.121 NA
ENDROOT
BRANCH   2   6
ATOM      6  C   UNL d   1     -49.185  13.511  22.747  0.00  0.00     0.059 C 
BRANCH   6   7
ATOM      7  C   UNL d   1     -49.697  14.145  22.625  0.00  0.00     0.094 A 
ATOM      8  C   UNL d   1     -49.803  14.707  23.215  0.00  0.00     0.082 A 
ATOM      9  C   UNL d   1     -50.317  15.342  23.091  0.00  0.00     0.285 A 
ATOM     10  O   UNL d   1     -50.431  15.922  23.693  0.00  0.00    -0.265 OA
ATOM     11  N   UNL d   1     -50.722  15.402  22.363  0.00  0.00    -0.152 NA
ATOM     12  C   UNL d   1     -50.614  14.843  21.779  0.00  0.00     0.371 A 
ATOM     13  N   UNL d   1     -50.094  14.205  21.910  0.00  0.00    -0.191 NA
ATOM     14  O   UNL d   1     -51.020  14.912  21.061  0.00  0.00    -0.242 OA
ENDBRANCH   6   7
ENDBRANCH   2   6
BRANCH   1  15
ATOM     15  C   UNL d   1     -48.041  12.208  22.914  0.00  0.00     0.067 A 
ATOM     16  C   UNL d   1     -48.013  11.732  22.236  0.00  0.00     0.018 A 
ATOM     17  C   UNL d   1     -48.192  10.920  22.291  0.00  0.00     0.002 A 
ATOM     18  C   UNL d   1     -48.396  10.597  23.023  0.00  0.00     0.000 A 
ATOM     19  C   UNL d   1     -48.422  11.077  23.698  0.00  0.00     0.002 A 
ATOM     20  C   UNL d   1     -48.245  11.881  23.641  0.00  0.00     0.018 A 
ENDBRANCH   1  15
BRANCH   3  21
ATOM     21  S   UNL d   1     -46.407  12.846  22.946  0.00  0.00    -0.043 SA
BRANCH  21  22
ATOM     22  C   UNL d   1     -45.725  13.061  22.512  0.00  0.00     0.099 C 
BRANCH  22  23
ATOM     23  C   UNL d   1     -45.044  12.593  22.565  0.00  0.00     0.271 C 
ATOM     24  N   UNL d   1     -44.418  12.720  22.037  0.00  0.00    -0.272 N 
ATOM     25  C   UNL d   1     -44.324  13.266  21.413  0.00  0.00     0.083 A 
ATOM     26  C   UNL d   1     -43.733  12.258  22.081  0.00  0.00     0.083 A 
ATOM     27  C   UNL d   1     -43.582  13.136  21.077  0.00  0.00     0.021 A 
ATOM     28  C   UNL d   1     -43.219  12.514  21.491  0.00  0.00     0.021 A 
ATOM     29  O   UNL d   1     -44.982  11.999  23.141  0.00  0.00    -0.266 OA
ENDBRANCH  22  23
ENDBRANCH  21  22
ENDBRANCH   3  21
TORSDOF 6
ENDMDL
MODEL 3
REMARK VINA RESULT:      -6.2      7.867      9.763
REMARK  6 active torsions:
REMARK  status: ('A' for Active; 'I' for Inactive)
REMARK    1  A    between atoms: C_16  and  N_1 
REMARK    2  A    between atoms: C_11  and  C_2 
REMARK    3  A    between atoms: S_15  and  C_3 
REMARK    4  A    between atoms: C_8  and  C_11 
REMARK    5  A    between atoms: C_13  and  C_17 
REMARK       I    between atoms: N_14  and  C_13 
REMARK    6  A    between atoms: C_17  and  S_15 
ROOT
ATOM      1  N   UNL d   1     -39.239  14.755  19.571  0.00  0.00    -0.269 N 
ATOM      2  C   UNL d   1     -38.884  14.595  20.296  0.00  0.00     0.172 A 
ATOM      3  C   UNL d   1     -38.657  14.738  19.004  0.00  0.00     0.201 A 
ATOM      4  N   UNL d   1     -38.084  14.482  20.163  0.00  0.00    -0.128 NA
ATOM      5  N   UNL d   1     -37.942  14.572  19.354  0.00  0.00    -0.121 NA
ENDROOT
BRANCH   2   6
ATOM      6  C   UNL d   1     -39.333  14.573  20.974  0.00  0.00     0.059 C 
BRANCH   6   7
ATOM      7  C   UNL d   1     -38.976  14.390  21.693  0.00  0.00     0.094 A 
ATOM      8  C   UNL d   1     -38.741  14.991  22.202  0.00  0.00     0.082 A 
ATOM      9  C   UNL d   1     -38.383  14.804  22.923  0.00  0.00     0.285 A 
ATOM     10  O   UNL d   1     -38.140  15.417  23.449  0.00  0.00    -0.265 OA
ATOM     11  N   UNL d   1     -38.266  14.002  23.124  0.00  0.00    -0.152 NA
ATOM     12  C   UNL d   1     -38.501  13.407  22.617  0.00  0.00     0.371 A 
ATOM     13  N   UNL d   1     -38.861  13.602  21.891  0.00  0.00    -0.191 NA
ATOM     14  O   UNL d   1     -38.379  12.616  22.826  0.00  0.00    -0.242 OA
ENDBRANCH   6   7
ENDBRANCH   2   6
BRANCH   1  15
ATOM     15  C   UNL d   1     -40.030  14.907  19.413  0.00  0.00     0.067 A 
ATOM     16  C   UNL d   1     -40.515  14.300  19.121  0.00  0.00     0.018 A 
ATOM     17  C   UNL d   1     -41.319  14.452  18.960  0.00  0.00     0.002 A 
ATOM     18  C   UNL d   1     -41.625  15.207  19.093  0.00  0.00     0.000 A 
ATOM     19  C   UNL d   1     -41.136  15.810  19.384  0.00  0.00     0.002 A 
ATOM     20  C   UNL d   1     -40.341  15.657  19.543  0.00  0.00     0.018 A 
ENDBRANCH   1  15
BRANCH   3  21
ATOM     21  S   UNL d   1     -38.783  14.874  18.181  0.00  0.00    -0.043 SA
BRANCH  21  22
ATOM     22  C   UNL d   1     -38.183  14.672  17.635  0.00  0.00     0.099 C 
BRANCH  22  23
ATOM     23  C   UNL d   1     -38.193  15.003  16.876  0.00  0.00     0.271 C 
ATOM     24  N   UNL d   1     -38.103  14.512  16.214  0.00  0.00    -0.272 N 
ATOM     25  C   UNL d   1     -37.996  13.687  16.148  0.00  0.00     0.083 A 
ATOM     26  C   UNL d   1     -38.112  14.832  15.450  0.00  0.00     0.083 A 
ATOM     27  C   UNL d   1     -37.940  13.506  15.346  0.00  0.00     0.021 A 
ATOM     28  C   UNL d   1     -38.012  14.213  14.917  0.00  0.00     0.021 A 
ATOM     29  O   UNL d   1     -38.293  15.820  16.771  0.00  0.00    -0.266 OA
ENDBRANCH  22  23
ENDBRANCH  21  22
ENDBRANCH   3  21
TORSDOF 6
ENDMDL
MODEL 4
REMARK VINA RESULT:      -6.1      4.762      8.240
REMARK  6 active torsions:
REMARK  status: ('A' for Active; 'I' for Inactive)
REMARK    1  A    between atoms: C_16  and  N_1 
REMARK    2  A    between atoms: C_11  and  C_2 
REMARK    3  A    between atoms: S_15  and  C_3 
REMARK    4  A    between atoms: C_8  and  C_11 
REMARK    5  A    between atoms: C_13  and  C_17 
REMARK       I    between atoms: N_14  and  C_13 
REMARK    6  A    between atoms: C_17  and  S_15 
ROOT
ATOM      1  N   UNL d   1     -41.063  14.222  20.343  0.00  0.00    -0.269 N 
ATOM      2  C   UNL d   1     -41.728  13.781  20.543  0.00  0.00     0.172 A 
ATOM      3  C   UNL d   1     -40.950  14.146  19.543  0.00  0.00     0.201 A 
ATOM      4  N   UNL d   1     -42.016  13.439  19.857  0.00  0.00    -0.128 NA
ATOM      5  N   UNL d   1     -41.529  13.667  19.231  0.00  0.00    -0.121 NA
ENDROOT
BRANCH   2   6
ATOM      6  C   UNL d   1     -41.981  13.751  21.316  0.00  0.00     0.059 C 
BRANCH   6   7
ATOM      7  C   UNL d   1     -42.632  13.286  21.514  0.00  0.00     0.094 A 
ATOM      8  C   UNL d   1     -43.392  13.591  21.442  0.00  0.00     0.082 A 
ATOM      9  C   UNL d   1     -44.043  13.123  21.641  0.00  0.00     0.285 A 
ATOM     10  O   UNL d   1     -44.825  13.430  21.569  0.00  0.00    -0.265 OA
ATOM     11  N   UNL d   1     -43.917  12.344  21.914  0.00  0.00    -0.152 NA
ATOM     12  C   UNL d   1     -43.161  12.044  21.984  0.00  0.00     0.371 A 
ATOM     13  N   UNL d   1     -42.508  12.521  21.782  0.00  0.00    -0.191 NA
ATOM     14  O   UNL d   1     -43.048  11.271  22.256  0.00  0.00    -0.242 OA
ENDBRANCH   6   7
ENDBRANCH   2   6
BRANCH   1  15
ATOM     15  C   UNL d   1     -40.580  14.667  20.835  0.00  0.00     0.067 A 
ATOM     16  C   UNL d   1     -40.753  15.468  20.967  0.00  0.00     0.018 A 
ATOM     17  C   UNL d   1     -40.264  15.922  21.466  0.00  0.00     0.002 A 
ATOM     18  C   UNL d   1     -39.610  15.570  21.826  0.00  0.00     0.000 A 
ATOM     19  C   UNL d   1     -39.441  14.770  21.691  0.00  0.00     0.002 A 
ATOM     20  C   UNL d   1     -39.926  14.322  21.197  0.00  0.00     0.018 A 
ENDBRANCH   1  15
BRANCH   3  21
ATOM     21  S   UNL d   1     -40.326  14.511  19.107  0.00  0.00    -0.043 SA
BRANCH  21  22
ATOM     22  C   UNL d   1     -40.118  14.209  18.356  0.00  0.00     0.099 C 
BRANCH  22  23
ATOM     23  C   UNL d   1     -39.597  14.637  17.874  0.00  0.00     0.271 C 
ATOM     24  N   UNL d   1     -39.053  14.232  17.397  0.00  0.00    -0.272 N 
ATOM     25  C   UNL d   1     -38.910  13.417  17.294  0.00  0.00     0.083 A 
ATOM     26  C   UNL d   1     -38.528  14.650  16.913  0.00  0.00     0.083 A 
ATOM     27  C   UNL d   1     -38.299  13.338  16.746  0.00  0.00     0.021 A 
ATOM     28  C   UNL d   1     -38.065  14.100  16.512  0.00  0.00     0.021 A 
ATOM     29  O   UNL d   1     -39.614  15.467  17.864  0.00  0.00    -0.266 OA
ENDBRANCH  22  23
ENDBRANCH  21  22
ENDBRANCH   3  21
TORSDOF 6
ENDMDL
MODEL 5
REMARK VINA RESULT:      -5.5      4.777      7.471
REMARK  6 active torsions:
REMARK  status: ('A' for Active; 'I' for Inactive)
REMARK    1  A    between atoms: C_16  and  N_1 
REMARK    2  A    between atoms: C_11  and  C_2 
REMARK    3  A    between atoms: S_15  and  C_3 
REMARK    4  A    between atoms: C_8  and  C_11 
REMARK    5  A    between atoms: C_13  and  C_17 
REMARK       I    between atoms: N_14  and  C_13 
REMARK    6  A    between atoms: C_17  and  S_15 
ROOT
ATOM      1  N   UNL d   1     -40.792  14.410  20.034  0.00  0.00    -0.269 N 
ATOM      2  C   UNL d   1     -40.620  14.466  19.231  0.00  0.00     0.172 A 
ATOM      3  C   UNL d   1     -41.426  13.907  20.114  0.00  0.00     0.201 A 
ATOM      4  N   UNL d   1     -41.154  13.995  18.827  0.00  0.00    -0.128 NA
ATOM      5  N   UNL d   1     -41.658  13.645  19.380  0.00  0.00    -0.121 NA
ENDROOT
BRANCH   2   6
ATOM      6  C   UNL d   1     -40.006  14.936  18.978  0.00  0.00     0.059 C 
BRANCH   6   7
ATOM      7  C   UNL d   1     -39.783  14.923  18.185  0.00  0.00     0.094 A 
ATOM      8  C   UNL d   1     -40.151  15.424  17.646  0.00  0.00     0.082 A 
ATOM      9  C   UNL d   1     -39.926  15.410  16.851  0.00  0.00     0.285 A 
ATOM     10  O   UNL d   1     -40.299  15.922  16.294  0.00  0.00    -0.265 OA
ATOM     11  N   UNL d   1     -39.326  14.883  16.607  0.00  0.00    -0.152 NA
ATOM     12  C   UNL d   1     -38.964  14.386  17.144  0.00  0.00     0.371 A 
ATOM     13  N   UNL d   1     -39.194  14.406  17.944  0.00  0.00    -0.191 NA
ATOM     14  O   UNL d   1     -38.370  13.869  16.890  0.00  0.00    -0.242 OA
ENDBRANCH   6   7
ENDBRANCH   2   6
BRANCH   1  15
ATOM     15  C   UNL d   1     -40.415  14.777  20.664  0.00  0.00     0.067 A 
ATOM     16  C   UNL d   1     -40.662  15.531  20.906  0.00  0.00     0.018 A 
ATOM     17  C   UNL d   1     -40.281  15.907  21.545  0.00  0.00     0.002 A 
ATOM     18  C   UNL d   1     -39.660  15.524  21.931  0.00  0.00     0.000 A 
ATOM     19  C   UNL d   1     -39.418  14.771  21.685  0.00  0.00     0.002 A 
ATOM     20  C   UNL d   1     -39.796  14.401  21.053  0.00  0.00     0.018 A 
ENDBRANCH   1  15
BRANCH   3  21
ATOM     21  S   UNL d   1     -41.783  13.695  20.849  0.00  0.00    -0.043 SA
BRANCH  21  22
ATOM     22  C   UNL d   1     -42.576  13.429  20.859  0.00  0.00     0.099 C 
BRANCH  22  23
ATOM     23  C   UNL d   1     -42.814  12.879  21.429  0.00  0.00     0.271 C 
ATOM     24  N   UNL d   1     -43.615  12.822  21.634  0.00  0.00    -0.272 N 
ATOM     25  C   UNL d   1     -44.285  13.238  21.363  0.00  0.00     0.083 A 
ATOM     26  C   UNL d   1     -43.864  12.275  22.204  0.00  0.00     0.083 A 
ATOM     27  C   UNL d   1     -44.942  12.945  21.766  0.00  0.00     0.021 A 
ATOM     28  C   UNL d   1     -44.680  12.351  22.284  0.00  0.00     0.021 A 
ATOM     29  O   UNL d   1     -42.259  12.384  21.798  0.00  0.00    -0.266 OA
ENDBRANCH  22  23
ENDBRANCH  21  22
ENDBRANCH   3  21
TORSDOF 6
ENDMDL
