MODEL 1
REMARK VINA RESULT:       7.7      0.000      0.000
REMARK  5 active torsions:
REMARK  status: ('A' for Active; 'I' for Inactive)
REMARK    1  A    between atoms: C_7  and  N_2 
REMARK    2  A    between atoms: C_8  and  C_7 
REMARK    3  A    between atoms: C_13  and  C_8 
REMARK    4  A    between atoms: C_9  and  O_11 
REMARK    5  A    between atoms: O_11  and  C_13 
ROOT
ATOM      1  C   UNL d   1      46.179 -17.798  43.263  0.00  0.00     0.296 A 
ATOM      2  N   UNL d   1      46.122 -17.922  44.083  0.00  0.00    -0.268 N 
ATOM      3  S   UNL d   1      46.376 -18.519  42.913  0.00  0.00    -0.025 SA
ATOM      4  C   UNL d   1      46.284 -18.720  44.232  0.00  0.00     0.073 A 
ATOM      5  C   UNL d   1      46.441 -19.087  43.506  0.00  0.00     0.050 A 
ATOM      6  O   UNL d   1      46.060 -17.082  42.872  0.00  0.00    -0.259 OA
ATOM      7  C   UNL d   1      46.308 -19.153  44.929  0.00  0.00     0.018 A 
ATOM      8  C   UNL d   1      46.624 -19.900  43.490  0.00  0.00     0.008 A 
ATOM      9  C   UNL d   1      46.490 -19.957  44.909  0.00  0.00     0.002 A 
ATOM     10  C   UNL d   1      46.647 -20.328  44.195  0.00  0.00     0.001 A 
ENDROOT
BRANCH   2  11
ATOM     11  C   UNL d   1      45.936 -17.354  44.649  0.00  0.00     0.086 C 
BRANCH  11  12
ATOM     12  C   UNL d   1      45.851 -16.563  44.421  0.00  0.00     0.046 C 
BRANCH  12  13
ATOM     13  C   UNL d   1      45.550 -16.010  44.954  0.00  0.00     0.124 C 
BRANCH  13  14
ATOM     14  O   UNL d   1      45.537 -15.216  44.758  0.00  0.00    -0.305 OA
BRANCH  14  15
ATOM     15  C   UNL d   1      45.524 -14.412  44.560  0.00  0.00     0.100 A 
ATOM     16  C   UNL d   1      46.052 -13.903  44.927  0.00  0.00     0.025 A 
ATOM     17  C   UNL d   1      46.038 -13.099  44.728  0.00  0.00     0.002 A 
ATOM     18  C   UNL d   1      45.504 -12.816  44.170  0.00  0.00     0.000 A 
ATOM     19  C   UNL d   1      44.976 -13.340  43.805  0.00  0.00     0.002 A 
ATOM     20  C   UNL d   1      44.987 -14.135  44.000  0.00  0.00     0.025 A 
ENDBRANCH  14  15
ENDBRANCH  13  14
ENDBRANCH  12  13
ENDBRANCH  11  12
ENDBRANCH   2  11
TORSDOF 5
ENDMDL
