MODEL 1
REMARK VINA RESULT:      -8.0      0.000      0.000
REMARK  5 active torsions:
REMARK  status: ('A' for Active; 'I' for Inactive)
REMARK    1  A    between atoms: C_10  and  C_3 
REMARK    2  A    between atoms: N_12  and  C_4 
REMARK    3  A    between atoms: N_11  and  C_15 
REMARK    4  A    between atoms: C_14  and  N_12 
REMARK    5  A    between atoms: C_15  and  C_14 
ROOT
ATOM      1  C   UNL d   1      52.226  33.890  53.562  0.00  0.00     0.167 A 
ATOM      2  N   UNL d   1      51.716  34.466  53.253  0.00  0.00    -0.195 N 
ATOM      3  C   UNL d   1      52.906  34.270  53.807  0.00  0.00     0.057 A 
ATOM      4  C   UNL d   1      50.982  34.245  52.961  0.00  0.00     0.167 A 
ATOM      5  N   UNL d   1      52.094  35.187  53.313  0.00  0.00    -0.161 NA
ATOM      6  N   UNL d   1      51.992  33.104  53.574  0.00  0.00    -0.227 NA
ATOM      7  C   UNL d   1      50.751  33.450  52.976  0.00  0.00     0.058 A 
ATOM      8  C   UNL d   1      52.819  35.075  53.650  0.00  0.00     0.124 A 
ATOM      9  C   UNL d   1      51.250  32.887  53.279  0.00  0.00     0.086 A 
ATOM     10  C   UNL d   1      51.005  32.093  53.287  0.00  0.00     0.021 C 
ENDROOT
BRANCH   4  11
ATOM     11  N   UNL d   1      50.473  34.820  52.652  0.00  0.00    -0.224 NA
BRANCH  11  12
ATOM     12  C   UNL d   1      49.678  34.814  52.856  0.00  0.00     0.120 C 
BRANCH  12  13
ATOM     13  C   UNL d   1      49.125  35.190  52.368  0.00  0.00     0.101 C 
BRANCH  13  14
ATOM     14  N   UNL d   1      48.448  35.532  52.693  0.00  0.00    -0.298 N 
ATOM     15  C   UNL d   1      47.761  35.580  52.237  0.00  0.00     0.107 A 
ATOM     16  C   UNL d   1      47.076  35.924  52.561  0.00  0.00     0.142 A 
ATOM     17  O   UNL d   1      47.085  36.214  53.327  0.00  0.00    -0.300 OA
ATOM     18  C   UNL d   1      47.780  36.164  53.783  0.00  0.00     0.142 A 
ATOM     19  C   UNL d   1      48.457  35.824  53.463  0.00  0.00     0.107 A 
ENDBRANCH  13  14
ENDBRANCH  12  13
ENDBRANCH  11  12
ENDBRANCH   4  11
BRANCH   3  20
ATOM     20  C   UNL d   1      53.527  33.840  54.144  0.00  0.00     0.004 A 
ATOM     21  C   UNL d   1      53.622  33.837  54.969  0.00  0.00     0.000 A 
ATOM     22  C   UNL d   1      54.232  33.415  55.308  0.00  0.00     0.000 A 
ATOM     23  C   UNL d   1      54.762  32.986  54.830  0.00  0.00     0.000 A 
ATOM     24  C   UNL d   1      54.669  32.989  54.017  0.00  0.00     0.000 A 
ATOM     25  C   UNL d   1      54.050  33.417  53.676  0.00  0.00     0.000 A 
ENDBRANCH   3  20
TORSDOF 5
ENDMDL
MODEL 2
REMARK VINA RESULT:      -7.8      2.361      3.406
REMARK  5 active torsions:
REMARK  status: ('A' for Active; 'I' for Inactive)
REMARK    1  A    between atoms: C_10  and  C_3 
REMARK    2  A    between atoms: N_12  and  C_4 
REMARK    3  A    between atoms: N_11  and  C_15 
REMARK    4  A    between atoms: C_14  and  N_12 
REMARK    5  A    between atoms: C_15  and  C_14 
ROOT
ATOM      1  C   UNL d   1      53.232  31.268  53.665  0.00  0.00     0.167 A 
ATOM      2  N   UNL d   1      52.904  31.785  53.105  0.00  0.00    -0.195 N 
ATOM      3  C   UNL d   1      53.041  30.507  53.437  0.00  0.00     0.057 A 
ATOM      4  C   UNL d   1      53.006  32.595  53.190  0.00  0.00     0.167 A 
ATOM      5  N   UNL d   1      52.520  31.331  52.546  0.00  0.00    -0.161 NA
ATOM      6  N   UNL d   1      53.655  31.570  54.299  0.00  0.00    -0.227 NA
ATOM      7  C   UNL d   1      53.435  32.894  53.833  0.00  0.00     0.058 A 
ATOM      8  C   UNL d   1      52.599  30.553  52.742  0.00  0.00     0.124 A 
ATOM      9  C   UNL d   1      53.755  32.388  54.380  0.00  0.00     0.086 A 
ATOM     10  C   UNL d   1      54.182  32.703  55.019  0.00  0.00     0.021 C 
ENDROOT
BRANCH   4  11
ATOM     11  N   UNL d   1      52.679  33.111  52.632  0.00  0.00    -0.224 NA
BRANCH  11  12
ATOM     12  C   UNL d   1      52.048  33.592  52.841  0.00  0.00     0.120 C 
BRANCH  12  13
ATOM     13  C   UNL d   1      51.724  34.112  52.283  0.00  0.00     0.101 C 
BRANCH  13  14
ATOM     14  N   UNL d   1      50.925  34.313  52.316  0.00  0.00    -0.298 N 
ATOM     15  C   UNL d   1      50.457  34.218  51.643  0.00  0.00     0.107 A 
ATOM     16  C   UNL d   1      49.650  34.419  51.671  0.00  0.00     0.142 A 
ATOM     17  O   UNL d   1      49.324  34.710  52.364  0.00  0.00    -0.300 OA
ATOM     18  C   UNL d   1      49.799  34.804  53.041  0.00  0.00     0.142 A 
ATOM     19  C   UNL d   1      50.597  34.605  53.013  0.00  0.00     0.107 A 
ENDBRANCH  13  14
ENDBRANCH  12  13
ENDBRANCH  11  12
ENDBRANCH   4  11
BRANCH   3  20
ATOM     20  C   UNL d   1      53.291  29.861  53.888  0.00  0.00     0.004 A 
ATOM     21  C   UNL d   1      52.824  29.600  54.524  0.00  0.00     0.000 A 
ATOM     22  C   UNL d   1      53.066  28.963  54.972  0.00  0.00     0.000 A 
ATOM     23  C   UNL d   1      53.779  28.572  54.796  0.00  0.00     0.000 A 
ATOM     24  C   UNL d   1      54.240  28.829  54.170  0.00  0.00     0.000 A 
ATOM     25  C   UNL d   1      53.994  29.474  53.717  0.00  0.00     0.000 A 
ENDBRANCH   3  20
TORSDOF 5
ENDMDL
MODEL 3
REMARK VINA RESULT:      -7.3      0.801      1.517
REMARK  5 active torsions:
REMARK  status: ('A' for Active; 'I' for Inactive)
REMARK    1  A    between atoms: C_10  and  C_3 
REMARK    2  A    between atoms: N_12  and  C_4 
REMARK    3  A    between atoms: N_11  and  C_15 
REMARK    4  A    between atoms: C_14  and  N_12 
REMARK    5  A    between atoms: C_15  and  C_14 
ROOT
ATOM      1  C   UNL d   1      52.409  33.678  53.492  0.00  0.00     0.167 A 
ATOM      2  N   UNL d   1      51.692  33.590  53.085  0.00  0.00    -0.195 N 
ATOM      3  C   UNL d   1      52.807  32.966  53.445  0.00  0.00     0.057 A 
ATOM      4  C   UNL d   1      51.171  34.222  53.038  0.00  0.00     0.167 A 
ATOM      5  N   UNL d   1      51.665  32.827  52.796  0.00  0.00    -0.161 NA
ATOM      6  N   UNL d   1      52.592  34.395  53.844  0.00  0.00    -0.227 NA
ATOM      7  C   UNL d   1      51.361  34.944  53.396  0.00  0.00     0.058 A 
ATOM      8  C   UNL d   1      52.340  32.441  53.012  0.00  0.00     0.124 A 
ATOM      9  C   UNL d   1      52.063  35.029  53.794  0.00  0.00     0.086 A 
ATOM     10  C   UNL d   1      52.239  35.760  54.148  0.00  0.00     0.021 C 
ENDROOT
BRANCH   4  11
ATOM     11  N   UNL d   1      50.455  34.135  52.631  0.00  0.00    -0.224 NA
BRANCH  11  12
ATOM     12  C   UNL d   1      49.875  34.712  52.698  0.00  0.00     0.120 C 
BRANCH  12  13
ATOM     13  C   UNL d   1      49.153  34.617  52.304  0.00  0.00     0.101 C 
BRANCH  13  14
ATOM     14  N   UNL d   1      48.566  35.193  52.366  0.00  0.00    -0.298 N 
ATOM     15  C   UNL d   1      48.090  35.356  51.712  0.00  0.00     0.107 A 
ATOM     16  C   UNL d   1      47.496  35.937  51.771  0.00  0.00     0.142 A 
ATOM     17  O   UNL d   1      47.386  36.343  52.474  0.00  0.00    -0.300 OA
ATOM     18  C   UNL d   1      47.869  36.175  53.131  0.00  0.00     0.142 A 
ATOM     19  C   UNL d   1      48.456  35.601  53.074  0.00  0.00     0.107 A 
ENDBRANCH  13  14
ENDBRANCH  12  13
ENDBRANCH  11  12
ENDBRANCH   4  11
BRANCH   3  20
ATOM     20  C   UNL d   1      53.548  32.876  53.801  0.00  0.00     0.004 A 
ATOM     21  C   UNL d   1      54.235  32.958  53.341  0.00  0.00     0.000 A 
ATOM     22  C   UNL d   1      54.969  32.871  53.687  0.00  0.00     0.000 A 
ATOM     23  C   UNL d   1      55.033  32.700  54.499  0.00  0.00     0.000 A 
ATOM     24  C   UNL d   1      54.356  32.619  54.952  0.00  0.00     0.000 A 
ATOM     25  C   UNL d   1      53.614  32.707  54.600  0.00  0.00     0.000 A 
ENDBRANCH   3  20
TORSDOF 5
ENDMDL
MODEL 4
REMARK VINA RESULT:      -6.2      1.808      6.175
REMARK  5 active torsions:
REMARK  status: ('A' for Active; 'I' for Inactive)
REMARK    1  A    between atoms: C_10  and  C_3 
REMARK    2  A    between atoms: N_12  and  C_4 
REMARK    3  A    between atoms: N_11  and  C_15 
REMARK    4  A    between atoms: C_14  and  N_12 
REMARK    5  A    between atoms: C_15  and  C_14 
ROOT
ATOM      1  C   UNL d   1      47.357  35.542  52.123  0.00  0.00     0.167 A 
ATOM      2  N   UNL d   1      48.061  35.197  51.852  0.00  0.00    -0.195 N 
ATOM      3  C   UNL d   1      46.785  35.410  51.555  0.00  0.00     0.057 A 
ATOM      4  C   UNL d   1      48.739  35.241  52.312  0.00  0.00     0.167 A 
ATOM      5  N   UNL d   1      47.906  34.861  51.124  0.00  0.00    -0.161 NA
ATOM      6  N   UNL d   1      47.344  35.924  52.849  0.00  0.00    -0.227 NA
ATOM      7  C   UNL d   1      48.720  35.628  53.044  0.00  0.00     0.058 A 
ATOM      8  C   UNL d   1      47.132  34.988  50.937  0.00  0.00     0.124 A 
ATOM      9  C   UNL d   1      48.031  35.966  53.309  0.00  0.00     0.086 A 
ATOM     10  C   UNL d   1      48.028  36.350  54.044  0.00  0.00     0.021 C 
ENDROOT
BRANCH   4  11
ATOM     11  N   UNL d   1      49.442  34.897  52.042  0.00  0.00    -0.224 NA
BRANCH  11  12
ATOM     12  C   UNL d   1      50.011  34.655  52.581  0.00  0.00     0.120 C 
BRANCH  12  13
ATOM     13  C   UNL d   1      50.690  34.263  52.314  0.00  0.00     0.101 C 
BRANCH  13  14
ATOM     14  N   UNL d   1      51.319  34.121  52.829  0.00  0.00    -0.298 N 
ATOM     15  C   UNL d   1      51.363  33.398  53.224  0.00  0.00     0.107 A 
ATOM     16  C   UNL d   1      51.996  33.251  53.744  0.00  0.00     0.142 A 
ATOM     17  O   UNL d   1      52.571  33.822  53.862  0.00  0.00    -0.300 OA
ATOM     18  C   UNL d   1      52.523  34.551  53.462  0.00  0.00     0.142 A 
ATOM     19  C   UNL d   1      51.897  34.696  52.948  0.00  0.00     0.107 A 
ENDBRANCH  13  14
ENDBRANCH  12  13
ENDBRANCH  11  12
ENDBRANCH   4  11
BRANCH   3  20
ATOM     20  C   UNL d   1      46.015  35.690  51.665  0.00  0.00     0.004 A 
ATOM     21  C   UNL d   1      45.459  35.215  52.060  0.00  0.00     0.000 A 
ATOM     22  C   UNL d   1      44.697  35.486  52.172  0.00  0.00     0.000 A 
ATOM     23  C   UNL d   1      44.474  36.237  51.892  0.00  0.00     0.000 A 
ATOM     24  C   UNL d   1      45.021  36.705  51.503  0.00  0.00     0.000 A 
ATOM     25  C   UNL d   1      45.791  36.430  51.391  0.00  0.00     0.000 A 
ENDBRANCH   3  20
TORSDOF 5
ENDMDL
MODEL 5
REMARK VINA RESULT:      -5.6     10.342     11.905
REMARK  5 active torsions:
REMARK  status: ('A' for Active; 'I' for Inactive)
REMARK    1  A    between atoms: C_10  and  C_3 
REMARK    2  A    between atoms: N_12  and  C_4 
REMARK    3  A    between atoms: N_11  and  C_15 
REMARK    4  A    between atoms: C_14  and  N_12 
REMARK    5  A    between atoms: C_15  and  C_14 
ROOT
ATOM      1  C   UNL d   1      44.881  28.008  58.618  0.00  0.00     0.167 A 
ATOM      2  N   UNL d   1      44.675  27.277  58.950  0.00  0.00    -0.195 N 
ATOM      3  C   UNL d   1      44.658  28.590  59.146  0.00  0.00     0.057 A 
ATOM      4  C   UNL d   1      44.834  26.584  58.540  0.00  0.00     0.167 A 
ATOM      5  N   UNL d   1      44.331  27.425  59.676  0.00  0.00    -0.161 NA
ATOM      6  N   UNL d   1      45.240  28.033  57.881  0.00  0.00    -0.227 NA
ATOM      7  C   UNL d   1      45.197  26.616  57.797  0.00  0.00     0.058 A 
ATOM      8  C   UNL d   1      44.318  28.221  59.802  0.00  0.00     0.124 A 
ATOM      9  C   UNL d   1      45.398  27.331  57.472  0.00  0.00     0.086 A 
ATOM     10  C   UNL d   1      45.762  27.347  56.725  0.00  0.00     0.021 C 
ENDROOT
BRANCH   4  11
ATOM     11  N   UNL d   1      44.629  25.854  58.872  0.00  0.00    -0.224 NA
BRANCH  11  12
ATOM     12  C   UNL d   1      44.669  25.173  58.417  0.00  0.00     0.120 C 
BRANCH  12  13
ATOM     13  C   UNL d   1      44.334  24.469  58.697  0.00  0.00     0.101 C 
BRANCH  13  14
ATOM     14  N   UNL d   1      44.567  23.743  58.384  0.00  0.00    -0.298 N 
ATOM     15  C   UNL d   1      44.889  23.171  58.885  0.00  0.00     0.107 A 
ATOM     16  C   UNL d   1      45.125  22.436  58.573  0.00  0.00     0.142 A 
ATOM     17  O   UNL d   1      45.039  22.284  57.773  0.00  0.00    -0.300 OA
ATOM     18  C   UNL d   1      44.714  22.863  57.271  0.00  0.00     0.142 A 
ATOM     19  C   UNL d   1      44.480  23.589  57.579  0.00  0.00     0.107 A 
ENDBRANCH  13  14
ENDBRANCH  12  13
ENDBRANCH  11  12
ENDBRANCH   4  11
BRANCH   3  20
ATOM     20  C   UNL d   1      44.791  29.387  58.971  0.00  0.00     0.004 A 
ATOM     21  C   UNL d   1      45.417  29.789  59.342  0.00  0.00     0.000 A 
ATOM     22  C   UNL d   1      45.553  30.575  59.173  0.00  0.00     0.000 A 
ATOM     23  C   UNL d   1      45.067  30.978  58.631  0.00  0.00     0.000 A 
ATOM     24  C   UNL d   1      44.450  30.582  58.266  0.00  0.00     0.000 A 
ATOM     25  C   UNL d   1      44.314  29.786  58.438  0.00  0.00     0.000 A 
ENDBRANCH   3  20
TORSDOF 5
ENDMDL
MODEL 6
REMARK VINA RESULT:      -5.4      2.907      5.035
REMARK  5 active torsions:
REMARK  status: ('A' for Active; 'I' for Inactive)
REMARK    1  A    between atoms: C_10  and  C_3 
REMARK    2  A    between atoms: N_12  and  C_4 
REMARK    3  A    between atoms: N_11  and  C_15 
REMARK    4  A    between atoms: C_14  and  N_12 
REMARK    5  A    between atoms: C_15  and  C_14 
ROOT
ATOM      1  C   UNL d   1      52.820  33.416  53.590  0.00  0.00     0.167 A 
ATOM      2  N   UNL d   1      53.101  32.680  53.333  0.00  0.00    -0.195 N 
ATOM      3  C   UNL d   1      53.454  33.827  53.900  0.00  0.00     0.057 A 
ATOM      4  C   UNL d   1      52.583  32.143  52.993  0.00  0.00     0.167 A 
ATOM      5  N   UNL d   1      53.902  32.654  53.491  0.00  0.00    -0.161 NA
ATOM      6  N   UNL d   1      52.026  33.602  53.502  0.00  0.00    -0.227 NA
ATOM      7  C   UNL d   1      51.783  32.336  52.907  0.00  0.00     0.058 A 
ATOM      8  C   UNL d   1      54.123  33.349  53.836  0.00  0.00     0.124 A 
ATOM      9  C   UNL d   1      51.508  33.056  53.158  0.00  0.00     0.086 A 
ATOM     10  C   UNL d   1      50.702  33.235  53.065  0.00  0.00     0.021 C 
ENDROOT
BRANCH   4  11
ATOM     11  N   UNL d   1      52.864  31.407  52.736  0.00  0.00    -0.224 NA
BRANCH  11  12
ATOM     12  C   UNL d   1      52.609  30.721  53.107  0.00  0.00     0.120 C 
BRANCH  12  13
ATOM     13  C   UNL d   1      53.043  30.022  53.023  0.00  0.00     0.101 C 
BRANCH  13  14
ATOM     14  N   UNL d   1      53.139  29.511  53.664  0.00  0.00    -0.298 N 
ATOM     15  C   UNL d   1      53.889  29.211  53.833  0.00  0.00     0.107 A 
ATOM     16  C   UNL d   1      53.990  28.694  54.479  0.00  0.00     0.142 A 
ATOM     17  O   UNL d   1      53.347  28.487  54.942  0.00  0.00    -0.300 OA
ATOM     18  C   UNL d   1      52.592  28.792  54.768  0.00  0.00     0.142 A 
ATOM     19  C   UNL d   1      52.492  29.302  54.130  0.00  0.00     0.107 A 
ENDBRANCH  13  14
ENDBRANCH  12  13
ENDBRANCH  11  12
ENDBRANCH   4  11
BRANCH   3  20
ATOM     20  C   UNL d   1      53.351  34.589  54.205  0.00  0.00     0.004 A 
ATOM     21  C   UNL d   1      53.247  34.691  55.023  0.00  0.00     0.000 A 
ATOM     22  C   UNL d   1      53.144  35.440  55.331  0.00  0.00     0.000 A 
ATOM     23  C   UNL d   1      53.142  36.103  54.828  0.00  0.00     0.000 A 
ATOM     24  C   UNL d   1      53.244  36.002  54.022  0.00  0.00     0.000 A 
ATOM     25  C   UNL d   1      53.348  35.244  53.713  0.00  0.00     0.000 A 
ENDBRANCH   3  20
TORSDOF 5
ENDMDL
