MODEL 1
REMARK VINA RESULT:      -9.3      0.000      0.000
REMARK  5 active torsions:
REMARK  status: ('A' for Active; 'I' for Inactive)
REMARK    1  A    between atoms: C_14  and  N_4 
REMARK    2  A    between atoms: C_12  and  N_6 
REMARK    3  A    between atoms: C_10  and  C_12 
REMARK       I    between atoms: N_11  and  C_10 
REMARK    4  A    between atoms: C_13  and  N_11 
REMARK    5  A    between atoms: O_18  and  C_17 
ROOT
ATOM      1  C   UNL d   1      52.712  32.453  53.373  0.00  0.00     0.172 A 
ATOM      2  C   UNL d   1      53.068  33.197  53.375  0.00  0.00     0.113 A 
ATOM      3  N   UNL d   1      51.898  32.384  53.294  0.00  0.00    -0.206 NA
ATOM      4  N   UNL d   1      53.315  31.889  53.458  0.00  0.00    -0.212 N 
ATOM      5  C   UNL d   1      52.610  33.874  53.300  0.00  0.00     0.271 A 
ATOM      6  N   UNL d   1      51.788  33.809  53.221  0.00  0.00    -0.251 N 
ATOM      7  N   UNL d   1      54.026  32.291  53.511  0.00  0.00    -0.162 NA
ATOM      8  C   UNL d   1      51.433  33.065  53.218  0.00  0.00     0.187 A 
ATOM      9  C   UNL d   1      53.885  33.081  53.462  0.00  0.00     0.129 A 
ATOM     10  O   UNL d   1      52.966  34.618  53.303  0.00  0.00    -0.266 OA
ENDROOT
BRANCH   6  11
ATOM     11  C   UNL d   1      51.316  34.494  53.144  0.00  0.00     0.147 C 
BRANCH  11  12
ATOM     12  C   UNL d   1      50.707  34.517  52.576  0.00  0.00     0.297 C 
ATOM     13  N   UNL d   1      49.968  34.813  52.795  0.00  0.00    -0.205 NA
ATOM     14  O   UNL d   1      50.848  34.248  51.818  0.00  0.00    -0.264 OA
BRANCH  13  15
ATOM     15  C   UNL d   1      49.360  34.836  52.227  0.00  0.00     0.107 A 
ATOM     16  C   UNL d   1      48.675  35.247  52.404  0.00  0.00     0.112 A 
ATOM     17  C   UNL d   1      48.067  35.270  51.836  0.00  0.00     0.026 A 
ATOM     18  C   UNL d   1      48.155  34.888  51.119  0.00  0.00     0.002 A 
ATOM     19  C   UNL d   1      48.839  34.477  50.943  0.00  0.00     0.002 A 
ATOM     20  C   UNL d   1      49.441  34.456  51.508  0.00  0.00     0.021 A 
BRANCH  16  21
ATOM     21  O   UNL d   1      48.587  35.629  53.120  0.00  0.00    -0.327 OA
ATOM     22  C   UNL d   1      47.920  36.074  53.280  0.00  0.00     0.181 C 
ENDBRANCH  16  21
ENDBRANCH  13  15
ENDBRANCH  11  12
ENDBRANCH   6  11
BRANCH   4  23
ATOM     23  C   UNL d   1      53.255  31.077  53.487  0.00  0.00     0.085 A 
ATOM     24  C   UNL d   1      53.097  30.645  52.792  0.00  0.00     0.019 A 
ATOM     25  C   UNL d   1      53.037  29.830  52.828  0.00  0.00     0.002 A 
ATOM     26  C   UNL d   1      53.136  29.428  53.561  0.00  0.00     0.000 A 
ATOM     27  C   UNL d   1      53.290  29.860  54.232  0.00  0.00     0.002 A 
ATOM     28  C   UNL d   1      53.351  30.681  54.205  0.00  0.00     0.019 A 
ENDBRANCH   4  23
TORSDOF 5
ENDMDL
MODEL 2
REMARK VINA RESULT:      -8.4      1.281      2.326
REMARK  5 active torsions:
REMARK  status: ('A' for Active; 'I' for Inactive)
REMARK    1  A    between atoms: C_14  and  N_4 
REMARK    2  A    between atoms: C_12  and  N_6 
REMARK    3  A    between atoms: C_10  and  C_12 
REMARK       I    between atoms: N_11  and  C_10 
REMARK    4  A    between atoms: C_13  and  N_11 
REMARK    5  A    between atoms: O_18  and  C_17 
ROOT
ATOM      1  C   UNL d   1      52.971  33.294  53.535  0.00  0.00     0.172 A 
ATOM      2  C   UNL d   1      52.535  32.738  53.110  0.00  0.00     0.113 A 
ATOM      3  N   UNL d   1      52.755  34.085  53.523  0.00  0.00    -0.206 NA
ATOM      4  N   UNL d   1      53.588  32.888  53.913  0.00  0.00    -0.212 N 
ATOM      5  C   UNL d   1      51.881  32.973  52.672  0.00  0.00     0.271 A 
ATOM      6  N   UNL d   1      51.660  33.771  52.658  0.00  0.00    -0.251 N 
ATOM      7  N   UNL d   1      53.523  32.096  53.718  0.00  0.00    -0.162 NA
ATOM      8  C   UNL d   1      52.096  34.327  53.083  0.00  0.00     0.187 A 
ATOM      9  C   UNL d   1      52.889  31.997  53.233  0.00  0.00     0.129 A 
ATOM     10  O   UNL d   1      51.444  32.417  52.247  0.00  0.00    -0.266 OA
ENDROOT
BRANCH   6  11
ATOM     11  C   UNL d   1      50.996  34.018  52.215  0.00  0.00     0.147 C 
BRANCH  11  12
ATOM     12  C   UNL d   1      50.428  34.518  52.561  0.00  0.00     0.297 C 
ATOM     13  N   UNL d   1      49.675  34.561  52.225  0.00  0.00    -0.205 NA
ATOM     14  O   UNL d   1      50.622  34.957  53.223  0.00  0.00    -0.264 OA
BRANCH  13  15
ATOM     15  C   UNL d   1      49.107  35.061  52.571  0.00  0.00     0.107 A 
ATOM     16  C   UNL d   1      48.460  35.286  52.126  0.00  0.00     0.112 A 
ATOM     17  C   UNL d   1      47.892  35.787  52.472  0.00  0.00     0.026 A 
ATOM     18  C   UNL d   1      47.983  36.046  53.241  0.00  0.00     0.002 A 
ATOM     19  C   UNL d   1      48.631  35.821  53.687  0.00  0.00     0.002 A 
ATOM     20  C   UNL d   1      49.192  35.325  53.340  0.00  0.00     0.021 A 
BRANCH  16  21
ATOM     21  O   UNL d   1      48.368  35.027  51.356  0.00  0.00    -0.327 OA
ATOM     22  C   UNL d   1      47.679  35.174  50.943  0.00  0.00     0.181 C 
ENDBRANCH  16  21
ENDBRANCH  13  15
ENDBRANCH  11  12
ENDBRANCH   6  11
BRANCH   4  23
ATOM     23  C   UNL d   1      54.173  33.183  54.399  0.00  0.00     0.085 A 
ATOM     24  C   UNL d   1      54.885  33.466  54.069  0.00  0.00     0.019 A 
ATOM     25  C   UNL d   1      55.467  33.762  54.562  0.00  0.00     0.002 A 
ATOM     26  C   UNL d   1      55.351  33.781  55.395  0.00  0.00     0.000 A 
ATOM     27  C   UNL d   1      54.652  33.502  55.704  0.00  0.00     0.002 A 
ATOM     28  C   UNL d   1      54.061  33.203  55.216  0.00  0.00     0.019 A 
ENDBRANCH   4  23
TORSDOF 5
ENDMDL
MODEL 3
REMARK VINA RESULT:      -7.5      1.234      5.762
REMARK  5 active torsions:
REMARK  status: ('A' for Active; 'I' for Inactive)
REMARK    1  A    between atoms: C_14  and  N_4 
REMARK    2  A    between atoms: C_12  and  N_6 
REMARK    3  A    between atoms: C_10  and  C_12 
REMARK       I    between atoms: N_11  and  C_10 
REMARK    4  A    between atoms: C_13  and  N_11 
REMARK    5  A    between atoms: O_18  and  C_17 
ROOT
ATOM      1  C   UNL d   1      48.752  35.210  52.630  0.00  0.00     0.172 A 
ATOM      2  C   UNL d   1      48.868  35.005  51.839  0.00  0.00     0.113 A 
ATOM      3  N   UNL d   1      49.328  35.041  53.189  0.00  0.00    -0.206 NA
ATOM      4  N   UNL d   1      48.009  35.576  52.685  0.00  0.00    -0.212 N 
ATOM      5  C   UNL d   1      49.560  34.630  51.607  0.00  0.00     0.271 A 
ATOM      6  N   UNL d   1      50.144  34.458  52.168  0.00  0.00    -0.251 N 
ATOM      7  N   UNL d   1      47.682  35.590  51.935  0.00  0.00    -0.162 NA
ATOM      8  C   UNL d   1      50.028  34.663  52.959  0.00  0.00     0.187 A 
ATOM      9  C   UNL d   1      48.195  35.247  51.419  0.00  0.00     0.129 A 
ATOM     10  O   UNL d   1      49.676  34.425  50.816  0.00  0.00    -0.266 OA
ENDROOT
BRANCH   6  11
ATOM     11  C   UNL d   1      50.852  34.076  51.940  0.00  0.00     0.147 C 
BRANCH  11  12
ATOM     12  C   UNL d   1      51.470  33.983  52.489  0.00  0.00     0.297 C 
ATOM     13  N   UNL d   1      51.882  33.268  52.509  0.00  0.00    -0.205 NA
ATOM     14  O   UNL d   1      51.658  34.594  52.997  0.00  0.00    -0.264 OA
BRANCH  13  15
ATOM     15  C   UNL d   1      52.500  33.174  53.058  0.00  0.00     0.107 A 
ATOM     16  C   UNL d   1      52.834  32.433  53.150  0.00  0.00     0.112 A 
ATOM     17  C   UNL d   1      53.452  32.339  53.699  0.00  0.00     0.026 A 
ATOM     18  C   UNL d   1      53.717  32.977  54.136  0.00  0.00     0.002 A 
ATOM     19  C   UNL d   1      53.383  33.718  54.044  0.00  0.00     0.002 A 
ATOM     20  C   UNL d   1      52.770  33.807  53.499  0.00  0.00     0.021 A 
BRANCH  16  21
ATOM     21  O   UNL d   1      52.569  31.796  52.713  0.00  0.00    -0.327 OA
ATOM     22  C   UNL d   1      52.772  31.031  52.919  0.00  0.00     0.181 C 
ENDBRANCH  16  21
ENDBRANCH  13  15
ENDBRANCH  11  12
ENDBRANCH   6  11
BRANCH   4  23
ATOM     23  C   UNL d   1      47.636  35.879  53.344  0.00  0.00     0.085 A 
ATOM     24  C   UNL d   1      46.851  35.657  53.517  0.00  0.00     0.019 A 
ATOM     25  C   UNL d   1      46.482  35.964  54.179  0.00  0.00     0.002 A 
ATOM     26  C   UNL d   1      46.891  36.501  54.683  0.00  0.00     0.000 A 
ATOM     27  C   UNL d   1      47.656  36.709  54.503  0.00  0.00     0.002 A 
ATOM     28  C   UNL d   1      48.035  36.405  53.839  0.00  0.00     0.019 A 
ENDBRANCH   4  23
TORSDOF 5
ENDMDL
MODEL 4
REMARK VINA RESULT:      -6.8      2.434      4.361
REMARK  5 active torsions:
REMARK  status: ('A' for Active; 'I' for Inactive)
REMARK    1  A    between atoms: C_14  and  N_4 
REMARK    2  A    between atoms: C_12  and  N_6 
REMARK    3  A    between atoms: C_10  and  C_12 
REMARK       I    between atoms: N_11  and  C_10 
REMARK    4  A    between atoms: C_13  and  N_11 
REMARK    5  A    between atoms: O_18  and  C_17 
ROOT
ATOM      1  C   UNL d   1      49.680  34.820  52.645  0.00  0.00     0.172 A 
ATOM      2  C   UNL d   1      49.162  34.880  52.006  0.00  0.00     0.113 A 
ATOM      3  N   UNL d   1      49.519  35.217  53.345  0.00  0.00    -0.206 NA
ATOM      4  N   UNL d   1      50.305  34.326  52.413  0.00  0.00    -0.212 N 
ATOM      5  C   UNL d   1      48.483  35.336  52.066  0.00  0.00     0.271 A 
ATOM      6  N   UNL d   1      48.317  35.738  52.770  0.00  0.00    -0.251 N 
ATOM      7  N   UNL d   1      50.164  34.091  51.643  0.00  0.00    -0.162 NA
ATOM      8  C   UNL d   1      48.835  35.679  53.410  0.00  0.00     0.187 A 
ATOM      9  C   UNL d   1      49.476  34.421  51.389  0.00  0.00     0.129 A 
ATOM     10  O   UNL d   1      47.965  35.395  51.426  0.00  0.00    -0.266 OA
ENDROOT
BRANCH   6  11
ATOM     11  C   UNL d   1      47.627  36.205  52.839  0.00  0.00     0.147 C 
BRANCH  11  12
ATOM     12  C   UNL d   1      47.184  36.191  53.543  0.00  0.00     0.297 C 
ATOM     13  N   UNL d   1      46.364  36.107  53.498  0.00  0.00    -0.205 NA
ATOM     14  O   UNL d   1      47.564  36.259  54.264  0.00  0.00    -0.264 OA
BRANCH  13  15
ATOM     15  C   UNL d   1      45.921  36.093  54.202  0.00  0.00     0.107 A 
ATOM     16  C   UNL d   1      45.320  35.544  54.276  0.00  0.00     0.112 A 
ATOM     17  C   UNL d   1      44.877  35.530  54.981  0.00  0.00     0.026 A 
ATOM     18  C   UNL d   1      45.042  36.056  55.583  0.00  0.00     0.002 A 
ATOM     19  C   UNL d   1      45.643  36.606  55.510  0.00  0.00     0.002 A 
ATOM     20  C   UNL d   1      46.081  36.616  54.810  0.00  0.00     0.021 A 
BRANCH  16  21
ATOM     21  O   UNL d   1      45.155  35.018  53.674  0.00  0.00    -0.327 OA
ATOM     22  C   UNL d   1      44.423  34.658  53.619  0.00  0.00     0.181 C 
ENDBRANCH  16  21
ENDBRANCH  13  15
ENDBRANCH  11  12
ENDBRANCH   6  11
BRANCH   4  23
ATOM     23  C   UNL d   1      50.958  34.092  52.842  0.00  0.00     0.085 A 
ATOM     24  C   UNL d   1      51.631  34.583  52.877  0.00  0.00     0.019 A 
ATOM     25  C   UNL d   1      52.283  34.343  53.309  0.00  0.00     0.002 A 
ATOM     26  C   UNL d   1      52.277  33.606  53.716  0.00  0.00     0.000 A 
ATOM     27  C   UNL d   1      51.614  33.137  53.674  0.00  0.00     0.002 A 
ATOM     28  C   UNL d   1      50.954  33.370  53.242  0.00  0.00     0.019 A 
ENDBRANCH   4  23
TORSDOF 5
ENDMDL
