MODEL 1
REMARK VINA RESULT:      59.7      0.000      0.000
REMARK  4 active torsions:
REMARK  status: ('A' for Active; 'I' for Inactive)
REMARK    1  A    between atoms: C_7  and  C_1 
REMARK    2  A    between atoms: C_13  and  N_2 
REMARK    3  A    between atoms: C_8  and  C_7 
REMARK    4  A    between atoms: N_9  and  C_14 
ROOT
ATOM      1  N   UNL d   1      14.129  16.338  -5.164  0.00  0.00    -0.242 N 
ATOM      2  C   UNL d   1      14.686  15.859  -4.772  0.00  0.00     0.267 A 
ATOM      3  C   UNL d   1      13.461  15.875  -5.309  0.00  0.00     0.267 A 
ATOM      4  C   UNL d   1      13.599  15.117  -5.011  0.00  0.00     0.062 A 
ATOM      5  C   UNL d   1      14.354  15.107  -4.679  0.00  0.00     0.066 A 
ATOM      6  O   UNL d   1      15.430  16.099  -4.523  0.00  0.00    -0.267 OA
ATOM      7  O   UNL d   1      12.774  16.132  -5.689  0.00  0.00    -0.267 OA
ENDROOT
BRANCH   4   8
ATOM      8  C   UNL d   1      13.074  14.483  -5.040  0.00  0.00     0.018 C 
BRANCH   8   9
ATOM      9  C   UNL d   1      13.215  13.920  -4.463  0.00  0.00     0.045 A 
ATOM     10  N   UNL d   1      13.372  14.067  -3.672  0.00  0.00    -0.308 N 
ATOM     11  C   UNL d   1      13.480  13.354  -3.289  0.00  0.00     0.060 A 
ATOM     12  C   UNL d   1      13.414  14.814  -3.322  0.00  0.00     0.099 C 
ATOM     13  C   UNL d   1      13.647  13.168  -2.511  0.00  0.00     0.017 A 
ATOM     14  C   UNL d   1      13.390  12.756  -3.843  0.00  0.00    -0.002 A 
ATOM     15  C   UNL d   1      13.727  12.376  -2.280  0.00  0.00     0.002 A 
ATOM     16  C   UNL d   1      13.635  11.780  -2.846  0.00  0.00    -0.000 A 
ATOM     17  C   UNL d   1      13.468  11.968  -3.619  0.00  0.00    -0.003 A 
ATOM     18  C   UNL d   1      13.226  13.106  -4.572  0.00  0.00     0.054 A 
ATOM     19  C   UNL d   1      13.102  12.665  -5.262  0.00  0.00     0.010 C 
ATOM     20  C   UNL d   1      13.265  12.279  -4.546  0.00  0.00     0.010 C 
ENDBRANCH   8   9
ENDBRANCH   4   8
BRANCH   1  21
ATOM     21  C   UNL d   1      14.225  17.123  -5.370  0.00  0.00     0.070 A 
ATOM     22  C   UNL d   1      13.815  17.440  -6.017  0.00  0.00     0.019 A 
ATOM     23  C   UNL d   1      13.917  18.231  -6.218  0.00  0.00     0.025 A 
ATOM     24  C   UNL d   1      14.421  18.706  -5.780  0.00  0.00     0.127 A 
ATOM     25  C   UNL d   1      14.831  18.389  -5.133  0.00  0.00     0.025 A 
ATOM     26  C   UNL d   1      14.733  17.599  -4.928  0.00  0.00     0.019 A 
BRANCH  24  27
ATOM     27  N   UNL d   1      14.523  19.498  -5.980  0.00  0.00    -0.114 N 
ATOM     28  O   UNL d   1      15.258  19.857  -5.896  0.00  0.00    -0.532 OA
ATOM     29  O   UNL d   1      13.889  19.930  -6.265  0.00  0.00    -0.532 OA
ENDBRANCH  24  27
ENDBRANCH   1  21
TORSDOF 4
ENDMDL
MODEL 2
REMARK VINA RESULT:      60.2      0.867      1.315
REMARK  4 active torsions:
REMARK  status: ('A' for Active; 'I' for Inactive)
REMARK    1  A    between atoms: C_7  and  C_1 
REMARK    2  A    between atoms: C_13  and  N_2 
REMARK    3  A    between atoms: C_8  and  C_7 
REMARK    4  A    between atoms: N_9  and  C_14 
ROOT
ATOM      1  N   UNL d   1      13.864  15.461  -5.141  0.00  0.00    -0.242 N 
ATOM      2  C   UNL d   1      14.272  14.799  -5.438  0.00  0.00     0.267 A 
ATOM      3  C   UNL d   1      13.299  15.185  -4.605  0.00  0.00     0.267 A 
ATOM      4  C   UNL d   1      13.354  14.362  -4.569  0.00  0.00     0.062 A 
ATOM      5  C   UNL d   1      13.954  14.124  -5.083  0.00  0.00     0.066 A 
ATOM      6  O   UNL d   1      14.881  14.822  -5.987  0.00  0.00    -0.267 OA
ATOM      7  O   UNL d   1      12.771  15.657  -4.180  0.00  0.00    -0.267 OA
ENDROOT
BRANCH   4   8
ATOM      8  C   UNL d   1      12.891  13.866  -4.102  0.00  0.00     0.018 C 
BRANCH   8   9
ATOM      9  C   UNL d   1      13.321  13.462  -3.535  0.00  0.00     0.045 A 
ATOM     10  N   UNL d   1      13.738  13.798  -2.913  0.00  0.00    -0.308 N 
ATOM     11  C   UNL d   1      14.087  13.202  -2.478  0.00  0.00     0.060 A 
ATOM     12  C   UNL d   1      13.794  14.607  -2.756  0.00  0.00     0.099 C 
ATOM     13  C   UNL d   1      14.558  13.212  -1.811  0.00  0.00     0.017 A 
ATOM     14  C   UNL d   1      13.888  12.487  -2.829  0.00  0.00    -0.002 A 
ATOM     15  C   UNL d   1      14.837  12.502  -1.487  0.00  0.00     0.002 A 
ATOM     16  C   UNL d   1      14.631  11.787  -1.847  0.00  0.00    -0.000 A 
ATOM     17  C   UNL d   1      14.162  11.779  -2.510  0.00  0.00    -0.003 A 
ATOM     18  C   UNL d   1      13.413  12.647  -3.484  0.00  0.00     0.054 A 
ATOM     19  C   UNL d   1      13.108  12.051  -3.971  0.00  0.00     0.010 C 
ATOM     20  C   UNL d   1      13.583  11.854  -3.321  0.00  0.00     0.010 C 
ENDBRANCH   8   9
ENDBRANCH   4   8
BRANCH   1  21
ATOM     21  C   UNL d   1      13.996  16.242  -5.341  0.00  0.00     0.070 A 
ATOM     22  C   UNL d   1      14.568  16.687  -4.938  0.00  0.00     0.019 A 
ATOM     23  C   UNL d   1      14.695  17.473  -5.145  0.00  0.00     0.025 A 
ATOM     24  C   UNL d   1      14.259  17.816  -5.748  0.00  0.00     0.127 A 
ATOM     25  C   UNL d   1      13.687  17.371  -6.150  0.00  0.00     0.025 A 
ATOM     26  C   UNL d   1      13.556  16.585  -5.947  0.00  0.00     0.019 A 
BRANCH  24  27
ATOM     27  N   UNL d   1      14.386  18.602  -5.955  0.00  0.00    -0.114 N 
ATOM     28  O   UNL d   1      13.791  19.037  -6.322  0.00  0.00    -0.532 OA
ATOM     29  O   UNL d   1      15.108  18.954  -5.796  0.00  0.00    -0.532 OA
ENDBRANCH  24  27
ENDBRANCH   1  21
TORSDOF 4
ENDMDL
MODEL 3
REMARK VINA RESULT:      60.7      1.651      5.468
REMARK  4 active torsions:
REMARK  status: ('A' for Active; 'I' for Inactive)
REMARK    1  A    between atoms: C_7  and  C_1 
REMARK    2  A    between atoms: C_13  and  N_2 
REMARK    3  A    between atoms: C_8  and  C_7 
REMARK    4  A    between atoms: N_9  and  C_14 
ROOT
ATOM      1  N   UNL d   1      14.079  15.326  -4.513  0.00  0.00    -0.242 N 
ATOM      2  C   UNL d   1      14.099  15.978  -3.995  0.00  0.00     0.267 A 
ATOM      3  C   UNL d   1      14.345  15.585  -5.250  0.00  0.00     0.267 A 
ATOM      4  C   UNL d   1      14.530  16.388  -5.194  0.00  0.00     0.062 A 
ATOM      5  C   UNL d   1      14.378  16.630  -4.420  0.00  0.00     0.066 A 
ATOM      6  O   UNL d   1      13.880  15.967  -3.206  0.00  0.00    -0.267 OA
ATOM      7  O   UNL d   1      14.413  15.115  -5.927  0.00  0.00    -0.267 OA
ENDROOT
BRANCH   4   8
ATOM      8  C   UNL d   1      14.815  16.862  -5.804  0.00  0.00     0.018 C 
BRANCH   8   9
ATOM      9  C   UNL d   1      14.417  17.574  -5.872  0.00  0.00     0.045 A 
ATOM     10  N   UNL d   1      13.648  17.675  -6.140  0.00  0.00    -0.308 N 
ATOM     11  C   UNL d   1      13.466  18.471  -6.122  0.00  0.00     0.060 A 
ATOM     12  C   UNL d   1      13.144  17.069  -6.387  0.00  0.00     0.099 C 
ATOM     13  C   UNL d   1      12.791  18.884  -6.322  0.00  0.00     0.017 A 
ATOM     14  C   UNL d   1      14.125  18.872  -5.840  0.00  0.00    -0.002 A 
ATOM     15  C   UNL d   1      12.769  19.709  -6.243  0.00  0.00     0.002 A 
ATOM     16  C   UNL d   1      13.437  20.104  -5.958  0.00  0.00    -0.000 A 
ATOM     17  C   UNL d   1      14.107  19.691  -5.759  0.00  0.00    -0.003 A 
ATOM     18  C   UNL d   1      14.715  18.316  -5.685  0.00  0.00     0.054 A 
ATOM     19  C   UNL d   1      15.460  18.527  -5.393  0.00  0.00     0.010 C 
ATOM     20  C   UNL d   1      14.891  19.112  -5.537  0.00  0.00     0.010 C 
ENDBRANCH   8   9
ENDBRANCH   4   8
BRANCH   1  21
ATOM     21  C   UNL d   1      13.839  14.567  -4.327  0.00  0.00     0.070 A 
ATOM     22  C   UNL d   1      13.402  14.119  -4.871  0.00  0.00     0.019 A 
ATOM     23  C   UNL d   1      13.165  13.357  -4.676  0.00  0.00     0.025 A 
ATOM     24  C   UNL d   1      13.358  13.038  -3.947  0.00  0.00     0.127 A 
ATOM     25  C   UNL d   1      13.795  13.486  -3.402  0.00  0.00     0.025 A 
ATOM     26  C   UNL d   1      14.035  14.249  -3.592  0.00  0.00     0.019 A 
BRANCH  24  27
ATOM     27  N   UNL d   1      13.120  12.275  -3.751  0.00  0.00    -0.114 N 
ATOM     28  O   UNL d   1      12.769  11.791  -4.316  0.00  0.00    -0.532 OA
ATOM     29  O   UNL d   1      13.234  11.996  -2.990  0.00  0.00    -0.532 OA
ENDBRANCH  24  27
ENDBRANCH   1  21
TORSDOF 4
ENDMDL
