MODEL 1
REMARK VINA RESULT:      34.9      0.000      0.000
REMARK  9 active torsions:
REMARK  status: ('A' for Active; 'I' for Inactive)
REMARK    1  A    between atoms: C_14  and  N_1 
REMARK    2  A    between atoms: S_6  and  C_2 
REMARK    3  A    between atoms: C_8  and  C_3 
REMARK    4  A    between atoms: C_16  and  S_6 
REMARK    5  A    between atoms: O_11  and  C_8 
REMARK    6  A    between atoms: C_9  and  C_16 
REMARK    7  A    between atoms: O_19  and  C_9 
REMARK    8  A    between atoms: C_12  and  O_11 
REMARK    9  A    between atoms: C_15  and  C_14 
ROOT
ATOM      1  N   UNL d   1      13.354  13.265  -4.330  0.00  0.00    -0.266 N 
ATOM      2  C   UNL d   1      13.153  14.058  -4.379  0.00  0.00     0.202 A 
ATOM      3  C   UNL d   1      13.120  12.990  -3.587  0.00  0.00     0.196 A 
ATOM      4  N   UNL d   1      12.796  14.279  -3.670  0.00  0.00    -0.121 NA
ATOM      5  N   UNL d   1      12.776  13.614  -3.177  0.00  0.00    -0.126 NA
ENDROOT
BRANCH   3   6
ATOM      6  C   UNL d   1      13.215  12.222  -3.302  0.00  0.00     0.162 C 
BRANCH   6   7
ATOM      7  O   UNL d   1      13.833  12.048  -2.780  0.00  0.00    -0.300 OA
BRANCH   7   8
ATOM      8  C   UNL d   1      13.684  11.962  -1.973  0.00  0.00     0.118 A 
ATOM      9  C   UNL d   1      14.309  11.962  -1.443  0.00  0.00     0.104 A 
ATOM     10  N   UNL d   1      15.084  12.047  -1.718  0.00  0.00    -0.242 NA
ATOM     11  C   UNL d   1      14.169  11.878  -0.636  0.00  0.00     0.020 A 
ATOM     12  C   UNL d   1      15.709  12.047  -1.190  0.00  0.00     0.099 A 
ATOM     13  C   UNL d   1      15.574  11.962  -0.375  0.00  0.00     0.021 A 
ATOM     14  C   UNL d   1      14.800  11.878  -0.104  0.00  0.00     0.003 A 
ATOM     15  C   UNL d   1      13.396  11.792  -0.357  0.00  0.00     0.002 A 
ATOM     16  C   UNL d   1      12.769  11.793  -0.895  0.00  0.00     0.002 A 
ATOM     17  C   UNL d   1      12.910  11.877  -1.693  0.00  0.00     0.026 A 
ENDBRANCH   7   8
ENDBRANCH   6   7
ENDBRANCH   3   6
BRANCH   1  18
ATOM     18  C   UNL d   1      13.720  12.819  -4.913  0.00  0.00     0.084 C 
BRANCH  18  19
ATOM     19  C   UNL d   1      13.394  12.096  -5.139  0.00  0.00     0.019 C 
ATOM     20  C   UNL d   1      13.539  11.799  -5.892  0.00  0.00     0.002 C 
ENDBRANCH  18  19
ENDBRANCH   1  18
BRANCH   2  21
ATOM     21  S   UNL d   1      13.282  14.554  -5.020  0.00  0.00    -0.042 SA
BRANCH  21  22
ATOM     22  C   UNL d   1      13.238  15.373  -4.937  0.00  0.00     0.107 C 
BRANCH  22  23
ATOM     23  C   UNL d   1      13.885  15.847  -5.110  0.00  0.00     0.303 C 
ATOM     24  O   UNL d   1      14.279  15.763  -5.836  0.00  0.00    -0.259 OA
BRANCH  23  25
ATOM     25  O   UNL d   1      14.152  16.409  -4.568  0.00  0.00    -0.295 OA
ATOM     26  C   UNL d   1      14.942  16.638  -4.556  0.00  0.00     0.185 C 
ENDBRANCH  23  25
ENDBRANCH  22  23
ENDBRANCH  21  22
ENDBRANCH   2  21
TORSDOF 9
ENDMDL
