MODEL 1
REMARK VINA RESULT:      -5.2      0.000      0.000
REMARK  6 active torsions:
REMARK  status: ('A' for Active; 'I' for Inactive)
REMARK    1  A    between atoms: N_2  and  C_1 
REMARK    2  A    between atoms: N_7  and  C_1 
REMARK    3  A    between atoms: C_5  and  C_3 
REMARK    4  A    between atoms: C_6  and  C_5 
REMARK       I    between atoms: N_8  and  C_6 
REMARK    5  A    between atoms: C_18  and  N_7 
REMARK    6  A    between atoms: C_9  and  N_8 
ROOT
ATOM      1  N   UNL d   1     -48.639  14.326  22.430  0.00  0.00    -0.278 N 
ATOM      2  C   UNL d   1     -47.877  14.482  22.689  0.00  0.00     0.127 A 
ATOM      3  C   UNL d   1     -47.573  15.263  22.639  0.00  0.00     0.274 A 
ATOM      4  N   UNL d   1     -48.032  15.875  22.333  0.00  0.00    -0.318 N 
ATOM      5  O   UNL d   1     -46.810  15.419  22.897  0.00  0.00    -0.266 OA
ATOM      6  C   UNL d   1     -49.108  14.930  22.122  0.00  0.00     0.101 A 
ATOM      7  C   UNL d   1     -48.804  15.699  22.075  0.00  0.00     0.094 A 
ATOM      8  H   UNL d   1     -47.741  16.644  22.280  0.00  0.00     0.169 HD
ENDROOT
BRANCH   2   9
ATOM      9  C   UNL d   1     -47.416  13.882  22.993  0.00  0.00     0.083 C 
BRANCH   9  10
ATOM     10  C   UNL d   1     -46.667  13.744  22.690  0.00  0.00     0.259 C 
ATOM     11  N   UNL d   1     -46.340  12.984  22.730  0.00  0.00    -0.321 N 
ATOM     12  H   UNL d   1     -46.768  12.365  23.074  0.00  0.00     0.169 HD
ATOM     13  O   UNL d   1     -46.239  14.364  22.345  0.00  0.00    -0.267 OA
BRANCH  11  14
ATOM     14  C   UNL d   1     -45.587  12.858  22.423  0.00  0.00     0.059 A 
ATOM     15  C   UNL d   1     -45.132  12.222  22.726  0.00  0.00     0.016 A 
ATOM     16  C   UNL d   1     -44.379  12.088  22.425  0.00  0.00     0.001 A 
ATOM     17  C   UNL d   1     -45.434  11.733  23.322  0.00  0.00     0.002 C 
ATOM     18  C   UNL d   1     -44.072  12.585  21.820  0.00  0.00     0.000 A 
ATOM     19  C   UNL d   1     -44.524  13.217  21.518  0.00  0.00     0.002 A 
ATOM     20  C   UNL d   1     -43.312  12.447  21.520  0.00  0.00     0.000 C 
ATOM     21  C   UNL d   1     -45.289  13.348  21.828  0.00  0.00     0.017 A 
ENDBRANCH  11  14
ENDBRANCH   9  10
ENDBRANCH   2   9
BRANCH   1  22
ATOM     22  C   UNL d   1     -48.938  13.561  22.479  0.00  0.00     0.184 C 
ATOM     23  S   UNL d   1     -49.045  13.135  21.784  0.00  0.00    -0.040 SA
BRANCH  22  24
ATOM     24  N   UNL d   1     -49.123  13.238  23.212  0.00  0.00    -0.331 N 
ATOM     25  H   UNL d   1     -48.733  13.520  23.878  0.00  0.00     0.168 HD
BRANCH  24  26
ATOM     26  C   UNL d   1     -49.686  12.646  23.285  0.00  0.00     0.058 A 
ATOM     27  C   UNL d   1     -49.479  11.917  23.599  0.00  0.00     0.017 A 
ATOM     28  C   UNL d   1     -50.040  11.324  23.672  0.00  0.00     0.002 A 
ATOM     29  C   UNL d   1     -50.814  11.467  23.427  0.00  0.00     0.000 A 
ATOM     30  C   UNL d   1     -51.025  12.198  23.111  0.00  0.00     0.002 A 
ATOM     31  C   UNL d   1     -50.455  12.788  23.041  0.00  0.00     0.017 A 
ENDBRANCH  24  26
ENDBRANCH  22  24
ENDBRANCH   1  22
TORSDOF 6
ENDMDL
MODEL 2
REMARK VINA RESULT:      -5.1      1.668      5.048
REMARK  6 active torsions:
REMARK  status: ('A' for Active; 'I' for Inactive)
REMARK    1  A    between atoms: N_2  and  C_1 
REMARK    2  A    between atoms: N_7  and  C_1 
REMARK    3  A    between atoms: C_5  and  C_3 
REMARK    4  A    between atoms: C_6  and  C_5 
REMARK       I    between atoms: N_8  and  C_6 
REMARK    5  A    between atoms: C_18  and  N_7 
REMARK    6  A    between atoms: C_9  and  N_8 
ROOT
ATOM      1  N   UNL d   1     -46.813  12.064  23.083  0.00  0.00    -0.278 N 
ATOM      2  C   UNL d   1     -47.601  12.151  22.873  0.00  0.00     0.127 A 
ATOM      3  C   UNL d   1     -48.153  11.550  23.072  0.00  0.00     0.274 A 
ATOM      4  N   UNL d   1     -47.912  10.874  23.476  0.00  0.00    -0.318 N 
ATOM      5  O   UNL d   1     -48.941  11.637  22.862  0.00  0.00    -0.266 OA
ATOM      6  C   UNL d   1     -46.560  11.392  23.488  0.00  0.00     0.101 A 
ATOM      7  C   UNL d   1     -47.108  10.802  23.682  0.00  0.00     0.094 A 
ATOM      8  H   UNL d   1     -48.447  10.280  23.676  0.00  0.00     0.169 HD
ENDROOT
BRANCH   2   9
ATOM      9  C   UNL d   1     -47.847  12.818  22.473  0.00  0.00     0.083 C 
BRANCH   9  10
ATOM     10  C   UNL d   1     -48.420  13.305  22.799  0.00  0.00     0.259 C 
ATOM     11  N   UNL d   1     -48.747  13.916  22.345  0.00  0.00    -0.321 N 
ATOM     12  H   UNL d   1     -48.497  14.035  21.565  0.00  0.00     0.169 HD
ATOM     13  O   UNL d   1     -48.670  13.186  23.579  0.00  0.00    -0.267 OA
BRANCH  11  14
ATOM     14  C   UNL d   1     -49.321  14.400  22.683  0.00  0.00     0.059 A 
ATOM     15  C   UNL d   1     -49.216  15.232  22.648  0.00  0.00     0.016 A 
ATOM     16  C   UNL d   1     -49.785  15.721  22.983  0.00  0.00     0.001 A 
ATOM     17  C   UNL d   1     -48.549  15.558  22.282  0.00  0.00     0.002 C 
ATOM     18  C   UNL d   1     -50.463  15.390  23.354  0.00  0.00     0.000 A 
ATOM     19  C   UNL d   1     -50.567  14.563  23.389  0.00  0.00     0.002 A 
ATOM     20  C   UNL d   1     -51.033  15.888  23.690  0.00  0.00     0.000 C 
ATOM     21  C   UNL d   1     -49.986  14.070  23.047  0.00  0.00     0.017 A 
ENDBRANCH  11  14
ENDBRANCH   9  10
ENDBRANCH   2   9
BRANCH   1  22
ATOM     22  C   UNL d   1     -46.272  12.652  22.889  0.00  0.00     0.184 C 
ATOM     23  S   UNL d   1     -46.067  13.205  23.462  0.00  0.00    -0.040 SA
BRANCH  22  24
ATOM     24  N   UNL d   1     -45.948  12.679  22.134  0.00  0.00    -0.331 N 
ATOM     25  H   UNL d   1     -46.452  12.649  21.486  0.00  0.00     0.168 HD
BRANCH  24  26
ATOM     26  C   UNL d   1     -45.137  12.734  22.022  0.00  0.00     0.058 A 
ATOM     27  C   UNL d   1     -44.644  12.124  22.263  0.00  0.00     0.017 A 
ATOM     28  C   UNL d   1     -43.834  12.178  22.152  0.00  0.00     0.002 A 
ATOM     29  C   UNL d   1     -43.519  12.851  21.796  0.00  0.00     0.000 A 
ATOM     30  C   UNL d   1     -44.011  13.466  21.552  0.00  0.00     0.002 A 
ATOM     31  C   UNL d   1     -44.824  13.403  21.668  0.00  0.00     0.017 A 
ENDBRANCH  24  26
ENDBRANCH  22  24
ENDBRANCH   1  22
TORSDOF 6
ENDMDL
MODEL 3
REMARK VINA RESULT:      -4.6      1.371      1.834
REMARK  6 active torsions:
REMARK  status: ('A' for Active; 'I' for Inactive)
REMARK    1  A    between atoms: N_2  and  C_1 
REMARK    2  A    between atoms: N_7  and  C_1 
REMARK    3  A    between atoms: C_5  and  C_3 
REMARK    4  A    between atoms: C_6  and  C_5 
REMARK       I    between atoms: N_8  and  C_6 
REMARK    5  A    between atoms: C_18  and  N_7 
REMARK    6  A    between atoms: C_9  and  N_8 
ROOT
ATOM      1  N   UNL d   1     -47.822  14.229  22.684  0.00  0.00    -0.278 N 
ATOM      2  C   UNL d   1     -47.141  13.982  23.069  0.00  0.00     0.127 A 
ATOM      3  C   UNL d   1     -46.445  14.450  23.022  0.00  0.00     0.274 A 
ATOM      4  N   UNL d   1     -46.438  15.154  22.594  0.00  0.00    -0.318 N 
ATOM      5  O   UNL d   1     -45.763  14.203  23.408  0.00  0.00    -0.266 OA
ATOM      6  C   UNL d   1     -47.827  14.931  22.252  0.00  0.00     0.101 A 
ATOM      7  C   UNL d   1     -47.138  15.389  22.209  0.00  0.00     0.094 A 
ATOM      8  H   UNL d   1     -45.759  15.618  22.544  0.00  0.00     0.169 HD
ENDROOT
BRANCH   2   9
ATOM      9  C   UNL d   1     -47.140  13.287  23.495  0.00  0.00     0.083 C 
BRANCH   9  10
ATOM     10  C   UNL d   1     -46.514  12.762  23.424  0.00  0.00     0.259 C 
ATOM     11  N   UNL d   1     -46.630  11.959  23.589  0.00  0.00    -0.321 N 
ATOM     12  H   UNL d   1     -47.375  11.686  23.826  0.00  0.00     0.169 HD
ATOM     13  O   UNL d   1     -45.769  13.035  23.187  0.00  0.00    -0.267 OA
BRANCH  11  14
ATOM     14  C   UNL d   1     -45.996  11.441  23.514  0.00  0.00     0.059 A 
ATOM     15  C   UNL d   1     -46.142  10.616  23.570  0.00  0.00     0.016 A 
ATOM     16  C   UNL d   1     -45.513  10.092  23.497  0.00  0.00     0.001 A 
ATOM     17  C   UNL d   1     -46.908  10.331  23.698  0.00  0.00     0.002 C 
ATOM     18  C   UNL d   1     -44.734  10.381  23.367  0.00  0.00     0.000 A 
ATOM     19  C   UNL d   1     -44.589  11.200  23.311  0.00  0.00     0.002 A 
ATOM     20  C   UNL d   1     -44.104   9.848  23.293  0.00  0.00     0.000 C 
ATOM     21  C   UNL d   1     -45.231  11.729  23.387  0.00  0.00     0.017 A 
ENDBRANCH  11  14
ENDBRANCH   9  10
ENDBRANCH   2   9
BRANCH   1  22
ATOM     22  C   UNL d   1     -48.504  13.772  22.729  0.00  0.00     0.184 C 
ATOM     23  S   UNL d   1     -48.957  13.805  23.415  0.00  0.00    -0.040 SA
BRANCH  22  24
ATOM     24  N   UNL d   1     -48.721  13.294  22.096  0.00  0.00    -0.331 N 
ATOM     25  H   UNL d   1     -48.138  13.039  21.576  0.00  0.00     0.168 HD
BRANCH  24  26
ATOM     26  C   UNL d   1     -49.502  13.073  21.980  0.00  0.00     0.058 A 
ATOM     27  C   UNL d   1     -49.892  12.624  22.546  0.00  0.00     0.017 A 
ATOM     28  C   UNL d   1     -50.673  12.403  22.431  0.00  0.00     0.002 A 
ATOM     29  C   UNL d   1     -51.062  12.634  21.742  0.00  0.00     0.000 A 
ATOM     30  C   UNL d   1     -50.673  13.084  21.172  0.00  0.00     0.002 A 
ATOM     31  C   UNL d   1     -49.888  13.302  21.295  0.00  0.00     0.017 A 
ENDBRANCH  24  26
ENDBRANCH  22  24
ENDBRANCH   1  22
TORSDOF 6
ENDMDL
MODEL 4
REMARK VINA RESULT:      -4.1      6.262      8.724
REMARK  6 active torsions:
REMARK  status: ('A' for Active; 'I' for Inactive)
REMARK    1  A    between atoms: N_2  and  C_1 
REMARK    2  A    between atoms: N_7  and  C_1 
REMARK    3  A    between atoms: C_5  and  C_3 
REMARK    4  A    between atoms: C_6  and  C_5 
REMARK       I    between atoms: N_8  and  C_6 
REMARK    5  A    between atoms: C_18  and  N_7 
REMARK    6  A    between atoms: C_9  and  N_8 
ROOT
ATOM      1  N   UNL d   1     -39.804  15.091  20.955  0.00  0.00    -0.278 N 
ATOM      2  C   UNL d   1     -39.344  15.374  20.338  0.00  0.00     0.127 A 
ATOM      3  C   UNL d   1     -38.560  15.635  20.490  0.00  0.00     0.274 A 
ATOM      4  N   UNL d   1     -38.247  15.610  21.251  0.00  0.00    -0.318 N 
ATOM      5  O   UNL d   1     -38.100  15.918  19.872  0.00  0.00    -0.266 OA
ATOM      6  C   UNL d   1     -39.502  15.062  21.722  0.00  0.00     0.101 A 
ATOM      7  C   UNL d   1     -38.728  15.320  21.867  0.00  0.00     0.094 A 
ATOM      8  H   UNL d   1     -37.479  15.864  21.408  0.00  0.00     0.169 HD
ENDROOT
BRANCH   2   9
ATOM      9  C   UNL d   1     -39.646  15.401  19.581  0.00  0.00     0.083 C 
BRANCH   9  10
ATOM     10  C   UNL d   1     -39.259  15.015  18.970  0.00  0.00     0.259 C 
ATOM     11  N   UNL d   1     -39.545  15.082  18.195  0.00  0.00    -0.321 N 
ATOM     12  H   UNL d   1     -40.220  15.537  18.038  0.00  0.00     0.169 HD
ATOM     13  O   UNL d   1     -38.585  14.561  19.127  0.00  0.00    -0.267 OA
BRANCH  11  14
ATOM     14  C   UNL d   1     -39.150  14.691  17.589  0.00  0.00     0.059 A 
ATOM     15  C   UNL d   1     -39.029  15.094  16.863  0.00  0.00     0.016 A 
ATOM     16  C   UNL d   1     -38.634  14.711  16.253  0.00  0.00     0.001 A 
ATOM     17  C   UNL d   1     -39.302  15.869  16.760  0.00  0.00     0.002 C 
ATOM     18  C   UNL d   1     -38.357  13.923  16.358  0.00  0.00     0.000 A 
ATOM     19  C   UNL d   1     -38.477  13.523  17.079  0.00  0.00     0.002 A 
ATOM     20  C   UNL d   1     -37.960  13.541  15.739  0.00  0.00     0.000 C 
ATOM     21  C   UNL d   1     -38.879  13.917  17.696  0.00  0.00     0.017 A 
ENDBRANCH  11  14
ENDBRANCH   9  10
ENDBRANCH   2   9
BRANCH   1  22
ATOM     22  C   UNL d   1     -40.571  14.835  20.808  0.00  0.00     0.184 C 
ATOM     23  S   UNL d   1     -41.180  15.389  20.815  0.00  0.00    -0.040 SA
BRANCH  22  24
ATOM     24  N   UNL d   1     -40.718  14.041  20.658  0.00  0.00    -0.331 N 
ATOM     25  H   UNL d   1     -40.154  13.605  20.249  0.00  0.00     0.168 HD
BRANCH  24  26
ATOM     26  C   UNL d   1     -41.412  13.682  20.910  0.00  0.00     0.058 A 
ATOM     27  C   UNL d   1     -41.438  13.295  21.633  0.00  0.00     0.017 A 
ATOM     28  C   UNL d   1     -42.131  12.937  21.885  0.00  0.00     0.002 A 
ATOM     29  C   UNL d   1     -42.801  12.969  21.406  0.00  0.00     0.000 A 
ATOM     30  C   UNL d   1     -42.778  13.357  20.679  0.00  0.00     0.002 A 
ATOM     31  C   UNL d   1     -42.077  13.714  20.434  0.00  0.00     0.017 A 
ENDBRANCH  24  26
ENDBRANCH  22  24
ENDBRANCH   1  22
TORSDOF 6
ENDMDL
