MODEL 1
REMARK VINA RESULT:     143.6      0.000      0.000
REMARK  9 active torsions:
REMARK  status: ('A' for Active; 'I' for Inactive)
REMARK    1  A    between atoms: N_6  and  S_1 
REMARK    2  A    between atoms: C_12  and  S_1 
REMARK    3  A    between atoms: C_2  and  C_3 
REMARK    4  A    between atoms: C_4  and  C_2 
REMARK    5  A    between atoms: C_5  and  C_2 
REMARK    6  A    between atoms: O_14  and  C_4 
REMARK    7  A    between atoms: C_9  and  C_5 
REMARK    8  A    between atoms: C_7  and  N_6 
REMARK    9  A    between atoms: C_29  and  O_14 
ROOT
ATOM      1  C   UNL d   1     -56.910 -99.321 -43.590  0.00  0.00     0.049 A 
ATOM      2  C   UNL d   1     -55.998 -99.524 -42.514  0.00  0.00     0.094 A 
ATOM      3  C   UNL d   1     -57.481 -99.063 -43.047  0.00  0.00     0.196 A 
ATOM      4  C   UNL d   1     -56.171 -99.550 -43.325  0.00  0.00     0.023 A 
ATOM      5  C   UNL d   1     -57.310 -99.035 -42.230  0.00  0.00     0.040 A 
ATOM      6  C   UNL d   1     -56.571 -99.265 -41.965  0.00  0.00     0.021 A 
ATOM      7  O   UNL d   1     -58.227 -98.832 -43.314  0.00  0.00    -0.287 OA
ATOM      8  C   UNL d   1     -57.908 -98.773 -41.731  0.00  0.00     0.003 A 
ATOM      9  C   UNL d   1     -56.390 -99.241 -41.159  0.00  0.00     0.002 A 
ATOM     10  C   UNL d   1     -57.690 -98.757 -40.871  0.00  0.00     0.000 A 
ATOM     11  C   UNL d   1     -56.968 -98.981 -40.611  0.00  0.00     0.000 A 
ENDROOT
BRANCH   2  12
ATOM     12  N   UNL d   1     -55.226 -99.767 -42.272  0.00  0.00    -0.158 NA
BRANCH  12  13
ATOM     13  S   UNL d   1     -55.143-100.378 -41.733  0.00  0.00     0.285 S 
ATOM     14  O   UNL d   1     -54.748 -99.861 -41.203  0.00  0.00    -0.198 OA
ATOM     15  O   UNL d   1     -55.530-100.904 -42.243  0.00  0.00    -0.198 OA
BRANCH  13  16
ATOM     16  C   UNL d   1     -55.049-101.003 -41.166  0.00  0.00     0.105 A 
ATOM     17  C   UNL d   1     -55.044-100.851 -40.368  0.00  0.00     0.013 A 
ATOM     18  C   UNL d   1     -54.955-101.449 -39.828  0.00  0.00     0.001 A 
ATOM     19  C   UNL d   1     -54.953-101.279 -39.034  0.00  0.00     0.000 A 
ATOM     20  C   UNL d   1     -54.864-102.254 -40.092  0.00  0.00     0.000 A 
ATOM     21  C   UNL d   1     -54.857-101.912 -38.444  0.00  0.00     0.000 A 
ATOM     22  C   UNL d   1     -54.769-102.698 -38.713  0.00  0.00     0.000 A 
ATOM     23  C   UNL d   1     -54.771-102.876 -39.538  0.00  0.00     0.000 A 
ATOM     24  C   UNL d   1     -54.872-102.380 -40.896  0.00  0.00     0.001 A 
ATOM     25  C   UNL d   1     -54.962-101.777 -41.438  0.00  0.00     0.013 A 
ENDBRANCH  13  16
ENDBRANCH  12  13
ENDBRANCH   2  12
BRANCH   1  26
ATOM     26  C   UNL d   1     -57.082 -99.349 -44.407  0.00  0.00     0.110 C 
BRANCH  26  27
ATOM     27  C   UNL d   1     -57.877 -99.379 -44.626  0.00  0.00     0.303 C 
ATOM     28  O   UNL d   1     -58.377 -99.959 -44.316  0.00  0.00    -0.259 OA
BRANCH  27  29
ATOM     29  O   UNL d   1     -58.130 -98.809 -45.158  0.00  0.00    -0.273 OA
BRANCH  29  30
ATOM     30  C   UNL d   1     -58.830 -98.940 -45.574  0.00  0.00     0.103 C 
ATOM     31  C   UNL d   1     -58.828 -98.926 -46.374  0.00  0.00     0.027 C 
ATOM     32  C   UNL d   1     -59.523 -99.084 -45.154  0.00  0.00     0.027 C 
ENDBRANCH  29  30
ENDBRANCH  27  29
ENDBRANCH  26  27
BRANCH  26  33
ATOM     33  C   UNL d   1     -56.469 -99.346 -44.973  0.00  0.00     0.272 C 
ATOM     34  O   UNL d   1     -56.438 -98.758 -45.517  0.00  0.00    -0.282 OA
BRANCH  33  35
ATOM     35  C   UNL d   1     -55.909 -99.942 -44.966  0.00  0.00     0.456 C 
ATOM     36  F   UNL d   1     -55.355 -99.373 -44.679  0.00  0.00    -0.163 F 
ATOM     37  F   UNL d   1     -56.472-100.474 -45.245  0.00  0.00    -0.163 F 
ATOM     38  F   UNL d   1     -55.336-100.516 -44.948  0.00  0.00    -0.163 F 
ENDBRANCH  33  35
ENDBRANCH  26  33
ENDBRANCH   1  26
TORSDOF 9
ENDMDL
