MODEL 1
REMARK VINA RESULT:      38.3      0.000      0.000
REMARK  5 active torsions:
REMARK  status: ('A' for Active; 'I' for Inactive)
REMARK    1  A    between atoms: C_10  and  C_4 
REMARK       I    between atoms: C_6  and  N_8 
REMARK    2  A    between atoms: C_9  and  C_6 
REMARK    3  A    between atoms: N_8  and  C_13 
REMARK    4  A    between atoms: C_11  and  C_9 
REMARK    5  A    between atoms: C_13  and  C_10 
ROOT
ATOM      1  C   UNL d   1      60.187  49.484  49.993  0.00  0.00     0.279 C 
ATOM      2  O   UNL d   1      60.986  49.321  49.858  0.00  0.00    -0.265 OA
ATOM      3  N   UNL d   1      59.659  49.479  49.369  0.00  0.00    -0.206 NA
ENDROOT
BRANCH   1   4
ATOM      4  C   UNL d   1      59.930  49.650  50.759  0.00  0.00     0.062 C 
BRANCH   4   5
ATOM      5  C   UNL d   1      60.420  49.487  51.411  0.00  0.00     0.005 A 
ATOM      6  C   UNL d   1      60.078  49.411  52.142  0.00  0.00     0.001 A 
ATOM      7  C   UNL d   1      60.559  49.249  52.793  0.00  0.00     0.011 A 
ATOM      8  C   UNL d   1      61.371  49.166  52.706  0.00  0.00     0.058 A 
ATOM      9  C   UNL d   1      61.714  49.245  51.961  0.00  0.00     0.011 A 
ATOM     10 CL   UNL d   1      61.847  49.003  53.368  0.00  0.00    -0.082 Cl
ATOM     11  C   UNL d   1      61.235  49.406  51.311  0.00  0.00     0.001 A 
ENDBRANCH   4   5
ENDBRANCH   1   4
BRANCH   3  12
ATOM     12  C   UNL d   1      58.846  49.646  49.512  0.00  0.00     0.104 C 
BRANCH  12  13
ATOM     13  C   UNL d   1      58.309  49.020  49.556  0.00  0.00     0.040 C 
BRANCH  13  14
ATOM     14  C   UNL d   1      57.514  49.181  49.744  0.00  0.00     0.090 A 
ATOM     15  N   UNL d   1      57.305  49.351  50.525  0.00  0.00    -0.238 NA
ATOM     16  C   UNL d   1      56.491  49.486  50.546  0.00  0.00     0.111 A 
ATOM     17  S   UNL d   1      56.200  49.402  49.787  0.00  0.00    -0.066 SA
ATOM     18  C   UNL d   1      56.038  49.676  51.214  0.00  0.00     0.028 C 
ATOM     19  C   UNL d   1      56.824  49.213  49.283  0.00  0.00     0.056 A 
ENDBRANCH  13  14
ENDBRANCH  12  13
ENDBRANCH   3  12
TORSDOF 5
ENDMDL
