MODEL 1
REMARK VINA RESULT:      -2.4      0.000      0.000
REMARK  7 active torsions:
REMARK  status: ('A' for Active; 'I' for Inactive)
REMARK    1  A    between atoms: C_3  and  N_1 
REMARK       I    between atoms: C_2  and  N_8 
REMARK    2  A    between atoms: O_16  and  C_2 
REMARK    3  A    between atoms: C_7  and  C_5 
REMARK    4  A    between atoms: C_12  and  C_7 
REMARK    5  A    between atoms: N_8  and  C_14 
REMARK    6  A    between atoms: S_11  and  C_12 
REMARK    7  A    between atoms: C_15  and  S_11 
ROOT
ATOM      1  S   UNL d   1      33.237  19.455 -22.484  0.00  0.00    -0.083 SA
ENDROOT
BRANCH   1   2
ATOM      2  C   UNL d   1      32.749  20.096 -22.327  0.00  0.00     0.077 C 
BRANCH   2   3
ATOM      3  C   UNL d   1      32.938  20.619 -21.717  0.00  0.00     0.202 C 
ATOM      4  O   UNL d   1      33.187  20.330 -20.990  0.00  0.00    -0.286 OA
BRANCH   3   5
ATOM      5  C   UNL d   1      32.876  21.433 -21.840  0.00  0.00     0.041 A 
ATOM      6  C   UNL d   1      32.469  21.899 -21.304  0.00  0.00     0.027 A 
ATOM      7  C   UNL d   1      32.408  22.712 -21.427  0.00  0.00     0.127 A 
ATOM      8  C   UNL d   1      32.759  23.056 -22.095  0.00  0.00     0.024 A 
ATOM      9  C   UNL d   1      33.167  22.584 -22.632  0.00  0.00     0.002 A 
ATOM     10  C   UNL d   1      33.227  21.778 -22.508  0.00  0.00     0.003 A 
BRANCH   7  11
ATOM     11  N   UNL d   1      31.998  23.185 -20.888  0.00  0.00    -0.114 N 
ATOM     12  O   UNL d   1      32.308  23.480 -20.181  0.00  0.00    -0.532 OA
ATOM     13  O   UNL d   1      31.225  23.421 -20.991  0.00  0.00    -0.532 OA
ENDBRANCH   7  11
ENDBRANCH   3   5
ENDBRANCH   2   3
ENDBRANCH   1   2
BRANCH   1  14
ATOM     14  C   UNL d   1      32.969  18.839 -22.967  0.00  0.00     0.030 A 
ATOM     15  C   UNL d   1      33.081  18.037 -22.752  0.00  0.00     0.008 A 
ATOM     16  C   UNL d   1      32.813  17.423 -23.233  0.00  0.00     0.020 A 
ATOM     17  C   UNL d   1      32.427  17.595 -23.942  0.00  0.00     0.087 A 
ATOM     18  C   UNL d   1      32.308  18.375 -24.168  0.00  0.00     0.020 A 
ATOM     19  C   UNL d   1      32.576  18.989 -23.687  0.00  0.00     0.008 A 
BRANCH  17  20
ATOM     20  N   UNL d   1      32.158  16.978 -24.425  0.00  0.00    -0.186 NA
ATOM     21  C   UNL d   1      31.427  16.632 -24.282  0.00  0.00     0.388 C 
ATOM     22  O   UNL d   1      30.959  16.898 -23.657  0.00  0.00    -0.236 OA
BRANCH  21  23
ATOM     23  O   UNL d   1      31.160  16.018 -24.764  0.00  0.00    -0.281 OA
ATOM     24  C   UNL d   1      30.362  15.806 -24.753  0.00  0.00     0.186 C 
ENDBRANCH  21  23
ENDBRANCH  17  20
ENDBRANCH   1  14
TORSDOF 7
ENDMDL
MODEL 2
REMARK VINA RESULT:      -1.6      2.325      3.554
REMARK  7 active torsions:
REMARK  status: ('A' for Active; 'I' for Inactive)
REMARK    1  A    between atoms: C_3  and  N_1 
REMARK       I    between atoms: C_2  and  N_8 
REMARK    2  A    between atoms: O_16  and  C_2 
REMARK    3  A    between atoms: C_7  and  C_5 
REMARK    4  A    between atoms: C_12  and  C_7 
REMARK    5  A    between atoms: N_8  and  C_14 
REMARK    6  A    between atoms: S_11  and  C_12 
REMARK    7  A    between atoms: C_15  and  S_11 
ROOT
ATOM      1  S   UNL d   1      31.714  16.847 -24.545  0.00  0.00    -0.083 SA
ENDROOT
BRANCH   1   2
ATOM      2  C   UNL d   1      31.877  17.608 -24.283  0.00  0.00     0.077 C 
BRANCH   2   3
ATOM      3  C   UNL d   1      32.631  17.797 -24.006  0.00  0.00     0.202 C 
ATOM      4  O   UNL d   1      33.191  17.205 -23.903  0.00  0.00    -0.286 OA
BRANCH   3   5
ATOM      5  C   UNL d   1      32.821  18.581 -23.833  0.00  0.00     0.041 A 
ATOM      6  C   UNL d   1      32.904  18.820 -23.054  0.00  0.00     0.027 A 
ATOM      7  C   UNL d   1      33.094  19.604 -22.881  0.00  0.00     0.127 A 
ATOM      8  C   UNL d   1      33.200  20.149 -23.497  0.00  0.00     0.024 A 
ATOM      9  C   UNL d   1      33.116  19.904 -24.280  0.00  0.00     0.002 A 
ATOM     10  C   UNL d   1      32.927  19.126 -24.449  0.00  0.00     0.003 A 
BRANCH   7  11
ATOM     11  N   UNL d   1      33.178  19.848 -22.097  0.00  0.00    -0.114 N 
ATOM     12  O   UNL d   1      33.240  19.345 -21.444  0.00  0.00    -0.532 OA
ATOM     13  O   UNL d   1      33.212  20.630 -21.869  0.00  0.00    -0.532 OA
ENDBRANCH   7  11
ENDBRANCH   3   5
ENDBRANCH   2   3
ENDBRANCH   1   2
BRANCH   1  14
ATOM     14  C   UNL d   1      30.959  16.524 -24.435  0.00  0.00     0.030 A 
ATOM     15  C   UNL d   1      30.817  15.940 -23.851  0.00  0.00     0.008 A 
ATOM     16  C   UNL d   1      30.066  15.618 -23.741  0.00  0.00     0.020 A 
ATOM     17  C   UNL d   1      29.438  15.873 -24.212  0.00  0.00     0.087 A 
ATOM     18  C   UNL d   1      29.559  16.444 -24.788  0.00  0.00     0.020 A 
ATOM     19  C   UNL d   1      30.310  16.766 -24.898  0.00  0.00     0.008 A 
BRANCH  17  20
ATOM     20  N   UNL d   1      28.683  15.549 -24.102  0.00  0.00    -0.186 NA
ATOM     21  C   UNL d   1      28.136  15.934 -23.625  0.00  0.00     0.388 C 
ATOM     22  O   UNL d   1      28.338  16.644 -23.254  0.00  0.00    -0.236 OA
BRANCH  21  23
ATOM     23  O   UNL d   1      27.385  15.612 -23.515  0.00  0.00    -0.281 OA
ATOM     24  C   UNL d   1      26.914  15.874 -22.890  0.00  0.00     0.186 C 
ENDBRANCH  21  23
ENDBRANCH  17  20
ENDBRANCH   1  14
TORSDOF 7
ENDMDL
MODEL 3
REMARK VINA RESULT:      -1.0      1.190      1.617
REMARK  7 active torsions:
REMARK  status: ('A' for Active; 'I' for Inactive)
REMARK    1  A    between atoms: C_3  and  N_1 
REMARK       I    between atoms: C_2  and  N_8 
REMARK    2  A    between atoms: O_16  and  C_2 
REMARK    3  A    between atoms: C_7  and  C_5 
REMARK    4  A    between atoms: C_12  and  C_7 
REMARK    5  A    between atoms: N_8  and  C_14 
REMARK    6  A    between atoms: S_11  and  C_12 
REMARK    7  A    between atoms: C_15  and  S_11 
ROOT
ATOM      1  S   UNL d   1      33.241  20.586 -22.512  0.00  0.00    -0.083 SA
ENDROOT
BRANCH   1   2
ATOM      2  C   UNL d   1      32.656  21.113 -22.278  0.00  0.00     0.077 C 
BRANCH   2   3
ATOM      3  C   UNL d   1      32.825  21.919 -22.223  0.00  0.00     0.202 C 
ATOM      4  O   UNL d   1      33.238  22.294 -22.825  0.00  0.00    -0.286 OA
BRANCH   3   5
ATOM      5  C   UNL d   1      32.578  22.346 -21.561  0.00  0.00     0.041 A 
ATOM      6  C   UNL d   1      32.914  22.197 -20.829  0.00  0.00     0.027 A 
ATOM      7  C   UNL d   1      32.667  22.624 -20.168  0.00  0.00     0.127 A 
ATOM      8  C   UNL d   1      32.079  23.203 -20.246  0.00  0.00     0.024 A 
ATOM      9  C   UNL d   1      31.743  23.350 -20.985  0.00  0.00     0.002 A 
ATOM     10  C   UNL d   1      31.990  22.925 -21.639  0.00  0.00     0.003 A 
BRANCH   7  11
ATOM     11  N   UNL d   1      33.003  22.477 -19.428  0.00  0.00    -0.114 N 
ATOM     12  O   UNL d   1      33.144  23.048 -18.847  0.00  0.00    -0.532 OA
ATOM     13  O   UNL d   1      33.241  21.739 -19.179  0.00  0.00    -0.532 OA
ENDBRANCH   7  11
ENDBRANCH   3   5
ENDBRANCH   2   3
ENDBRANCH   1   2
BRANCH   1  14
ATOM     14  C   UNL d   1      33.035  19.884 -22.899  0.00  0.00     0.030 A 
ATOM     15  C   UNL d   1      33.134  19.798 -23.727  0.00  0.00     0.008 A 
ATOM     16  C   UNL d   1      32.929  19.098 -24.113  0.00  0.00     0.020 A 
ATOM     17  C   UNL d   1      32.619  18.467 -23.681  0.00  0.00     0.087 A 
ATOM     18  C   UNL d   1      32.514  18.534 -22.869  0.00  0.00     0.020 A 
ATOM     19  C   UNL d   1      32.720  19.234 -22.483  0.00  0.00     0.008 A 
BRANCH  17  20
ATOM     20  N   UNL d   1      32.412  17.764 -24.068  0.00  0.00    -0.186 NA
ATOM     21  C   UNL d   1      31.631  17.626 -24.281  0.00  0.00     0.388 C 
ATOM     22  O   UNL d   1      31.050  18.187 -24.109  0.00  0.00    -0.236 OA
BRANCH  21  23
ATOM     23  O   UNL d   1      31.426  16.927 -24.667  0.00  0.00    -0.281 OA
ATOM     24  C   UNL d   1      30.685  16.858 -25.024  0.00  0.00     0.186 C 
ENDBRANCH  21  23
ENDBRANCH  17  20
ENDBRANCH   1  14
TORSDOF 7
ENDMDL
MODEL 4
REMARK VINA RESULT:      -0.5      1.208      5.589
REMARK  7 active torsions:
REMARK  status: ('A' for Active; 'I' for Inactive)
REMARK    1  A    between atoms: C_3  and  N_1 
REMARK       I    between atoms: C_2  and  N_8 
REMARK    2  A    between atoms: O_16  and  C_2 
REMARK    3  A    between atoms: C_7  and  C_5 
REMARK    4  A    between atoms: C_12  and  C_7 
REMARK    5  A    between atoms: N_8  and  C_14 
REMARK    6  A    between atoms: S_11  and  C_12 
REMARK    7  A    between atoms: C_15  and  S_11 
ROOT
ATOM      1  S   UNL d   1      33.225  19.976 -22.539  0.00  0.00    -0.083 SA
ENDROOT
BRANCH   1   2
ATOM      2  C   UNL d   1      32.638  19.403 -22.579  0.00  0.00     0.077 C 
BRANCH   2   3
ATOM      3  C   UNL d   1      32.841  18.611 -22.692  0.00  0.00     0.202 C 
ATOM      4  O   UNL d   1      33.240  18.201 -22.103  0.00  0.00    -0.286 OA
BRANCH   3   5
ATOM      5  C   UNL d   1      32.643  18.233 -23.399  0.00  0.00     0.041 A 
ATOM      6  C   UNL d   1      31.857  18.104 -23.587  0.00  0.00     0.027 A 
ATOM      7  C   UNL d   1      31.659  17.726 -24.293  0.00  0.00     0.127 A 
ATOM      8  C   UNL d   1      32.257  17.477 -24.810  0.00  0.00     0.024 A 
ATOM      9  C   UNL d   1      33.047  17.609 -24.617  0.00  0.00     0.002 A 
ATOM     10  C   UNL d   1      33.241  17.984 -23.916  0.00  0.00     0.003 A 
BRANCH   7  11
ATOM     11  N   UNL d   1      30.867  17.595 -24.487  0.00  0.00    -0.114 N 
ATOM     12  O   UNL d   1      30.320  18.182 -24.686  0.00  0.00    -0.532 OA
ATOM     13  O   UNL d   1      30.523  16.856 -24.504  0.00  0.00    -0.532 OA
ENDBRANCH   7  11
ENDBRANCH   3   5
ENDBRANCH   2   3
ENDBRANCH   1   2
BRANCH   1  14
ATOM     14  C   UNL d   1      33.108  20.658 -22.084  0.00  0.00     0.030 A 
ATOM     15  C   UNL d   1      33.196  21.422 -22.414  0.00  0.00     0.008 A 
ATOM     16  C   UNL d   1      33.080  22.101 -21.960  0.00  0.00     0.020 A 
ATOM     17  C   UNL d   1      32.872  22.032 -21.164  0.00  0.00     0.087 A 
ATOM     18  C   UNL d   1      32.782  21.290 -20.824  0.00  0.00     0.020 A 
ATOM     19  C   UNL d   1      32.898  20.612 -21.278  0.00  0.00     0.008 A 
BRANCH  17  20
ATOM     20  N   UNL d   1      32.755  22.714 -20.708  0.00  0.00    -0.186 NA
ATOM     21  C   UNL d   1      32.866  22.688 -19.895  0.00  0.00     0.388 C 
ATOM     22  O   UNL d   1      33.094  21.984 -19.530  0.00  0.00    -0.236 OA
BRANCH  21  23
ATOM     23  O   UNL d   1      32.750  23.367 -19.440  0.00  0.00    -0.281 OA
ATOM     24  C   UNL d   1      32.986  23.377 -18.650  0.00  0.00     0.186 C 
ENDBRANCH  21  23
ENDBRANCH  17  20
ENDBRANCH   1  14
TORSDOF 7
ENDMDL
