MODEL 1
REMARK VINA RESULT:      38.2      0.000      0.000
REMARK  6 active torsions:
REMARK  status: ('A' for Active; 'I' for Inactive)
REMARK    1  A    between atoms: O_9  and  S_1 
REMARK    2  A    between atoms: C_10  and  C_4 
REMARK    3  A    between atoms: C_14  and  O_9 
REMARK    4  A    between atoms: C_13  and  C_10 
REMARK    5  A    between atoms: C_16  and  C_13 
REMARK    6  A    between atoms: C_19  and  C_16 
ROOT
ATOM      1  C   UNL d   1      15.857  14.189  -0.170  0.00  0.00     0.064 A 
ATOM      2  C   UNL d   1      15.070  14.363  -0.349  0.00  0.00     0.105 A 
ATOM      3  C   UNL d   1      15.212  13.031  -0.345  0.00  0.00     0.139 A 
ATOM      4  C   UNL d   1      15.943  13.368  -0.168  0.00  0.00     0.220 A 
ATOM      5  O   UNL d   1      14.665  13.646  -0.459  0.00  0.00    -0.304 OA
ATOM      6  C   UNL d   1      14.823  15.147  -0.389  0.00  0.00     0.050 A 
ATOM      7  C   UNL d   1      16.395  14.799  -0.031  0.00  0.00     0.007 A 
ATOM      8  C   UNL d   1      15.358  15.750  -0.251  0.00  0.00     0.115 A 
ATOM      9  O   UNL d   1      16.644  12.952  -0.014  0.00  0.00    -0.284 OA
ATOM     10  C   UNL d   1      16.143  15.584  -0.072  0.00  0.00     0.026 A 
ENDROOT
BRANCH   3  11
ATOM     11  C   UNL d   1      15.046  12.222  -0.401  0.00  0.00     0.028 C 
BRANCH  11  12
ATOM     12  C   UNL d   1      14.844  11.887  -1.130  0.00  0.00     0.002 C 
BRANCH  12  13
ATOM     13  C   UNL d   1      14.055  11.793  -1.340  0.00  0.00     0.000 C 
BRANCH  13  14
ATOM     14  C   UNL d   1      13.826  11.811  -2.126  0.00  0.00     0.000 A 
ATOM     15  C   UNL d   1      14.392  11.780  -2.727  0.00  0.00     0.000 A 
ATOM     16  C   UNL d   1      14.160  11.797  -3.523  0.00  0.00     0.000 A 
ATOM     17  C   UNL d   1      13.358  11.846  -3.715  0.00  0.00     0.000 A 
ATOM     18  C   UNL d   1      12.791  11.877  -3.108  0.00  0.00     0.000 A 
ATOM     19  C   UNL d   1      13.030  11.859  -2.318  0.00  0.00     0.000 A 
ENDBRANCH  13  14
ENDBRANCH  12  13
ENDBRANCH  11  12
ENDBRANCH   3  11
BRANCH   8  20
ATOM     20  O   UNL d   1      15.109  16.542  -0.291  0.00  0.00    -0.230 OA
BRANCH  20  21
ATOM     21  S   UNL d   1      15.105  16.935  -1.019  0.00  0.00     0.285 S 
ATOM     22  O   UNL d   1      15.053  17.384  -0.327  0.00  0.00    -0.197 OA
ATOM     23  O   UNL d   1      15.155  16.506  -1.707  0.00  0.00    -0.197 OA
ATOM     24  C   UNL d   1      15.071  17.639  -1.465  0.00  0.00     0.172 C 
ENDBRANCH  20  21
ENDBRANCH   8  20
TORSDOF 6
ENDMDL
MODEL 2
REMARK VINA RESULT:      38.3      2.524      3.990
REMARK  6 active torsions:
REMARK  status: ('A' for Active; 'I' for Inactive)
REMARK    1  A    between atoms: O_9  and  S_1 
REMARK    2  A    between atoms: C_10  and  C_4 
REMARK    3  A    between atoms: C_14  and  O_9 
REMARK    4  A    between atoms: C_13  and  C_10 
REMARK    5  A    between atoms: C_16  and  C_13 
REMARK    6  A    between atoms: C_19  and  C_16 
ROOT
ATOM      1  C   UNL d   1      13.580  13.594  -4.834  0.00  0.00     0.064 A 
ATOM      2  C   UNL d   1      13.478  14.017  -4.132  0.00  0.00     0.105 A 
ATOM      3  C   UNL d   1      13.206  12.728  -3.886  0.00  0.00     0.139 A 
ATOM      4  C   UNL d   1      13.412  12.800  -4.681  0.00  0.00     0.220 A 
ATOM      5  O   UNL d   1      13.246  13.483  -3.540  0.00  0.00    -0.304 OA
ATOM      6  C   UNL d   1      13.609  14.829  -4.121  0.00  0.00     0.050 A 
ATOM      7  C   UNL d   1      13.812  13.985  -5.523  0.00  0.00     0.007 A 
ATOM      8  C   UNL d   1      13.839  15.214  -4.806  0.00  0.00     0.115 A 
ATOM      9  O   UNL d   1      13.445  12.181  -5.231  0.00  0.00    -0.284 OA
ATOM     10  C   UNL d   1      13.942  14.800  -5.508  0.00  0.00     0.026 A 
ENDROOT
BRANCH   3  11
ATOM     11  C   UNL d   1      12.996  12.030  -3.496  0.00  0.00     0.028 C 
BRANCH  11  12
ATOM     12  C   UNL d   1      13.419  11.780  -2.830  0.00  0.00     0.002 C 
BRANCH  12  13
ATOM     13  C   UNL d   1      13.167  11.988  -2.076  0.00  0.00     0.000 C 
BRANCH  13  14
ATOM     14  C   UNL d   1      13.678  11.940  -1.436  0.00  0.00     0.000 A 
ATOM     15  C   UNL d   1      13.382  11.828  -0.673  0.00  0.00     0.000 A 
ATOM     16  C   UNL d   1      13.900  11.780  -0.027  0.00  0.00     0.000 A 
ATOM     17  C   UNL d   1      14.715  11.843  -0.149  0.00  0.00     0.000 A 
ATOM     18  C   UNL d   1      15.008  11.955  -0.918  0.00  0.00     0.000 A 
ATOM     19  C   UNL d   1      14.487  12.002  -1.556  0.00  0.00     0.000 A 
ENDBRANCH  13  14
ENDBRANCH  12  13
ENDBRANCH  11  12
ENDBRANCH   3  11
BRANCH   8  20
ATOM     20  O   UNL d   1      13.971  16.035  -4.795  0.00  0.00    -0.230 OA
BRANCH  20  21
ATOM     21  S   UNL d   1      14.504  16.358  -4.252  0.00  0.00     0.285 S 
ATOM     22  O   UNL d   1      14.717  16.336  -5.051  0.00  0.00    -0.197 OA
ATOM     23  O   UNL d   1      14.308  16.386  -3.465  0.00  0.00    -0.197 OA
ATOM     24  C   UNL d   1      15.237  16.717  -4.078  0.00  0.00     0.172 C 
ENDBRANCH  20  21
ENDBRANCH   8  20
TORSDOF 6
ENDMDL
