MODEL 1
REMARK VINA RESULT:      -3.5      0.000      0.000
REMARK  3 active torsions:
REMARK  status: ('A' for Active; 'I' for Inactive)
REMARK    1  A    between atoms: O_9  and  C_1 
REMARK    2  A    between atoms: C_13  and  O_9 
REMARK    3  A    between atoms: C_16  and  C_11 
ROOT
ATOM      1  C   UNL d   1      32.563  17.604 -23.710  0.00  0.00     0.161 A 
ATOM      2  C   UNL d   1      31.247  17.263 -24.150  0.00  0.00     0.064 A 
ATOM      3  C   UNL d   1      31.883  17.773 -24.169  0.00  0.00     0.222 A 
ATOM      4  C   UNL d   1      31.259  16.583 -23.688  0.00  0.00     0.106 A 
ATOM      5  C   UNL d   1      32.575  16.911 -23.239  0.00  0.00     0.126 A 
ATOM      6  O   UNL d   1      31.907  16.412 -23.244  0.00  0.00    -0.305 OA
ATOM      7  C   UNL d   1      30.588  17.450 -24.610  0.00  0.00     0.008 A 
ATOM      8  C   UNL d   1      30.612  16.090 -23.686  0.00  0.00     0.067 A 
ATOM      9  C   UNL d   1      29.950  16.257 -24.134  0.00  0.00     0.198 A 
ATOM     10  C   UNL d   1      29.938  16.950 -24.605  0.00  0.00     0.039 A 
ATOM     11  O   UNL d   1      31.872  18.453 -24.631  0.00  0.00    -0.284 OA
ATOM     12  O   UNL d   1      29.297  15.727 -24.111  0.00  0.00    -0.286 OA
ATOM     13  C   UNL d   1      33.241  16.710 -22.766  0.00  0.00     0.029 C 
ENDROOT
BRANCH   1  14
ATOM     14  O   UNL d   1      33.216  18.134 -23.734  0.00  0.00    -0.302 OA
BRANCH  14  15
ATOM     15  C   UNL d   1      33.221  18.804 -23.238  0.00  0.00     0.100 A 
ATOM     16  C   UNL d   1      33.234  18.707 -22.420  0.00  0.00     0.025 A 
ATOM     17  C   UNL d   1      33.239  19.364 -21.941  0.00  0.00     0.002 A 
ATOM     18  C   UNL d   1      33.231  20.139 -22.273  0.00  0.00     0.000 A 
ATOM     19  C   UNL d   1      33.218  20.218 -23.093  0.00  0.00     0.002 A 
ATOM     20  C   UNL d   1      33.213  19.547 -23.578  0.00  0.00     0.025 A 
ENDBRANCH  14  15
ENDBRANCH   1  14
BRANCH  10  21
ATOM     21  C   UNL d   1      29.272  17.151 -25.079  0.00  0.00     0.003 C 
ATOM     22  C   UNL d   1      28.818  17.834 -24.903  0.00  0.00     0.000 C 
ENDBRANCH  10  21
TORSDOF 3
ENDMDL
MODEL 2
REMARK VINA RESULT:      -2.8      1.464      4.371
REMARK  3 active torsions:
REMARK  status: ('A' for Active; 'I' for Inactive)
REMARK    1  A    between atoms: O_9  and  C_1 
REMARK    2  A    between atoms: C_13  and  O_9 
REMARK    3  A    between atoms: C_16  and  C_11 
ROOT
ATOM      1  C   UNL d   1      33.223  18.578 -23.650  0.00  0.00     0.161 A 
ATOM      2  C   UNL d   1      33.228  19.687 -22.751  0.00  0.00     0.064 A 
ATOM      3  C   UNL d   1      33.223  18.881 -22.870  0.00  0.00     0.222 A 
ATOM      4  C   UNL d   1      33.232  20.212 -23.383  0.00  0.00     0.106 A 
ATOM      5  C   UNL d   1      33.228  19.113 -24.295  0.00  0.00     0.126 A 
ATOM      6  O   UNL d   1      33.232  19.931 -24.136  0.00  0.00    -0.305 OA
ATOM      7  C   UNL d   1      33.228  19.963 -21.973  0.00  0.00     0.008 A 
ATOM      8  C   UNL d   1      33.236  21.013 -23.239  0.00  0.00     0.067 A 
ATOM      9  C   UNL d   1      33.236  21.306 -22.476  0.00  0.00     0.198 A 
ATOM     10  C   UNL d   1      33.232  20.770 -21.831  0.00  0.00     0.039 A 
ATOM     11  O   UNL d   1      33.219  18.355 -22.237  0.00  0.00    -0.284 OA
ATOM     12  O   UNL d   1      33.241  22.139 -22.359  0.00  0.00    -0.286 OA
ATOM     13  C   UNL d   1      33.228  18.844 -25.092  0.00  0.00     0.029 C 
ENDROOT
BRANCH   1  14
ATOM     14  O   UNL d   1      33.219  17.745 -23.767  0.00  0.00    -0.302 OA
BRANCH  14  15
ATOM     15  C   UNL d   1      32.494  17.347 -23.873  0.00  0.00     0.100 A 
ATOM     16  C   UNL d   1      32.124  17.362 -24.609  0.00  0.00     0.025 A 
ATOM     17  C   UNL d   1      31.417  16.973 -24.707  0.00  0.00     0.002 A 
ATOM     18  C   UNL d   1      31.061  16.556 -24.065  0.00  0.00     0.000 A 
ATOM     19  C   UNL d   1      31.445  16.552 -23.336  0.00  0.00     0.002 A 
ATOM     20  C   UNL d   1      32.165  16.950 -23.240  0.00  0.00     0.025 A 
ENDBRANCH  14  15
ENDBRANCH   1  14
BRANCH  10  21
ATOM     21  C   UNL d   1      33.232  21.039 -21.034  0.00  0.00     0.003 C 
ATOM     22  C   UNL d   1      32.513  21.099 -20.606  0.00  0.00     0.000 C 
ENDBRANCH  10  21
TORSDOF 3
ENDMDL
MODEL 3
REMARK VINA RESULT:      -1.4      2.613      4.431
REMARK  3 active torsions:
REMARK  status: ('A' for Active; 'I' for Inactive)
REMARK    1  A    between atoms: O_9  and  C_1 
REMARK    2  A    between atoms: C_13  and  O_9 
REMARK    3  A    between atoms: C_16  and  C_11 
ROOT
ATOM      1  C   UNL d   1      33.235  21.630 -21.759  0.00  0.00     0.161 A 
ATOM      2  C   UNL d   1      33.225  20.451 -22.564  0.00  0.00     0.064 A 
ATOM      3  C   UNL d   1      33.230  21.264 -22.511  0.00  0.00     0.222 A 
ATOM      4  C   UNL d   1      33.223  19.980 -21.891  0.00  0.00     0.106 A 
ATOM      5  C   UNL d   1      33.233  21.150 -21.072  0.00  0.00     0.126 A 
ATOM      6  O   UNL d   1      33.227  20.321 -21.163  0.00  0.00    -0.305 OA
ATOM      7  C   UNL d   1      33.220  20.112 -23.317  0.00  0.00     0.008 A 
ATOM      8  C   UNL d   1      33.217  19.169 -21.969  0.00  0.00     0.067 A 
ATOM      9  C   UNL d   1      33.213  18.815 -22.705  0.00  0.00     0.198 A 
ATOM     10  C   UNL d   1      33.214  19.295 -23.392  0.00  0.00     0.039 A 
ATOM     11  O   UNL d   1      33.232  21.736 -23.186  0.00  0.00    -0.284 OA
ATOM     12  O   UNL d   1      33.207  17.975 -22.753  0.00  0.00    -0.286 OA
ATOM     13  C   UNL d   1      33.238  21.483 -20.300  0.00  0.00     0.029 C 
ENDROOT
BRANCH   1  14
ATOM     14  O   UNL d   1      33.241  22.470 -21.711  0.00  0.00    -0.302 OA
BRANCH  14  15
ATOM     15  C   UNL d   1      32.520  22.885 -21.658  0.00  0.00     0.100 A 
ATOM     16  C   UNL d   1      32.165  23.176 -22.341  0.00  0.00     0.025 A 
ATOM     17  C   UNL d   1      31.461  23.580 -22.284  0.00  0.00     0.002 A 
ATOM     18  C   UNL d   1      31.095  23.702 -21.535  0.00  0.00     0.000 A 
ATOM     19  C   UNL d   1      31.464  23.405 -20.861  0.00  0.00     0.002 A 
ATOM     20  C   UNL d   1      32.180  22.994 -20.923  0.00  0.00     0.025 A 
ENDBRANCH  14  15
ENDBRANCH   1  14
BRANCH  10  21
ATOM     21  C   UNL d   1      33.210  18.962 -24.164  0.00  0.00     0.003 C 
ATOM     22  C   UNL d   1      32.689  19.257 -24.750  0.00  0.00     0.000 C 
ENDBRANCH  10  21
TORSDOF 3
ENDMDL
MODEL 4
REMARK VINA RESULT:      -0.9      1.383      3.964
REMARK  3 active torsions:
REMARK  status: ('A' for Active; 'I' for Inactive)
REMARK    1  A    between atoms: O_9  and  C_1 
REMARK    2  A    between atoms: C_13  and  O_9 
REMARK    3  A    between atoms: C_16  and  C_11 
ROOT
ATOM      1  C   UNL d   1      29.783  16.714 -24.643  0.00  0.00     0.161 A 
ATOM      2  C   UNL d   1      31.142  16.698 -24.203  0.00  0.00     0.064 A 
ATOM      3  C   UNL d   1      30.456  17.115 -24.349  0.00  0.00     0.222 A 
ATOM      4  C   UNL d   1      31.186  15.889 -24.339  0.00  0.00     0.106 A 
ATOM      5  C   UNL d   1      29.829  15.889 -24.782  0.00  0.00     0.126 A 
ATOM      6  O   UNL d   1      30.545  15.495 -24.622  0.00  0.00    -0.305 OA
ATOM      7  C   UNL d   1      31.793  17.114 -23.912  0.00  0.00     0.008 A 
ATOM      8  C   UNL d   1      31.881  15.494 -24.185  0.00  0.00     0.067 A 
ATOM      9  C   UNL d   1      32.537  15.888 -23.897  0.00  0.00     0.198 A 
ATOM     10  C   UNL d   1      32.491  16.713 -23.758  0.00  0.00     0.039 A 
ATOM     11  O   UNL d   1      30.412  17.925 -24.212  0.00  0.00    -0.284 OA
ATOM     12  O   UNL d   1      33.241  15.453 -23.748  0.00  0.00    -0.286 OA
ATOM     13  C   UNL d   1      29.172  15.454 -25.078  0.00  0.00     0.029 C 
ENDROOT
BRANCH   1  14
ATOM     14  O   UNL d   1      29.079  17.150 -24.793  0.00  0.00    -0.302 OA
BRANCH  14  15
ATOM     15  C   UNL d   1      28.549  17.303 -24.168  0.00  0.00     0.100 A 
ATOM     16  C   UNL d   1      28.355  18.080 -23.977  0.00  0.00     0.025 A 
ATOM     17  C   UNL d   1      27.838  18.223 -23.367  0.00  0.00     0.002 A 
ATOM     18  C   UNL d   1      27.500  17.586 -22.929  0.00  0.00     0.000 A 
ATOM     19  C   UNL d   1      27.705  16.815 -23.133  0.00  0.00     0.002 A 
ATOM     20  C   UNL d   1      28.232  16.672 -23.755  0.00  0.00     0.025 A 
ENDBRANCH  14  15
ENDBRANCH   1  14
BRANCH  10  21
ATOM     21  C   UNL d   1      33.148  17.148 -23.463  0.00  0.00     0.003 C 
ATOM     22  C   UNL d   1      33.208  17.973 -23.601  0.00  0.00     0.000 C 
ENDBRANCH  10  21
TORSDOF 3
ENDMDL
MODEL 5
REMARK VINA RESULT:      -0.7      1.173      2.275
REMARK  3 active torsions:
REMARK  status: ('A' for Active; 'I' for Inactive)
REMARK    1  A    between atoms: O_9  and  C_1 
REMARK    2  A    between atoms: C_13  and  O_9 
REMARK    3  A    between atoms: C_16  and  C_11 
ROOT
ATOM      1  C   UNL d   1      32.738  19.199 -23.420  0.00  0.00     0.161 A 
ATOM      2  C   UNL d   1      32.025  17.985 -23.656  0.00  0.00     0.064 A 
ATOM      3  C   UNL d   1      32.510  18.432 -23.177  0.00  0.00     0.222 A 
ATOM      4  C   UNL d   1      31.753  18.273 -24.376  0.00  0.00     0.106 A 
ATOM      5  C   UNL d   1      32.462  19.493 -24.154  0.00  0.00     0.126 A 
ATOM      6  O   UNL d   1      31.967  19.009 -24.618  0.00  0.00    -0.305 OA
ATOM      7  C   UNL d   1      31.812  17.231 -23.396  0.00  0.00     0.008 A 
ATOM      8  C   UNL d   1      31.270  17.808 -24.837  0.00  0.00     0.067 A 
ATOM      9  C   UNL d   1      31.048  17.060 -24.597  0.00  0.00     0.198 A 
ATOM     10  C   UNL d   1      31.325  16.765 -23.863  0.00  0.00     0.039 A 
ATOM     11  O   UNL d   1      32.782  18.142 -22.456  0.00  0.00    -0.284 OA
ATOM     12  O   UNL d   1      30.547  16.603 -25.096  0.00  0.00    -0.286 OA
ATOM     13  C   UNL d   1      32.671  20.260 -24.430  0.00  0.00     0.029 C 
ENDROOT
BRANCH   1  14
ATOM     14  O   UNL d   1      33.239  19.655 -22.921  0.00  0.00    -0.302 OA
BRANCH  14  15
ATOM     15  C   UNL d   1      32.904  20.140 -22.332  0.00  0.00     0.100 A 
ATOM     16  C   UNL d   1      32.542  20.849 -22.544  0.00  0.00     0.025 A 
ATOM     17  C   UNL d   1      32.216  21.318 -21.965  0.00  0.00     0.002 A 
ATOM     18  C   UNL d   1      32.245  21.087 -21.155  0.00  0.00     0.000 A 
ATOM     19  C   UNL d   1      32.611  20.375 -20.961  0.00  0.00     0.002 A 
ATOM     20  C   UNL d   1      32.942  19.899 -21.552  0.00  0.00     0.025 A 
ENDBRANCH  14  15
ENDBRANCH   1  14
BRANCH  10  21
ATOM     21  C   UNL d   1      31.116  15.998 -23.587  0.00  0.00     0.003 C 
ATOM     22  C   UNL d   1      31.662  15.544 -23.142  0.00  0.00     0.000 C 
ENDBRANCH  10  21
TORSDOF 3
ENDMDL
MODEL 6
REMARK VINA RESULT:      -0.6      1.205      2.272
REMARK  3 active torsions:
REMARK  status: ('A' for Active; 'I' for Inactive)
REMARK    1  A    between atoms: O_9  and  C_1 
REMARK    2  A    between atoms: C_13  and  O_9 
REMARK    3  A    between atoms: C_16  and  C_11 
ROOT
ATOM      1  C   UNL d   1      31.113  17.449 -24.511  0.00  0.00     0.161 A 
ATOM      2  C   UNL d   1      29.864  16.835 -24.192  0.00  0.00     0.064 A 
ATOM      3  C   UNL d   1      30.678  16.801 -24.211  0.00  0.00     0.222 A 
ATOM      4  C   UNL d   1      29.459  17.497 -24.463  0.00  0.00     0.106 A 
ATOM      5  C   UNL d   1      30.700  18.124 -24.788  0.00  0.00     0.126 A 
ATOM      6  O   UNL d   1      29.867  18.125 -24.753  0.00  0.00    -0.305 OA
ATOM      7  C   UNL d   1      29.456  16.183 -23.891  0.00  0.00     0.008 A 
ATOM      8  C   UNL d   1      28.645  17.508 -24.433  0.00  0.00     0.067 A 
ATOM      9  C   UNL d   1      28.224  16.873 -24.140  0.00  0.00     0.198 A 
ATOM     10  C   UNL d   1      28.637  16.198 -23.863  0.00  0.00     0.039 A 
ATOM     11  O   UNL d   1      31.084  16.138 -23.940  0.00  0.00    -0.284 OA
ATOM     12  O   UNL d   1      27.384  16.915 -24.123  0.00  0.00    -0.286 OA
ATOM     13  C   UNL d   1      31.104  18.794 -25.096  0.00  0.00     0.029 C 
ENDROOT
BRANCH   1  14
ATOM     14  O   UNL d   1      31.953  17.408 -24.528  0.00  0.00    -0.302 OA
BRANCH  14  15
ATOM     15  C   UNL d   1      32.388  17.561 -23.834  0.00  0.00     0.100 A 
ATOM     16  C   UNL d   1      32.798  16.950 -23.465  0.00  0.00     0.025 A 
ATOM     17  C   UNL d   1      33.220  17.105 -22.788  0.00  0.00     0.002 A 
ATOM     18  C   UNL d   1      33.241  17.882 -22.461  0.00  0.00     0.000 A 
ATOM     19  C   UNL d   1      32.825  18.482 -22.843  0.00  0.00     0.002 A 
ATOM     20  C   UNL d   1      32.396  18.321 -23.532  0.00  0.00     0.025 A 
ENDBRANCH  14  15
ENDBRANCH   1  14
BRANCH  10  21
ATOM     21  C   UNL d   1      28.232  15.528 -23.555  0.00  0.00     0.003 C 
ATOM     22  C   UNL d   1      28.104  15.453 -22.730  0.00  0.00     0.000 C 
ENDBRANCH  10  21
TORSDOF 3
ENDMDL
