MODEL 1
REMARK VINA RESULT:      47.4      0.000      0.000
REMARK  6 active torsions:
REMARK  status: ('A' for Active; 'I' for Inactive)
REMARK    1  A    between atoms: O_8  and  S_1 
REMARK    2  A    between atoms: C_9  and  S_1 
REMARK    3  A    between atoms: C_7  and  C_2 
REMARK    4  A    between atoms: C_20  and  C_7 
REMARK    5  A    between atoms: C_14  and  O_8 
REMARK    6  A    between atoms: O_24  and  C_21 
ROOT
ATOM      1  C   UNL d   1      15.552  14.894  -0.427  0.00  0.00     0.139 A 
ATOM      2  C   UNL d   1      15.681  13.599  -0.700  0.00  0.00     0.064 A 
ATOM      3  C   UNL d   1      16.059  14.245  -0.361  0.00  0.00     0.220 A 
ATOM      4  C   UNL d   1      14.942  13.841  -0.977  0.00  0.00     0.105 A 
ATOM      5  O   UNL d   1      14.863  14.645  -0.807  0.00  0.00    -0.304 OA
ATOM      6  C   UNL d   1      14.450  13.303  -1.340  0.00  0.00     0.050 A 
ATOM      7  C   UNL d   1      15.918  12.815  -0.792  0.00  0.00     0.007 A 
ATOM      8  C   UNL d   1      14.687  12.520  -1.432  0.00  0.00     0.116 A 
ATOM      9  O   UNL d   1      16.807  14.254  -0.015  0.00  0.00    -0.284 OA
ATOM     10  C   UNL d   1      15.419  12.279  -1.158  0.00  0.00     0.026 A 
ENDROOT
BRANCH   8  11
ATOM     11  O   UNL d   1      14.187  11.980  -1.800  0.00  0.00    -0.227 OA
BRANCH  11  12
ATOM     12  S   UNL d   1      13.902  12.131  -2.559  0.00  0.00     0.304 S 
ATOM     13  O   UNL d   1      14.577  11.808  -2.877  0.00  0.00    -0.193 OA
ATOM     14  O   UNL d   1      13.216  12.460  -2.249  0.00  0.00    -0.193 OA
BRANCH  12  15
ATOM     15  C   UNL d   1      13.617  12.283  -3.328  0.00  0.00     0.111 A 
ATOM     16  C   UNL d   1      13.052  11.779  -3.660  0.00  0.00     0.015 A 
ATOM     17  C   UNL d   1      12.770  11.928  -4.421  0.00  0.00     0.025 A 
ATOM     18  C   UNL d   1      13.053  12.581  -4.850  0.00  0.00     0.094 A 
ATOM     19  C   UNL d   1      13.621  13.078  -4.506  0.00  0.00     0.025 A 
ATOM     20  C   UNL d   1      13.900  12.926  -3.744  0.00  0.00     0.015 A 
BRANCH  18  21
ATOM     21  O   UNL d   1      12.772  12.725  -5.603  0.00  0.00    -0.328 OA
ATOM     22  C   UNL d   1      12.910  12.181  -6.201  0.00  0.00     0.181 C 
ENDBRANCH  18  21
ENDBRANCH  12  15
ENDBRANCH  11  12
ENDBRANCH   8  11
BRANCH   1  23
ATOM     23  C   UNL d   1      15.705  15.660  -0.161  0.00  0.00     0.029 C 
BRANCH  23  24
ATOM     24  C   UNL d   1      15.493  16.315  -0.621  0.00  0.00     0.021 A 
ATOM     25  C   UNL d   1      15.254  17.005  -0.249  0.00  0.00     0.099 A 
ATOM     26  N   UNL d   1      15.043  17.661  -0.692  0.00  0.00    -0.242 NA
ATOM     27  C   UNL d   1      15.070  17.625  -1.524  0.00  0.00     0.099 A 
ATOM     28  C   UNL d   1      15.312  16.927  -1.896  0.00  0.00     0.021 A 
ATOM     29  C   UNL d   1      15.523  16.273  -1.436  0.00  0.00     0.003 A 
ENDBRANCH  23  24
ENDBRANCH   1  23
TORSDOF 6
ENDMDL
