MODEL 1
REMARK VINA RESULT:      -7.8      0.000      0.000
REMARK  4 active torsions:
REMARK  status: ('A' for Active; 'I' for Inactive)
REMARK    1  A    between atoms: N_7  and  C_1 
REMARK    2  A    between atoms: S_2  and  C_8 
REMARK    3  A    between atoms: C_10  and  S_2 
REMARK       I    between atoms: C_9  and  N_7 
REMARK    4  A    between atoms: C_8  and  C_9 
ROOT
ATOM      1  N   UNL d   1      51.684  34.114  52.525  0.00  0.00    -0.182 NA
ATOM      2  C   UNL d   1      51.859  33.447  52.973  0.00  0.00     0.293 C 
ATOM      3  O   UNL d   1      51.255  33.006  53.325  0.00  0.00    -0.264 OA
ENDROOT
BRANCH   2   4
ATOM      4  C   UNL d   1      52.631  33.205  53.083  0.00  0.00     0.161 C 
BRANCH   4   5
ATOM      5  S   UNL d   1      52.789  32.387  53.203  0.00  0.00     0.215 S 
ATOM      6  O   UNL d   1      52.830  32.272  52.376  0.00  0.00    -0.217 OA
ATOM      7  O   UNL d   1      52.749  32.505  54.021  0.00  0.00    -0.217 OA
BRANCH   5   8
ATOM      8  C   UNL d   1      52.946  31.578  53.319  0.00  0.00     0.088 A 
ATOM      9  C   UNL d   1      53.469  31.343  53.910  0.00  0.00     0.012 A 
ATOM     10  C   UNL d   1      53.622  30.546  54.024  0.00  0.00     0.012 A 
ATOM     11  C   UNL d   1      53.253  29.984  53.547  0.00  0.00     0.058 A 
ATOM     12  C   UNL d   1      52.734  30.213  52.960  0.00  0.00     0.012 A 
ATOM     13 CL   UNL d   1      53.409  29.181  53.664  0.00  0.00    -0.082 Cl
ATOM     14  C   UNL d   1      52.580  31.017  52.847  0.00  0.00     0.012 A 
ENDBRANCH   5   8
ENDBRANCH   4   5
ENDBRANCH   2   4
BRANCH   1  15
ATOM     15  C   UNL d   1      50.932  34.339  52.426  0.00  0.00     0.197 A 
ATOM     16  N   UNL d   1      50.467  34.197  51.738  0.00  0.00    -0.221 NA
ATOM     17  C   UNL d   1      49.711  34.526  51.867  0.00  0.00     0.090 A 
ATOM     18  C   UNL d   1      49.034  34.556  51.394  0.00  0.00     0.018 A 
ATOM     19  C   UNL d   1      49.710  34.869  52.630  0.00  0.00     0.060 A 
ATOM     20  C   UNL d   1      48.346  34.931  51.679  0.00  0.00     0.002 A 
ATOM     21  C   UNL d   1      49.039  34.230  50.673  0.00  0.00     0.002 C 
ATOM     22  C   UNL d   1      48.332  35.282  52.449  0.00  0.00     0.012 A 
ATOM     23  C   UNL d   1      49.022  35.246  52.919  0.00  0.00     0.065 A 
ATOM     24 CL   UNL d   1      49.024  35.582  53.668  0.00  0.00    -0.082 Cl
ATOM     25  S   UNL d   1      50.471  34.749  52.969  0.00  0.00    -0.046 SA
ENDBRANCH   1  15
TORSDOF 4
ENDMDL
MODEL 2
REMARK VINA RESULT:      -7.5      1.205      5.060
REMARK  4 active torsions:
REMARK  status: ('A' for Active; 'I' for Inactive)
REMARK    1  A    between atoms: N_7  and  C_1 
REMARK    2  A    between atoms: S_2  and  C_8 
REMARK    3  A    between atoms: C_10  and  S_2 
REMARK       I    between atoms: C_9  and  N_7 
REMARK    4  A    between atoms: C_8  and  C_9 
ROOT
ATOM      1  N   UNL d   1      52.557  33.251  52.616  0.00  0.00    -0.182 NA
ATOM      2  C   UNL d   1      51.852  33.611  52.841  0.00  0.00     0.293 C 
ATOM      3  O   UNL d   1      51.352  33.252  53.393  0.00  0.00    -0.264 OA
ENDROOT
BRANCH   2   4
ATOM      4  C   UNL d   1      51.628  34.331  52.526  0.00  0.00     0.161 C 
BRANCH   4   5
ATOM      5  S   UNL d   1      50.837  34.432  52.260  0.00  0.00     0.215 S 
ATOM      6  O   UNL d   1      51.070  34.231  51.483  0.00  0.00    -0.217 OA
ATOM      7  O   UNL d   1      50.610  34.630  53.031  0.00  0.00    -0.217 OA
BRANCH   5   8
ATOM      8  C   UNL d   1      50.054  34.532  51.996  0.00  0.00     0.088 A 
ATOM      9  C   UNL d   1      49.491  34.866  52.495  0.00  0.00     0.012 A 
ATOM     10  C   UNL d   1      48.721  34.963  52.233  0.00  0.00     0.012 A 
ATOM     11  C   UNL d   1      48.513  34.727  51.472  0.00  0.00     0.058 A 
ATOM     12  C   UNL d   1      49.067  34.395  50.973  0.00  0.00     0.012 A 
ATOM     13 CL   UNL d   1      47.735  34.826  51.210  0.00  0.00    -0.082 Cl
ATOM     14  C   UNL d   1      49.843  34.298  51.238  0.00  0.00     0.012 A 
ENDBRANCH   5   8
ENDBRANCH   4   5
ENDBRANCH   2   4
BRANCH   1  15
ATOM     15  C   UNL d   1      52.763  32.554  52.929  0.00  0.00     0.197 A 
ATOM     16  N   UNL d   1      52.620  31.802  52.578  0.00  0.00    -0.221 NA
ATOM     17  C   UNL d   1      52.925  31.218  53.090  0.00  0.00     0.090 A 
ATOM     18  C   UNL d   1      52.945  30.393  53.038  0.00  0.00     0.018 A 
ATOM     19  C   UNL d   1      53.255  31.608  53.753  0.00  0.00     0.060 A 
ATOM     20  C   UNL d   1      53.296  29.948  53.650  0.00  0.00     0.002 A 
ATOM     21  C   UNL d   1      52.633  30.028  52.410  0.00  0.00     0.002 C 
ATOM     22  C   UNL d   1      53.632  30.331  54.325  0.00  0.00     0.012 A 
ATOM     23  C   UNL d   1      53.607  31.165  54.368  0.00  0.00     0.065 A 
ATOM     24 CL   UNL d   1      53.929  31.551  55.017  0.00  0.00    -0.082 Cl
ATOM     25  S   UNL d   1      53.149  32.436  53.644  0.00  0.00    -0.046 SA
ENDBRANCH   1  15
TORSDOF 4
ENDMDL
MODEL 3
REMARK VINA RESULT:      -7.5      1.474      5.358
REMARK  4 active torsions:
REMARK  status: ('A' for Active; 'I' for Inactive)
REMARK    1  A    between atoms: N_7  and  C_1 
REMARK    2  A    between atoms: S_2  and  C_8 
REMARK    3  A    between atoms: C_10  and  S_2 
REMARK       I    between atoms: C_9  and  N_7 
REMARK    4  A    between atoms: C_8  and  C_9 
ROOT
ATOM      1  N   UNL d   1      51.640  34.062  52.431  0.00  0.00    -0.182 NA
ATOM      2  C   UNL d   1      50.831  34.006  52.572  0.00  0.00     0.293 C 
ATOM      3  O   UNL d   1      50.546  33.618  53.244  0.00  0.00    -0.264 OA
ENDROOT
BRANCH   2   4
ATOM      4  C   UNL d   1      50.290  34.332  52.054  0.00  0.00     0.161 C 
BRANCH   4   5
ATOM      5  S   UNL d   1      49.639  34.766  52.363  0.00  0.00     0.215 S 
ATOM      6  O   UNL d   1      49.111  34.284  51.930  0.00  0.00    -0.217 OA
ATOM      7  O   UNL d   1      50.166  35.241  52.789  0.00  0.00    -0.217 OA
BRANCH   5   8
ATOM      8  C   UNL d   1      48.994  35.194  52.667  0.00  0.00     0.088 A 
ATOM      9  C   UNL d   1      48.325  35.314  52.202  0.00  0.00     0.012 A 
ATOM     10  C   UNL d   1      47.690  35.736  52.503  0.00  0.00     0.012 A 
ATOM     11  C   UNL d   1      47.724  36.038  53.269  0.00  0.00     0.058 A 
ATOM     12  C   UNL d   1      48.385  35.921  53.734  0.00  0.00     0.012 A 
ATOM     13 CL   UNL d   1      47.082  36.463  53.570  0.00  0.00    -0.082 Cl
ATOM     14  C   UNL d   1      49.023  35.496  53.429  0.00  0.00     0.012 A 
ENDBRANCH   5   8
ENDBRANCH   4   5
ENDBRANCH   2   4
BRANCH   1  15
ATOM     15  C   UNL d   1      52.154  33.742  52.940  0.00  0.00     0.197 A 
ATOM     16  N   UNL d   1      52.520  34.147  53.581  0.00  0.00    -0.221 NA
ATOM     17  C   UNL d   1      53.019  33.607  53.974  0.00  0.00     0.090 A 
ATOM     18  C   UNL d   1      53.512  33.688  54.633  0.00  0.00     0.018 A 
ATOM     19  C   UNL d   1      52.962  32.872  53.577  0.00  0.00     0.060 A 
ATOM     20  C   UNL d   1      53.954  33.034  54.903  0.00  0.00     0.002 A 
ATOM     21  C   UNL d   1      53.564  34.384  55.006  0.00  0.00     0.002 C 
ATOM     22  C   UNL d   1      53.904  32.287  54.510  0.00  0.00     0.012 A 
ATOM     23  C   UNL d   1      53.403  32.215  53.845  0.00  0.00     0.065 A 
ATOM     24 CL   UNL d   1      53.344  31.496  53.454  0.00  0.00    -0.082 Cl
ATOM     25  S   UNL d   1      52.423  32.966  52.937  0.00  0.00    -0.046 SA
ENDBRANCH   1  15
TORSDOF 4
ENDMDL
MODEL 4
REMARK VINA RESULT:      -7.4      2.106      2.962
REMARK  4 active torsions:
REMARK  status: ('A' for Active; 'I' for Inactive)
REMARK    1  A    between atoms: N_7  and  C_1 
REMARK    2  A    between atoms: S_2  and  C_8 
REMARK    3  A    between atoms: C_10  and  S_2 
REMARK       I    between atoms: C_9  and  N_7 
REMARK    4  A    between atoms: C_8  and  C_9 
ROOT
ATOM      1  N   UNL d   1      49.609  34.840  51.984  0.00  0.00    -0.182 NA
ATOM      2  C   UNL d   1      49.999  34.337  52.505  0.00  0.00     0.293 C 
ATOM      3  O   UNL d   1      49.706  34.211  53.268  0.00  0.00    -0.264 OA
ENDROOT
BRANCH   2   4
ATOM      4  C   UNL d   1      50.683  33.950  52.283  0.00  0.00     0.161 C 
BRANCH   4   5
ATOM      5  S   UNL d   1      51.351  33.976  52.794  0.00  0.00     0.215 S 
ATOM      6  O   UNL d   1      51.719  34.531  52.288  0.00  0.00    -0.217 OA
ATOM      7  O   UNL d   1      50.984  33.427  53.293  0.00  0.00    -0.217 OA
BRANCH   5   8
ATOM      8  C   UNL d   1      52.013  34.003  53.298  0.00  0.00     0.088 A 
ATOM      9  C   UNL d   1      52.356  33.303  53.563  0.00  0.00     0.012 A 
ATOM     10  C   UNL d   1      53.007  33.332  54.059  0.00  0.00     0.012 A 
ATOM     11  C   UNL d   1      53.316  34.060  54.291  0.00  0.00     0.058 A 
ATOM     12  C   UNL d   1      52.979  34.756  54.031  0.00  0.00     0.012 A 
ATOM     13 CL   UNL d   1      53.973  34.085  54.792  0.00  0.00    -0.082 Cl
ATOM     14  C   UNL d   1      52.323  34.726  53.531  0.00  0.00     0.012 A 
ENDBRANCH   5   8
ENDBRANCH   4   5
ENDBRANCH   2   4
BRANCH   1  15
ATOM     15  C   UNL d   1      48.947  35.210  52.211  0.00  0.00     0.197 A 
ATOM     16  N   UNL d   1      48.863  35.675  52.907  0.00  0.00    -0.221 NA
ATOM     17  C   UNL d   1      48.079  35.960  52.932  0.00  0.00     0.090 A 
ATOM     18  C   UNL d   1      47.682  36.439  53.477  0.00  0.00     0.018 A 
ATOM     19  C   UNL d   1      47.682  35.672  52.254  0.00  0.00     0.060 A 
ATOM     20  C   UNL d   1      46.881  36.634  53.351  0.00  0.00     0.002 A 
ATOM     21  C   UNL d   1      48.061  36.709  54.117  0.00  0.00     0.002 C 
ATOM     22  C   UNL d   1      46.469  36.349  52.669  0.00  0.00     0.012 A 
ATOM     23  C   UNL d   1      46.879  35.866  52.124  0.00  0.00     0.065 A 
ATOM     24 CL   UNL d   1      46.492  35.582  51.458  0.00  0.00    -0.082 Cl
ATOM     25  S   UNL d   1      48.228  35.208  51.813  0.00  0.00    -0.046 SA
ENDBRANCH   1  15
TORSDOF 4
ENDMDL
MODEL 5
REMARK VINA RESULT:      -7.2      1.750      2.273
REMARK  4 active torsions:
REMARK  status: ('A' for Active; 'I' for Inactive)
REMARK    1  A    between atoms: N_7  and  C_1 
REMARK    2  A    between atoms: S_2  and  C_8 
REMARK    3  A    between atoms: C_10  and  S_2 
REMARK       I    between atoms: C_9  and  N_7 
REMARK    4  A    between atoms: C_8  and  C_9 
ROOT
ATOM      1  N   UNL d   1      50.893  34.147  52.134  0.00  0.00    -0.182 NA
ATOM      2  C   UNL d   1      51.138  33.575  52.672  0.00  0.00     0.293 C 
ATOM      3  O   UNL d   1      50.654  33.356  53.306  0.00  0.00    -0.264 OA
ENDROOT
BRANCH   2   4
ATOM      4  C   UNL d   1      51.865  33.209  52.595  0.00  0.00     0.161 C 
BRANCH   4   5
ATOM      5  S   UNL d   1      52.424  33.277  53.219  0.00  0.00     0.215 S 
ATOM      6  O   UNL d   1      52.784  33.922  52.829  0.00  0.00    -0.217 OA
ATOM      7  O   UNL d   1      52.065  32.637  53.603  0.00  0.00    -0.217 OA
BRANCH   5   8
ATOM      8  C   UNL d   1      52.979  33.345  53.836  0.00  0.00     0.088 A 
ATOM      9  C   UNL d   1      53.459  32.705  54.029  0.00  0.00     0.012 A 
ATOM     10  C   UNL d   1      54.004  32.773  54.637  0.00  0.00     0.012 A 
ATOM     11  C   UNL d   1      54.070  33.482  55.052  0.00  0.00     0.058 A 
ATOM     12  C   UNL d   1      53.596  34.120  54.864  0.00  0.00     0.012 A 
ATOM     13 CL   UNL d   1      54.621  33.548  55.664  0.00  0.00    -0.082 Cl
ATOM     14  C   UNL d   1      53.047  34.049  54.252  0.00  0.00     0.012 A 
ENDBRANCH   5   8
ENDBRANCH   4   5
ENDBRANCH   2   4
BRANCH   1  15
ATOM     15  C   UNL d   1      50.187  34.494  52.220  0.00  0.00     0.197 A 
ATOM     16  N   UNL d   1      49.935  34.925  52.898  0.00  0.00    -0.221 NA
ATOM     17  C   UNL d   1      49.158  35.195  52.756  0.00  0.00     0.090 A 
ATOM     18  C   UNL d   1      48.635  35.641  53.216  0.00  0.00     0.018 A 
ATOM     19  C   UNL d   1      48.933  34.932  51.994  0.00  0.00     0.060 A 
ATOM     20  C   UNL d   1      47.879  35.829  52.919  0.00  0.00     0.002 A 
ATOM     21  C   UNL d   1      48.852  35.887  53.936  0.00  0.00     0.002 C 
ATOM     22  C   UNL d   1      47.640  35.568  52.150  0.00  0.00     0.012 A 
ATOM     23  C   UNL d   1      48.175  35.119  51.693  0.00  0.00     0.065 A 
ATOM     24 CL   UNL d   1      47.957  34.859  50.946  0.00  0.00    -0.082 Cl
ATOM     25  S   UNL d   1      49.577  34.498  51.669  0.00  0.00    -0.046 SA
ENDBRANCH   1  15
TORSDOF 4
ENDMDL
