MODEL 1
REMARK VINA RESULT:      26.3      0.000      0.000
REMARK  2 active torsions:
REMARK  status: ('A' for Active; 'I' for Inactive)
REMARK    1  A    between atoms: N_2  and  S_1 
REMARK    2  A    between atoms: C_3  and  S_1 
ROOT
ATOM      1  S   UNL d   1      45.684 -17.049  43.787  0.00  0.00     0.273 S 
ATOM      2  O   UNL d   1      45.023 -17.043  43.270  0.00  0.00    -0.200 OA
ATOM      3  O   UNL d   1      46.333 -17.047  44.302  0.00  0.00    -0.200 OA
ENDROOT
BRANCH   1   4
ATOM      4  N   UNL d   1      45.365 -16.400  44.206  0.00  0.00    -0.231 N 
ATOM      5  C   UNL d   1      45.714 -15.651  44.130  0.00  0.00     0.075 A 
ATOM      6  C   UNL d   1      45.285 -15.133  44.601  0.00  0.00     0.018 A 
ATOM      7  C   UNL d   1      46.349 -15.392  43.702  0.00  0.00     0.018 A 
ATOM      8  C   UNL d   1      45.496 -14.356  44.639  0.00  0.00     0.002 A 
ATOM      9  C   UNL d   1      44.697 -15.533  44.955  0.00  0.00     0.021 A 
ATOM     10  C   UNL d   1      46.146 -14.077  44.205  0.00  0.00     0.000 A 
ATOM     11  C   UNL d   1      46.562 -14.615  43.739  0.00  0.00     0.002 A 
ATOM     12  C   UNL d   1      44.741 -16.325  44.713  0.00  0.00     0.092 A 
ENDBRANCH   1   4
BRANCH   1  13
ATOM     13  C   UNL d   1      45.993 -17.688  43.368  0.00  0.00     0.121 A 
ATOM     14  C   UNL d   1      46.163 -18.404  43.741  0.00  0.00     0.093 A 
ATOM     15  N   UNL d   1      46.023 -18.488  44.553  0.00  0.00    -0.243 NA
ATOM     16  C   UNL d   1      46.474 -19.034  43.300  0.00  0.00     0.018 A 
ATOM     17  C   UNL d   1      46.192 -19.200  44.924  0.00  0.00     0.099 A 
ATOM     18  C   UNL d   1      46.503 -19.835  44.488  0.00  0.00     0.021 A 
ATOM     19  C   UNL d   1      46.643 -19.746  43.671  0.00  0.00     0.003 A 
ATOM     20  C   UNL d   1      46.614 -18.950  42.489  0.00  0.00     0.002 A 
ATOM     21  C   UNL d   1      46.444 -18.234  42.115  0.00  0.00     0.001 A 
ATOM     22  C   UNL d   1      46.135 -17.609  42.556  0.00  0.00     0.014 A 
ENDBRANCH   1  13
TORSDOF 2
ENDMDL
