MODEL 1
REMARK VINA RESULT:      25.0      0.000      0.000
REMARK  4 active torsions:
REMARK  status: ('A' for Active; 'I' for Inactive)
REMARK    1  A    between atoms: N_10  and  C_1 
REMARK       I    between atoms: C_12  and  N_10 
REMARK    2  A    between atoms: C_17  and  C_12 
REMARK    3  A    between atoms: C_18  and  C_17 
REMARK    4  A    between atoms: C_19  and  C_18 
ROOT
ATOM      1  C   UNL d   1      13.562  12.383  -2.252  0.00  0.00     0.197 A 
ATOM      2  C   UNL d   1      13.297  12.934  -3.419  0.00  0.00     0.057 A 
ATOM      3  C   UNL d   1      13.153  13.415  -4.038  0.00  0.00     0.056 A 
ATOM      4  N   UNL d   1      13.464  11.779  -2.762  0.00  0.00    -0.221 NA
ATOM      5  S   UNL d   1      13.465  13.120  -2.625  0.00  0.00    -0.046 SA
ATOM      6  N   UNL d   1      12.875  13.708  -5.291  0.00  0.00    -0.238 NA
ATOM      7  S   UNL d   1      13.119  14.217  -4.116  0.00  0.00    -0.066 SA
ATOM      8  C   UNL d   1      13.296  12.121  -3.502  0.00  0.00     0.090 A 
ATOM      9  C   UNL d   1      12.998  13.101  -4.786  0.00  0.00     0.088 A 
ATOM     10  C   UNL d   1      12.938  14.403  -4.933  0.00  0.00     0.111 A 
ATOM     11  C   UNL d   1      12.991  12.292  -4.895  0.00  0.00     0.021 A 
ATOM     12  C   UNL d   1      13.144  11.794  -4.238  0.00  0.00     0.021 A 
ATOM     13  C   UNL d   1      12.848  15.156  -5.278  0.00  0.00     0.028 C 
ENDROOT
BRANCH   1  14
ATOM     14  N   UNL d   1      13.743  12.298  -1.425  0.00  0.00    -0.183 NA
ATOM     15  C   UNL d   1      14.470  12.001  -1.216  0.00  0.00     0.281 C 
ATOM     16  O   UNL d   1      14.992  11.798  -1.855  0.00  0.00    -0.265 OA
BRANCH  15  17
ATOM     17  C   UNL d   1      14.636  11.923  -0.456  0.00  0.00     0.063 C 
BRANCH  17  18
ATOM     18  C   UNL d   1      15.350  12.428  -0.084  0.00  0.00     0.005 C 
BRANCH  18  19
ATOM     19  C   UNL d   1      15.264  13.368  -0.017  0.00  0.00     0.000 C 
ATOM     20  C   UNL d   1      15.727  13.962  -0.358  0.00  0.00     0.000 C 
ENDBRANCH  18  19
ENDBRANCH  17  18
ENDBRANCH  15  17
ENDBRANCH   1  14
TORSDOF 4
ENDMDL
