MODEL 1
REMARK VINA RESULT:      15.4      0.000      0.000
REMARK  2 active torsions:
REMARK  status: ('A' for Active; 'I' for Inactive)
REMARK    1  A    between atoms: C_7  and  C_2 
REMARK    2  A    between atoms: C_5  and  C_7 
ROOT
ATOM      1  C   UNL d   1      13.611  12.537  -2.577  0.00  0.00     0.021 A 
ATOM      2  N   UNL d   1      13.880  13.634  -3.268  0.00  0.00    -0.244 NA
ATOM      3  C   UNL d   1      13.940  13.286  -2.526  0.00  0.00     0.099 A 
ATOM      4  C   UNL d   1      13.348  12.422  -3.343  0.00  0.00     0.019 A 
ATOM      5  C   UNL d   1      13.515  13.101  -3.772  0.00  0.00     0.081 A 
ATOM      6  C   UNL d   1      12.975  11.779  -3.712  0.00  0.00     0.002 A 
ATOM      7  C   UNL d   1      13.310  13.147  -4.573  0.00  0.00     0.019 A 
ATOM      8  C   UNL d   1      12.769  11.818  -4.509  0.00  0.00     0.000 A 
ATOM      9  C   UNL d   1      12.936  12.503  -4.942  0.00  0.00     0.002 A 
ENDROOT
BRANCH   1  10
ATOM     10  C   UNL d   1      13.557  11.994  -1.951  0.00  0.00     0.011 C 
BRANCH  10  11
ATOM     11  C   UNL d   1      14.135  11.987  -1.363  0.00  0.00     0.062 A 
ATOM     12  C   UNL d   1      13.915  11.884  -0.575  0.00  0.00     0.145 A 
ATOM     13  N   UNL d   1      14.605  11.902  -0.121  0.00  0.00    -0.191 NA
ATOM     14  S   UNL d   1      13.137  11.782  -0.288  0.00  0.00    -0.057 SA
ATOM     15  C   UNL d   1      15.239  12.012  -0.615  0.00  0.00     0.311 A 
ATOM     16  S   UNL d   1      14.953  12.066  -1.387  0.00  0.00    -0.023 SA
ATOM     17  O   UNL d   1      16.035  12.062  -0.373  0.00  0.00    -0.258 OA
ENDBRANCH  10  11
ENDBRANCH   1  10
TORSDOF 2
ENDMDL
