MODEL 1
REMARK VINA RESULT:      -2.0      0.000      0.000
REMARK  3 active torsions:
REMARK  status: ('A' for Active; 'I' for Inactive)
REMARK    1  A    between atoms: N_9  and  C_3 
REMARK    2  A    between atoms: C_14  and  C_4 
REMARK       I    between atoms: C_10  and  N_11 
REMARK    3  A    between atoms: C_13  and  C_10 
ROOT
ATOM      1  N   UNL d   1     -41.663-122.748 -50.877  0.00  0.00    -0.196 N 
ATOM      2  C   UNL d   1     -41.661-122.535 -50.085  0.00  0.00     0.167 A 
ATOM      3  C   UNL d   1     -41.486-122.190 -51.459  0.00  0.00     0.152 A 
ATOM      4  C   UNL d   1     -41.856-123.199 -49.642  0.00  0.00     0.057 A 
ATOM      5  N   UNL d   1     -41.858-123.544 -50.928  0.00  0.00    -0.161 NA
ATOM      6  N   UNL d   1     -41.483-121.761 -49.863  0.00  0.00    -0.227 NA
ATOM      7  C   UNL d   1     -41.306-121.411 -51.237  0.00  0.00     0.057 A 
ATOM      8  C   UNL d   1     -41.976-123.818 -50.158  0.00  0.00     0.124 A 
ATOM      9  C   UNL d   1     -41.304-121.198 -50.445  0.00  0.00     0.086 A 
ATOM     10  C   UNL d   1     -41.123-120.412 -50.230  0.00  0.00     0.021 C 
ENDROOT
BRANCH   3  11
ATOM     11  N   UNL d   1     -41.487-122.403 -52.251  0.00  0.00    -0.286 N 
ATOM     12  C   UNL d   1     -41.834-121.921 -52.817  0.00  0.00     0.101 A 
ATOM     13  C   UNL d   1     -41.834-122.140 -53.616  0.00  0.00     0.102 A 
ATOM     14  N   UNL d   1     -41.478-122.851 -53.843  0.00  0.00    -0.267 N 
ATOM     15  C   UNL d   1     -41.473-123.078 -54.646  0.00  0.00     0.288 C 
ATOM     16  C   UNL d   1     -41.131-123.334 -53.282  0.00  0.00     0.102 A 
ATOM     17  O   UNL d   1     -41.123-123.784 -54.879  0.00  0.00    -0.264 OA
ATOM     18  C   UNL d   1     -41.132-123.115 -52.483  0.00  0.00     0.101 A 
BRANCH  15  19
ATOM     19  C   UNL d   1     -41.825-122.588 -55.209  0.00  0.00     0.156 A 
ATOM     20  O   UNL d   1     -41.573-121.903 -55.576  0.00  0.00    -0.300 OA
ATOM     21  C   UNL d   1     -42.167-121.652 -56.097  0.00  0.00     0.123 A 
ATOM     22  C   UNL d   1     -42.773-122.182 -56.045  0.00  0.00     0.029 A 
ATOM     23  C   UNL d   1     -42.571-122.762 -55.501  0.00  0.00     0.032 A 
ENDBRANCH  15  19
ENDBRANCH   3  11
BRANCH   4  24
ATOM     24  C   UNL d   1     -41.938-123.317 -48.831  0.00  0.00     0.004 A 
ATOM     25  C   UNL d   1     -41.270-123.486 -48.366  0.00  0.00     0.000 A 
ATOM     26  C   UNL d   1     -41.352-123.605 -47.555  0.00  0.00     0.000 A 
ATOM     27  C   UNL d   1     -42.097-123.557 -47.200  0.00  0.00     0.000 A 
ATOM     28  C   UNL d   1     -42.763-123.389 -47.661  0.00  0.00     0.000 A 
ATOM     29  C   UNL d   1     -42.680-123.270 -48.473  0.00  0.00     0.000 A 
ENDBRANCH   4  24
TORSDOF 3
ENDMDL
