MODEL 1
REMARK VINA RESULT:      -3.6      0.000      0.000
REMARK  6 active torsions:
REMARK  status: ('A' for Active; 'I' for Inactive)
REMARK    1  A    between atoms: N_10  and  C_2 
REMARK    2  A    between atoms: C_13  and  C_3 
REMARK    3  A    between atoms: C_6  and  S_15 
REMARK       I    between atoms: C_12  and  N_10 
REMARK    4  A    between atoms: C_14  and  C_12 
REMARK    5  A    between atoms: C_17  and  C_14 
REMARK    6  A    between atoms: S_15  and  C_17 
ROOT
ATOM      1  N   UNL d   1      32.770  18.894 -23.491  0.00  0.00    -0.181 NA
ATOM      2  C   UNL d   1      32.990  19.147 -22.738  0.00  0.00     0.282 C 
ATOM      3  O   UNL d   1      32.962  18.625 -22.095  0.00  0.00    -0.265 OA
ENDROOT
BRANCH   1   4
ATOM      4  C   UNL d   1      32.516  18.108 -23.619  0.00  0.00     0.216 A 
ATOM      5  N   UNL d   1      31.733  17.859 -23.689  0.00  0.00    -0.200 NA
ATOM      6  C   UNL d   1      31.742  17.045 -23.810  0.00  0.00     0.172 A 
ATOM      7  N   UNL d   1      32.524  16.805 -23.813  0.00  0.00    -0.187 NA
ATOM      8  S   UNL d   1      32.998  17.458 -23.696  0.00  0.00     0.054 SA
BRANCH   6   9
ATOM      9  C   UNL d   1      31.099  16.533 -23.914  0.00  0.00     0.036 A 
ATOM     10  C   UNL d   1      30.630  16.591 -24.587  0.00  0.00     0.003 A 
ATOM     11  C   UNL d   1      29.990  16.080 -24.690  0.00  0.00     0.000 A 
ATOM     12  C   UNL d   1      29.820  15.512 -24.120  0.00  0.00     0.000 A 
ATOM     13  C   UNL d   1      30.290  15.453 -23.443  0.00  0.00     0.000 A 
ATOM     14  C   UNL d   1      30.930  15.963 -23.340  0.00  0.00     0.003 A 
ENDBRANCH   6   9
ENDBRANCH   1   4
BRANCH   2  15
ATOM     15  C   UNL d   1      33.241  19.930 -22.618  0.00  0.00     0.070 C 
BRANCH  15  16
ATOM     16  C   UNL d   1      32.924  20.377 -22.002  0.00  0.00     0.042 C 
BRANCH  16  17
ATOM     17  S   UNL d   1      33.173  21.156 -21.896  0.00  0.00    -0.059 SA
BRANCH  17  18
ATOM     18  C   UNL d   1      32.839  21.615 -21.296  0.00  0.00     0.164 A 
ATOM     19  S   UNL d   1      33.167  22.059 -20.681  0.00  0.00    -0.039 SA
ATOM     20  C   UNL d   1      32.549  22.397 -20.259  0.00  0.00     0.134 A 
ATOM     21  C   UNL d   1      32.628  22.891 -19.590  0.00  0.00     0.030 C 
ATOM     22  N   UNL d   1      31.841  22.166 -20.607  0.00  0.00    -0.140 NA
ATOM     23  N   UNL d   1      32.019  21.685 -21.244  0.00  0.00    -0.134 NA
ENDBRANCH  17  18
ENDBRANCH  16  17
ENDBRANCH  15  16
ENDBRANCH   2  15
TORSDOF 6
ENDMDL
MODEL 2
REMARK VINA RESULT:      -2.9      1.063      5.965
REMARK  6 active torsions:
REMARK  status: ('A' for Active; 'I' for Inactive)
REMARK    1  A    between atoms: N_10  and  C_2 
REMARK    2  A    between atoms: C_13  and  C_3 
REMARK    3  A    between atoms: C_6  and  S_15 
REMARK       I    between atoms: C_12  and  N_10 
REMARK    4  A    between atoms: C_14  and  C_12 
REMARK    5  A    between atoms: C_17  and  C_14 
REMARK    6  A    between atoms: S_15  and  C_17 
ROOT
ATOM      1  N   UNL d   1      32.967  19.449 -22.105  0.00  0.00    -0.181 NA
ATOM      2  C   UNL d   1      32.939  19.099 -22.852  0.00  0.00     0.282 C 
ATOM      3  O   UNL d   1      32.911  19.568 -23.534  0.00  0.00    -0.265 OA
ENDROOT
BRANCH   1   4
ATOM      4  C   UNL d   1      32.967  20.281 -22.025  0.00  0.00     0.216 A 
ATOM      5  N   UNL d   1      32.690  20.703 -21.373  0.00  0.00    -0.200 NA
ATOM      6  C   UNL d   1      32.798  21.504 -21.532  0.00  0.00     0.172 A 
ATOM      7  N   UNL d   1      33.137  21.564 -22.274  0.00  0.00    -0.187 NA
ATOM      8  S   UNL d   1      33.241  20.813 -22.576  0.00  0.00     0.054 SA
BRANCH   6   9
ATOM      9  C   UNL d   1      32.610  22.153 -21.054  0.00  0.00     0.036 A 
ATOM     10  C   UNL d   1      32.881  22.186 -20.278  0.00  0.00     0.003 A 
ATOM     11  C   UNL d   1      32.693  22.834 -19.802  0.00  0.00     0.000 A 
ATOM     12  C   UNL d   1      32.235  23.447 -20.103  0.00  0.00     0.000 A 
ATOM     13  C   UNL d   1      31.962  23.416 -20.882  0.00  0.00     0.000 A 
ATOM     14  C   UNL d   1      32.150  22.769 -21.358  0.00  0.00     0.003 A 
ENDBRANCH   6   9
ENDBRANCH   1   4
BRANCH   2  15
ATOM     15  C   UNL d   1      32.939  18.271 -22.924  0.00  0.00     0.070 C 
BRANCH  15  16
ATOM     16  C   UNL d   1      32.377  17.897 -23.398  0.00  0.00     0.042 C 
BRANCH  16  17
ATOM     17  S   UNL d   1      32.458  17.094 -23.565  0.00  0.00    -0.059 SA
BRANCH  17  18
ATOM     18  C   UNL d   1      31.833  16.684 -23.914  0.00  0.00     0.164 A 
ATOM     19  S   UNL d   1      31.198  16.255 -23.602  0.00  0.00    -0.039 SA
ATOM     20  C   UNL d   1      30.754  15.970 -24.230  0.00  0.00     0.134 A 
ATOM     21  C   UNL d   1      30.061  15.507 -24.168  0.00  0.00     0.030 C 
ATOM     22  N   UNL d   1      31.106  16.219 -24.930  0.00  0.00    -0.140 NA
ATOM     23  N   UNL d   1      31.769  16.657 -24.736  0.00  0.00    -0.134 NA
ENDBRANCH  17  18
ENDBRANCH  16  17
ENDBRANCH  15  16
ENDBRANCH   2  15
TORSDOF 6
ENDMDL
MODEL 3
REMARK VINA RESULT:      -2.8      1.358      5.836
REMARK  6 active torsions:
REMARK  status: ('A' for Active; 'I' for Inactive)
REMARK    1  A    between atoms: N_10  and  C_2 
REMARK    2  A    between atoms: C_13  and  C_3 
REMARK    3  A    between atoms: C_6  and  S_15 
REMARK       I    between atoms: C_12  and  N_10 
REMARK    4  A    between atoms: C_14  and  C_12 
REMARK    5  A    between atoms: C_17  and  C_14 
REMARK    6  A    between atoms: S_15  and  C_17 
ROOT
ATOM      1  N   UNL d   1      32.866  18.824 -22.512  0.00  0.00    -0.181 NA
ATOM      2  C   UNL d   1      32.593  18.486 -23.214  0.00  0.00     0.282 C 
ATOM      3  O   UNL d   1      32.380  18.967 -23.855  0.00  0.00    -0.265 OA
ENDROOT
BRANCH   1   4
ATOM      4  C   UNL d   1      32.933  19.653 -22.436  0.00  0.00     0.216 A 
ATOM      5  N   UNL d   1      32.700  20.098 -21.782  0.00  0.00    -0.200 NA
ATOM      6  C   UNL d   1      32.868  20.887 -21.947  0.00  0.00     0.172 A 
ATOM      7  N   UNL d   1      33.200  20.917 -22.694  0.00  0.00    -0.187 NA
ATOM      8  S   UNL d   1      33.239  20.159 -22.994  0.00  0.00     0.054 SA
BRANCH   6   9
ATOM      9  C   UNL d   1      32.739  21.552 -21.470  0.00  0.00     0.036 A 
ATOM     10  C   UNL d   1      32.931  22.302 -21.748  0.00  0.00     0.003 A 
ATOM     11  C   UNL d   1      32.803  22.964 -21.273  0.00  0.00     0.000 A 
ATOM     12  C   UNL d   1      32.483  22.875 -20.520  0.00  0.00     0.000 A 
ATOM     13  C   UNL d   1      32.289  22.122 -20.239  0.00  0.00     0.000 A 
ATOM     14  C   UNL d   1      32.418  21.460 -20.715  0.00  0.00     0.003 A 
ENDBRANCH   6   9
ENDBRANCH   1   4
BRANCH   2  15
ATOM     15  C   UNL d   1      32.528  17.661 -23.282  0.00  0.00     0.070 C 
BRANCH  15  16
ATOM     16  C   UNL d   1      31.858  17.325 -23.625  0.00  0.00     0.042 C 
BRANCH  16  17
ATOM     17  S   UNL d   1      31.767  16.506 -23.620  0.00  0.00    -0.059 SA
BRANCH  17  18
ATOM     18  C   UNL d   1      31.053  16.171 -23.865  0.00  0.00     0.164 A 
ATOM     19  S   UNL d   1      30.333  16.039 -23.480  0.00  0.00    -0.039 SA
ATOM     20  C   UNL d   1      29.823  15.683 -24.015  0.00  0.00     0.134 A 
ATOM     21  C   UNL d   1      29.036  15.453 -23.861  0.00  0.00     0.030 C 
ATOM     22  N   UNL d   1      30.221  15.593 -24.730  0.00  0.00    -0.140 NA
ATOM     23  N   UNL d   1      30.976  15.892 -24.637  0.00  0.00    -0.134 NA
ENDBRANCH  17  18
ENDBRANCH  16  17
ENDBRANCH  15  16
ENDBRANCH   2  15
TORSDOF 6
ENDMDL
