MODEL 1
REMARK VINA RESULT:      51.2      0.000      0.000
REMARK  6 active torsions:
REMARK  status: ('A' for Active; 'I' for Inactive)
REMARK    1  A    between atoms: N_2  and  S_1 
REMARK    2  A    between atoms: C_3  and  S_1 
REMARK    3  A    between atoms: C_4  and  C_9 
REMARK    4  A    between atoms: O_12  and  C_4 
REMARK    5  A    between atoms: C_19  and  O_12 
REMARK    6  A    between atoms: C_18  and  C_19 
ROOT
ATOM      1  C   UNL d   1     -50.879  26.386  33.525  0.00  0.00     0.104 A 
ATOM      2  C   UNL d   1     -50.096  26.494  33.789  0.00  0.00     0.018 A 
ATOM      3  C   UNL d   1     -49.787  27.260  33.832  0.00  0.00     0.064 A 
ATOM      4  C   UNL d   1     -51.345  27.030  33.308  0.00  0.00     0.013 A 
ATOM      5  C   UNL d   1     -50.255  27.911  33.614  0.00  0.00     0.005 A 
ATOM      6  C   UNL d   1     -51.037  27.796  33.351  0.00  0.00     0.001 A 
ENDROOT
BRANCH   3   7
ATOM      7  C   UNL d   1     -49.010  27.386  34.092  0.00  0.00     0.300 C 
ATOM      8  O   UNL d   1     -48.458  26.773  34.075  0.00  0.00    -0.259 OA
BRANCH   7   9
ATOM      9  O   UNL d   1     -48.793  28.134  34.370  0.00  0.00    -0.271 OA
BRANCH   9  10
ATOM     10  C   UNL d   1     -48.173  28.207  34.907  0.00  0.00     0.126 C 
BRANCH  10  11
ATOM     11  C   UNL d   1     -47.940  28.949  35.159  0.00  0.00     0.027 A 
ATOM     12  C   UNL d   1     -48.028  29.587  34.663  0.00  0.00     0.028 A 
ATOM     13  C   UNL d   1     -47.793  30.333  34.917  0.00  0.00     0.119 A 
ATOM     14  O   UNL d   1     -47.812  31.076  34.547  0.00  0.00    -0.300 OA
ATOM     15  C   UNL d   1     -47.473  30.436  35.665  0.00  0.00     0.119 A 
ATOM     16  C   UNL d   1     -47.501  31.627  35.076  0.00  0.00     0.304 A 
ATOM     17  O   UNL d   1     -47.291  31.233  35.765  0.00  0.00    -0.300 OA
ATOM     18  C   UNL d   1     -47.384  29.788  36.165  0.00  0.00     0.026 A 
ATOM     19  C   UNL d   1     -47.619  29.042  35.911  0.00  0.00     0.004 A 
ENDBRANCH  10  11
ENDBRANCH   9  10
ENDBRANCH   7   9
ENDBRANCH   3   7
BRANCH   1  20
ATOM     20  S   UNL d   1     -51.188  25.620  33.482  0.00  0.00     0.271 S 
ATOM     21  O   UNL d   1     -50.448  25.275  33.638  0.00  0.00    -0.200 OA
ATOM     22  O   UNL d   1     -51.930  25.963  33.325  0.00  0.00    -0.200 OA
BRANCH  20  23
ATOM     23  N   UNL d   1     -51.485  24.845  33.441  0.00  0.00    -0.229 N 
ATOM     24  C   UNL d   1     -50.958  24.206  33.346  0.00  0.00     0.092 A 
ATOM     25  C   UNL d   1     -51.264  23.441  33.307  0.00  0.00     0.020 A 
ATOM     26  C   UNL d   1     -52.079  23.295  33.360  0.00  0.00     0.003 A 
ATOM     27  C   UNL d   1     -52.590  23.933  33.454  0.00  0.00     0.020 A 
ATOM     28  C   UNL d   1     -52.294  24.709  33.494  0.00  0.00     0.092 A 
ENDBRANCH  20  23
ENDBRANCH   1  20
TORSDOF 6
ENDMDL
MODEL 2
REMARK VINA RESULT:      51.2      0.728      1.277
REMARK  6 active torsions:
REMARK  status: ('A' for Active; 'I' for Inactive)
REMARK    1  A    between atoms: N_2  and  S_1 
REMARK    2  A    between atoms: C_3  and  S_1 
REMARK    3  A    between atoms: C_4  and  C_9 
REMARK    4  A    between atoms: O_12  and  C_4 
REMARK    5  A    between atoms: C_19  and  O_12 
REMARK    6  A    between atoms: C_18  and  C_19 
ROOT
ATOM      1  C   UNL d   1     -51.546  26.212  33.437  0.00  0.00     0.104 A 
ATOM      2  C   UNL d   1     -50.731  26.296  33.587  0.00  0.00     0.018 A 
ATOM      3  C   UNL d   1     -50.400  27.054  33.603  0.00  0.00     0.064 A 
ATOM      4  C   UNL d   1     -52.022  26.872  33.306  0.00  0.00     0.013 A 
ATOM      5  C   UNL d   1     -50.877  27.720  33.471  0.00  0.00     0.005 A 
ATOM      6  C   UNL d   1     -51.691  27.629  33.321  0.00  0.00     0.001 A 
ENDROOT
BRANCH   3   7
ATOM      7  C   UNL d   1     -49.590  27.156  33.751  0.00  0.00     0.300 C 
ATOM      8  O   UNL d   1     -49.055  26.548  33.587  0.00  0.00    -0.259 OA
BRANCH   7   9
ATOM      9  O   UNL d   1     -49.323  27.872  34.065  0.00  0.00    -0.271 OA
BRANCH   9  10
ATOM     10  C   UNL d   1     -48.542  27.945  34.314  0.00  0.00     0.126 C 
BRANCH  10  11
ATOM     11  C   UNL d   1     -48.294  28.634  34.677  0.00  0.00     0.027 A 
ATOM     12  C   UNL d   1     -47.884  28.593  35.378  0.00  0.00     0.028 A 
ATOM     13  C   UNL d   1     -47.635  29.287  35.741  0.00  0.00     0.119 A 
ATOM     14  O   UNL d   1     -47.215  29.424  36.445  0.00  0.00    -0.300 OA
ATOM     15  C   UNL d   1     -47.798  30.017  35.404  0.00  0.00     0.119 A 
ATOM     16  C   UNL d   1     -47.125  30.240  36.527  0.00  0.00     0.304 A 
ATOM     17  O   UNL d   1     -47.484  30.605  35.887  0.00  0.00    -0.300 OA
ATOM     18  C   UNL d   1     -48.214  30.055  34.694  0.00  0.00     0.026 A 
ATOM     19  C   UNL d   1     -48.462  29.361  34.330  0.00  0.00     0.004 A 
ENDBRANCH  10  11
ENDBRANCH   9  10
ENDBRANCH   7   9
ENDBRANCH   3   7
BRANCH   1  20
ATOM     20  S   UNL d   1     -51.877  25.455  33.421  0.00  0.00     0.271 S 
ATOM     21  O   UNL d   1     -52.647  25.754  33.330  0.00  0.00    -0.200 OA
ATOM     22  O   UNL d   1     -51.108  25.151  33.512  0.00  0.00    -0.200 OA
BRANCH  20  23
ATOM     23  N   UNL d   1     -52.223  24.699  33.404  0.00  0.00    -0.229 N 
ATOM     24  C   UNL d   1     -53.051  24.624  33.459  0.00  0.00     0.092 A 
ATOM     25  C   UNL d   1     -53.384  23.869  33.441  0.00  0.00     0.020 A 
ATOM     26  C   UNL d   1     -52.915  23.189  33.369  0.00  0.00     0.003 A 
ATOM     27  C   UNL d   1     -52.098  23.274  33.314  0.00  0.00     0.020 A 
ATOM     28  C   UNL d   1     -51.752  24.029  33.332  0.00  0.00     0.092 A 
ENDBRANCH  20  23
ENDBRANCH   1  20
TORSDOF 6
ENDMDL
