MODEL 1
REMARK VINA RESULT:      -8.9      0.000      0.000
REMARK  4 active torsions:
REMARK  status: ('A' for Active; 'I' for Inactive)
REMARK    1  A    between atoms: C_6  and  N_1 
REMARK    2  A    between atoms: C_3  and  C_4 
REMARK    3  A    between atoms: C_5  and  C_3 
REMARK       I    between atoms: C_4  and  N_10 
REMARK    4  A    between atoms: N_10  and  C_13 
ROOT
ATOM      1  C   UNL d   1      53.640  32.387  54.006  0.00  0.00     0.281 C 
ATOM      2  N   UNL d   1      54.007  31.729  53.669  0.00  0.00    -0.208 NA
ATOM      3  O   UNL d   1      52.844  32.346  54.222  0.00  0.00    -0.265 OA
ENDROOT
BRANCH   1   4
ATOM      4  C   UNL d   1      54.067  33.081  54.126  0.00  0.00     0.086 C 
BRANCH   4   5
ATOM      5  C   UNL d   1      53.677  33.814  54.146  0.00  0.00     0.144 A 
ATOM      6  C   UNL d   1      53.871  34.365  54.728  0.00  0.00     0.297 A 
ATOM      7  N   UNL d   1      53.489  35.099  54.758  0.00  0.00    -0.204 NA
ATOM      8  O   UNL d   1      54.456  34.183  55.290  0.00  0.00    -0.264 OA
ATOM      9  C   UNL d   1      52.914  35.265  54.197  0.00  0.00     0.123 A 
ATOM     10  C   UNL d   1      52.719  34.713  53.615  0.00  0.00     0.120 A 
ATOM     11  N   UNL d   1      53.100  33.996  53.594  0.00  0.00    -0.237 NA
ENDBRANCH   4   5
ENDBRANCH   1   4
BRANCH   2  12
ATOM     12  C   UNL d   1      53.580  31.035  53.549  0.00  0.00     0.086 A 
ATOM     13  C   UNL d   1      53.644  30.417  54.092  0.00  0.00     0.043 A 
ATOM     14  C   UNL d   1      53.216  29.723  53.972  0.00  0.00     0.128 A 
ATOM     15  C   UNL d   1      52.728  29.648  53.311  0.00  0.00     0.024 A 
ATOM     16  C   UNL d   1      52.667  30.267  52.772  0.00  0.00     0.003 A 
ATOM     17  C   UNL d   1      53.093  30.960  52.892  0.00  0.00     0.019 A 
BRANCH  14  18
ATOM     18  N   UNL d   1      53.278  29.106  54.512  0.00  0.00    -0.114 N 
ATOM     19  O   UNL d   1      53.683  28.414  54.316  0.00  0.00    -0.532 OA
ATOM     20  O   UNL d   1      52.930  29.172  55.268  0.00  0.00    -0.532 OA
ENDBRANCH  14  18
ENDBRANCH   2  12
TORSDOF 4
ENDMDL
MODEL 2
REMARK VINA RESULT:      -8.7      1.232      4.413
REMARK  4 active torsions:
REMARK  status: ('A' for Active; 'I' for Inactive)
REMARK    1  A    between atoms: C_6  and  N_1 
REMARK    2  A    between atoms: C_3  and  C_4 
REMARK    3  A    between atoms: C_5  and  C_3 
REMARK       I    between atoms: C_4  and  N_10 
REMARK    4  A    between atoms: N_10  and  C_13 
ROOT
ATOM      1  C   UNL d   1      52.531  32.102  52.981  0.00  0.00     0.281 C 
ATOM      2  N   UNL d   1      52.106  32.639  53.444  0.00  0.00    -0.208 NA
ATOM      3  O   UNL d   1      53.211  32.352  52.587  0.00  0.00    -0.265 OA
ENDROOT
BRANCH   1   4
ATOM      4  C   UNL d   1      52.275  31.322  52.914  0.00  0.00     0.086 C 
BRANCH   4   5
ATOM      5  C   UNL d   1      52.727  30.704  53.237  0.00  0.00     0.144 A 
ATOM      6  C   UNL d   1      52.357  30.003  53.466  0.00  0.00     0.297 A 
ATOM      7  N   UNL d   1      52.797  29.382  53.788  0.00  0.00    -0.204 NA
ATOM      8  O   UNL d   1      51.536  29.921  53.373  0.00  0.00    -0.264 OA
ATOM      9  C   UNL d   1      53.608  29.478  53.875  0.00  0.00     0.123 A 
ATOM     10  C   UNL d   1      53.978  30.179  53.645  0.00  0.00     0.120 A 
ATOM     11  N   UNL d   1      53.536  30.784  53.330  0.00  0.00    -0.237 NA
ENDBRANCH   4   5
ENDBRANCH   1   4
BRANCH   2  12
ATOM     12  C   UNL d   1      52.362  33.418  53.511  0.00  0.00     0.086 A 
ATOM     13  C   UNL d   1      52.796  33.650  54.173  0.00  0.00     0.043 A 
ATOM     14  C   UNL d   1      53.051  34.431  54.239  0.00  0.00     0.128 A 
ATOM     15  C   UNL d   1      52.874  34.975  53.646  0.00  0.00     0.024 A 
ATOM     16  C   UNL d   1      52.441  34.740  52.986  0.00  0.00     0.003 A 
ATOM     17  C   UNL d   1      52.186  33.961  52.920  0.00  0.00     0.019 A 
BRANCH  14  18
ATOM     18  N   UNL d   1      53.484  34.665  54.899  0.00  0.00    -0.114 N 
ATOM     19  O   UNL d   1      53.152  35.166  55.464  0.00  0.00    -0.532 OA
ATOM     20  O   UNL d   1      54.267  34.397  55.005  0.00  0.00    -0.532 OA
ENDBRANCH  14  18
ENDBRANCH   2  12
TORSDOF 4
ENDMDL
MODEL 3
REMARK VINA RESULT:      -7.8      1.493      4.365
REMARK  4 active torsions:
REMARK  status: ('A' for Active; 'I' for Inactive)
REMARK    1  A    between atoms: C_6  and  N_1 
REMARK    2  A    between atoms: C_3  and  C_4 
REMARK    3  A    between atoms: C_5  and  C_3 
REMARK       I    between atoms: C_4  and  N_10 
REMARK    4  A    between atoms: N_10  and  C_13 
ROOT
ATOM      1  C   UNL d   1      53.458  32.258  53.687  0.00  0.00     0.281 C 
ATOM      2  N   UNL d   1      52.945  32.743  54.117  0.00  0.00    -0.208 NA
ATOM      3  O   UNL d   1      53.747  32.514  52.958  0.00  0.00    -0.265 OA
ENDROOT
BRANCH   1   4
ATOM      4  C   UNL d   1      53.679  31.523  53.986  0.00  0.00     0.086 C 
BRANCH   4   5
ATOM      5  C   UNL d   1      53.363  30.827  53.661  0.00  0.00     0.144 A 
ATOM      6  C   UNL d   1      53.284  30.155  54.132  0.00  0.00     0.297 A 
ATOM      7  N   UNL d   1      52.971  29.456  53.819  0.00  0.00    -0.204 NA
ATOM      8  O   UNL d   1      53.520  30.179  54.928  0.00  0.00    -0.264 OA
ATOM      9  C   UNL d   1      52.741  29.447  53.031  0.00  0.00     0.123 A 
ATOM     10  C   UNL d   1      52.820  30.120  52.560  0.00  0.00     0.120 A 
ATOM     11  N   UNL d   1      53.129  30.801  52.877  0.00  0.00    -0.237 NA
ENDBRANCH   4   5
ENDBRANCH   1   4
BRANCH   2  12
ATOM     12  C   UNL d   1      52.724  33.477  53.818  0.00  0.00     0.086 A 
ATOM     13  C   UNL d   1      52.036  33.544  53.367  0.00  0.00     0.043 A 
ATOM     14  C   UNL d   1      51.816  34.280  53.068  0.00  0.00     0.128 A 
ATOM     15  C   UNL d   1      52.282  34.944  53.219  0.00  0.00     0.024 A 
ATOM     16  C   UNL d   1      52.968  34.872  53.669  0.00  0.00     0.003 A 
ATOM     17  C   UNL d   1      53.188  34.138  53.968  0.00  0.00     0.019 A 
BRANCH  14  18
ATOM     18  N   UNL d   1      51.130  34.350  52.618  0.00  0.00    -0.114 N 
ATOM     19  O   UNL d   1      51.155  34.266  51.798  0.00  0.00    -0.532 OA
ATOM     20  O   UNL d   1      50.399  34.508  52.989  0.00  0.00    -0.532 OA
ENDBRANCH  14  18
ENDBRANCH   2  12
TORSDOF 4
ENDMDL
MODEL 4
REMARK VINA RESULT:      -7.6      1.952      2.513
REMARK  4 active torsions:
REMARK  status: ('A' for Active; 'I' for Inactive)
REMARK    1  A    between atoms: C_6  and  N_1 
REMARK    2  A    between atoms: C_3  and  C_4 
REMARK    3  A    between atoms: C_5  and  C_3 
REMARK       I    between atoms: C_4  and  N_10 
REMARK    4  A    between atoms: N_10  and  C_13 
ROOT
ATOM      1  C   UNL d   1      52.470  33.135  53.008  0.00  0.00     0.281 C 
ATOM      2  N   UNL d   1      52.793  32.489  52.606  0.00  0.00    -0.208 NA
ATOM      3  O   UNL d   1      52.409  33.114  53.830  0.00  0.00    -0.265 OA
ENDROOT
BRANCH   1   4
ATOM      4  C   UNL d   1      52.211  33.794  52.588  0.00  0.00     0.086 C 
BRANCH   4   5
ATOM      5  C   UNL d   1      51.416  34.031  52.630  0.00  0.00     0.144 A 
ATOM      6  C   UNL d   1      51.020  34.259  51.944  0.00  0.00     0.297 A 
ATOM      7  N   UNL d   1      50.228  34.497  51.973  0.00  0.00    -0.204 NA
ATOM      8  O   UNL d   1      51.419  34.250  51.216  0.00  0.00    -0.264 OA
ATOM      9  C   UNL d   1      49.846  34.500  52.700  0.00  0.00     0.123 A 
ATOM     10  C   UNL d   1      50.242  34.272  53.387  0.00  0.00     0.120 A 
ATOM     11  N   UNL d   1      51.020  34.040  53.347  0.00  0.00    -0.237 NA
ENDBRANCH   4   5
ENDBRANCH   1   4
BRANCH   2  12
ATOM     12  C   UNL d   1      53.052  31.830  53.026  0.00  0.00     0.086 A 
ATOM     13  C   UNL d   1      52.629  31.123  52.976  0.00  0.00     0.043 A 
ATOM     14  C   UNL d   1      52.888  30.463  53.396  0.00  0.00     0.128 A 
ATOM     15  C   UNL d   1      53.567  30.511  53.863  0.00  0.00     0.024 A 
ATOM     16  C   UNL d   1      53.986  31.219  53.909  0.00  0.00     0.003 A 
ATOM     17  C   UNL d   1      53.727  31.877  53.490  0.00  0.00     0.019 A 
BRANCH  14  18
ATOM     18  N   UNL d   1      52.469  29.757  53.349  0.00  0.00    -0.114 N 
ATOM     19  O   UNL d   1      52.815  29.083  53.023  0.00  0.00    -0.532 OA
ATOM     20  O   UNL d   1      51.685  29.715  53.632  0.00  0.00    -0.532 OA
ENDBRANCH  14  18
ENDBRANCH   2  12
TORSDOF 4
ENDMDL
MODEL 5
REMARK VINA RESULT:      -7.4      2.650      3.671
REMARK  4 active torsions:
REMARK  status: ('A' for Active; 'I' for Inactive)
REMARK    1  A    between atoms: C_6  and  N_1 
REMARK    2  A    between atoms: C_3  and  C_4 
REMARK    3  A    between atoms: C_5  and  C_3 
REMARK       I    between atoms: C_4  and  N_10 
REMARK    4  A    between atoms: N_10  and  C_13 
ROOT
ATOM      1  C   UNL d   1      52.592  34.137  53.306  0.00  0.00     0.281 C 
ATOM      2  N   UNL d   1      53.191  33.577  53.207  0.00  0.00    -0.208 NA
ATOM      3  O   UNL d   1      52.389  34.387  54.066  0.00  0.00    -0.265 OA
ENDROOT
BRANCH   1   4
ATOM      4  C   UNL d   1      52.202  34.443  52.650  0.00  0.00     0.086 C 
BRANCH   4   5
ATOM      5  C   UNL d   1      51.372  34.426  52.611  0.00  0.00     0.144 A 
ATOM      6  C   UNL d   1      50.999  34.276  51.890  0.00  0.00     0.297 A 
ATOM      7  N   UNL d   1      50.174  34.257  51.839  0.00  0.00    -0.204 NA
ATOM      8  O   UNL d   1      51.456  34.145  51.209  0.00  0.00    -0.264 OA
ATOM      9  C   UNL d   1      49.735  34.389  52.521  0.00  0.00     0.123 A 
ATOM     10  C   UNL d   1      50.108  34.538  53.241  0.00  0.00     0.120 A 
ATOM     11  N   UNL d   1      50.920  34.555  53.280  0.00  0.00    -0.237 NA
ENDBRANCH   4   5
ENDBRANCH   1   4
BRANCH   2  12
ATOM     12  C   UNL d   1      53.582  33.270  53.864  0.00  0.00     0.086 A 
ATOM     13  C   UNL d   1      54.210  33.689  54.197  0.00  0.00     0.043 A 
ATOM     14  C   UNL d   1      54.601  33.382  54.855  0.00  0.00     0.128 A 
ATOM     15  C   UNL d   1      54.364  32.660  55.176  0.00  0.00     0.024 A 
ATOM     16  C   UNL d   1      53.737  32.245  54.841  0.00  0.00     0.003 A 
ATOM     17  C   UNL d   1      53.347  32.552  54.184  0.00  0.00     0.019 A 
BRANCH  14  18
ATOM     18  N   UNL d   1      55.228  33.797  55.189  0.00  0.00    -0.114 N 
ATOM     19  O   UNL d   1      55.938  33.888  54.780  0.00  0.00    -0.532 OA
ATOM     20  O   UNL d   1      55.151  34.132  55.949  0.00  0.00    -0.532 OA
ENDBRANCH  14  18
ENDBRANCH   2  12
TORSDOF 4
ENDMDL
