MODEL 1
REMARK VINA RESULT:      -4.8      0.000      0.000
REMARK  5 active torsions:
REMARK  status: ('A' for Active; 'I' for Inactive)
REMARK    1  A    between atoms: N_19  and  C_6 
REMARK    2  A    between atoms: N_15  and  C_21 
REMARK    3  A    between atoms: C_25  and  N_19 
REMARK    4  A    between atoms: C_21  and  C_22 
REMARK    5  A    between atoms: C_22  and  C_25 
ROOT
ATOM      1  N   UNL d   1      58.785  -0.733  29.932  0.00  0.00    -0.183 N 
ATOM      2  C   UNL d   1      59.354  -1.084  29.448  0.00  0.00     0.169 A 
ATOM      3  C   UNL d   1      59.267  -1.852  29.197  0.00  0.00     0.073 A 
ATOM      4  C   UNL d   1      58.608  -2.268  29.432  0.00  0.00     0.185 A 
ATOM      5  N   UNL d   1      58.040  -1.916  29.916  0.00  0.00    -0.142 NA
ATOM      6  C   UNL d   1      58.890   0.036  30.173  0.00  0.00     0.218 A 
ATOM      7  N   UNL d   1      60.011  -0.657  29.218  0.00  0.00    -0.226 NA
ATOM      8  C   UNL d   1      59.829  -2.200  28.718  0.00  0.00     0.007 A 
ATOM      9  N   UNL d   1      58.506  -3.047  29.186  0.00  0.00    -0.225 NA
ATOM     10  C   UNL d   1      59.539   0.463  29.948  0.00  0.00     0.071 A 
ATOM     11  C   UNL d   1      59.742  -2.969  28.467  0.00  0.00     0.019 A 
ATOM     12  C   UNL d   1      60.107   0.111  29.464  0.00  0.00     0.087 A 
ATOM     13  C   UNL d   1      59.074  -3.399  28.702  0.00  0.00     0.083 A 
ATOM     14  C   UNL d   1      60.488  -1.771  28.488  0.00  0.00     0.000 C 
ATOM     15  C   UNL d   1      60.789   0.557  29.226  0.00  0.00     0.021 C 
ATOM     16  C   UNL d   1      58.980  -4.164  28.456  0.00  0.00     0.021 C 
ENDROOT
BRANCH   6  17
ATOM     17  N   UNL d   1      58.298   0.392  30.672  0.00  0.00    -0.380 NA
BRANCH  17  18
ATOM     18  C   UNL d   1      57.701   0.682  31.196  0.00  0.00     0.164 C 
BRANCH  18  19
ATOM     19  C   UNL d   1      57.175   0.144  31.570  0.00  0.00     0.054 C 
BRANCH  19  20
ATOM     20  C   UNL d   1      56.599   0.428  32.106  0.00  0.00     0.084 C 
BRANCH  20  21
ATOM     21  N   UNL d   1      56.137  -0.113  32.563  0.00  0.00    -0.285 N 
ATOM     22  C   UNL d   1      55.491   0.079  33.062  0.00  0.00     0.183 A 
ATOM     23  N   UNL d   1      55.201  -0.646  33.406  0.00  0.00    -0.222 NA
ATOM     24  C   UNL d   1      55.675  -1.285  33.116  0.00  0.00     0.120 A 
ATOM     25  C   UNL d   1      56.261  -0.956  32.589  0.00  0.00     0.102 A 
ENDBRANCH  20  21
ENDBRANCH  19  20
ENDBRANCH  18  19
ENDBRANCH  17  18
ENDBRANCH   6  17
TORSDOF 5
ENDMDL
MODEL 2
REMARK VINA RESULT:      -4.6      8.599      8.981
REMARK  5 active torsions:
REMARK  status: ('A' for Active; 'I' for Inactive)
REMARK    1  A    between atoms: N_19  and  C_6 
REMARK    2  A    between atoms: N_15  and  C_21 
REMARK    3  A    between atoms: C_25  and  N_19 
REMARK    4  A    between atoms: C_21  and  C_22 
REMARK    5  A    between atoms: C_22  and  C_25 
ROOT
ATOM      1  N   UNL d   1      58.916  -9.818  31.578  0.00  0.00    -0.183 N 
ATOM      2  C   UNL d   1      58.951  -9.817  30.754  0.00  0.00     0.169 A 
ATOM      3  C   UNL d   1      58.270  -9.817  30.310  0.00  0.00     0.073 A 
ATOM      4  C   UNL d   1      57.553  -9.817  30.695  0.00  0.00     0.185 A 
ATOM      5  N   UNL d   1      57.518  -9.818  31.520  0.00  0.00    -0.142 NA
ATOM      6  C   UNL d   1      59.608  -9.818  32.005  0.00  0.00     0.218 A 
ATOM      7  N   UNL d   1      59.676  -9.817  30.378  0.00  0.00    -0.226 NA
ATOM      8  C   UNL d   1      58.304  -9.817  29.495  0.00  0.00     0.007 A 
ATOM      9  N   UNL d   1      56.854  -9.817  30.260  0.00  0.00    -0.225 NA
ATOM     10  C   UNL d   1      60.328  -9.817  31.638  0.00  0.00     0.071 A 
ATOM     11  C   UNL d   1      57.622  -9.817  29.051  0.00  0.00     0.019 A 
ATOM     12  C   UNL d   1      60.362  -9.817  30.813  0.00  0.00     0.087 A 
ATOM     13  C   UNL d   1      56.888  -9.817  29.436  0.00  0.00     0.083 A 
ATOM     14  C   UNL d   1      59.032  -9.817  29.119  0.00  0.00     0.000 C 
ATOM     15  C   UNL d   1      61.117  -9.817  30.426  0.00  0.00     0.021 C 
ATOM     16  C   UNL d   1      56.206  -9.817  29.001  0.00  0.00     0.021 C 
ENDROOT
BRANCH   6  17
ATOM     17  N   UNL d   1      59.563  -9.818  32.856  0.00  0.00    -0.380 NA
BRANCH  17  18
ATOM     18  C   UNL d   1      59.587  -9.806  33.701  0.00  0.00     0.164 C 
BRANCH  18  19
ATOM     19  C   UNL d   1      59.757  -9.089  34.105  0.00  0.00     0.054 C 
BRANCH  19  20
ATOM     20  C   UNL d   1      59.834  -9.087  34.938  0.00  0.00     0.084 C 
BRANCH  20  21
ATOM     21  N   UNL d   1      60.044  -8.376  35.346  0.00  0.00    -0.285 N 
ATOM     22  C   UNL d   1      60.801  -8.017  35.366  0.00  0.00     0.183 A 
ATOM     23  N   UNL d   1      60.745  -7.313  35.845  0.00  0.00    -0.222 NA
ATOM     24  C   UNL d   1      59.948  -7.243  36.119  0.00  0.00     0.120 A 
ATOM     25  C   UNL d   1      59.506  -7.905  35.809  0.00  0.00     0.102 A 
ENDBRANCH  20  21
ENDBRANCH  19  20
ENDBRANCH  18  19
ENDBRANCH  17  18
ENDBRANCH   6  17
TORSDOF 5
ENDMDL
MODEL 3
REMARK VINA RESULT:      -3.3      1.543      5.808
REMARK  5 active torsions:
REMARK  status: ('A' for Active; 'I' for Inactive)
REMARK    1  A    between atoms: N_19  and  C_6 
REMARK    2  A    between atoms: N_15  and  C_21 
REMARK    3  A    between atoms: C_25  and  N_19 
REMARK    4  A    between atoms: C_21  and  C_22 
REMARK    5  A    between atoms: C_22  and  C_25 
ROOT
ATOM      1  N   UNL d   1      56.687   0.681  32.783  0.00  0.00    -0.183 N 
ATOM      2  C   UNL d   1      56.559   0.682  33.598  0.00  0.00     0.169 A 
ATOM      3  C   UNL d   1      55.804   0.681  33.900  0.00  0.00     0.073 A 
ATOM      4  C   UNL d   1      55.177   0.681  33.381  0.00  0.00     0.185 A 
ATOM      5  N   UNL d   1      55.305   0.681  32.566  0.00  0.00    -0.142 NA
ATOM      6  C   UNL d   1      57.449   0.681  32.501  0.00  0.00     0.218 A 
ATOM      7  N   UNL d   1      57.196   0.682  34.110  0.00  0.00    -0.226 NA
ATOM      8  C   UNL d   1      55.677   0.682  34.706  0.00  0.00     0.007 A 
ATOM      9  N   UNL d   1      54.405   0.681  33.670  0.00  0.00    -0.225 NA
ATOM     10  C   UNL d   1      58.083   0.682  33.003  0.00  0.00     0.071 A 
ATOM     11  C   UNL d   1      54.921   0.682  35.007  0.00  0.00     0.019 A 
ATOM     12  C   UNL d   1      57.955   0.682  33.818  0.00  0.00     0.087 A 
ATOM     13  C   UNL d   1      54.277   0.681  34.485  0.00  0.00     0.083 A 
ATOM     14  C   UNL d   1      56.317   0.682  35.217  0.00  0.00     0.000 C 
ATOM     15  C   UNL d   1      58.618   0.682  34.347  0.00  0.00     0.021 C 
ATOM     16  C   UNL d   1      53.522   0.681  34.778  0.00  0.00     0.021 C 
ENDROOT
BRANCH   6  17
ATOM     17  N   UNL d   1      57.573   0.681  31.658  0.00  0.00    -0.380 NA
BRANCH  17  18
ATOM     18  C   UNL d   1      57.663   0.620  30.820  0.00  0.00     0.164 C 
BRANCH  18  19
ATOM     19  C   UNL d   1      58.284   0.154  30.498  0.00  0.00     0.054 C 
BRANCH  19  20
ATOM     20  C   UNL d   1      58.399   0.126  29.670  0.00  0.00     0.084 C 
BRANCH  20  21
ATOM     21  N   UNL d   1      59.055  -0.298  29.345  0.00  0.00    -0.285 N 
ATOM     22  C   UNL d   1      59.859  -0.062  29.359  0.00  0.00     0.183 A 
ATOM     23  N   UNL d   1      60.316  -0.664  28.964  0.00  0.00    -0.222 NA
ATOM     24  C   UNL d   1      59.787  -1.272  28.707  0.00  0.00     0.120 A 
ATOM     25  C   UNL d   1      58.998  -1.047  28.943  0.00  0.00     0.102 A 
ENDBRANCH  20  21
ENDBRANCH  19  20
ENDBRANCH  18  19
ENDBRANCH  17  18
ENDBRANCH   6  17
TORSDOF 5
ENDMDL
