MODEL 1
REMARK VINA RESULT:      -3.7      0.000      0.000
REMARK  2 active torsions:
REMARK  status: ('A' for Active; 'I' for Inactive)
REMARK    1  A    between atoms: C_2  and  C_1 
REMARK    2  A    between atoms: C_14  and  C_8 
ROOT
ATOM      1  C   UNL d   1      32.045  17.675 -23.676  0.00  0.00     0.106 A 
ATOM      2  C   UNL d   1      32.442  16.969 -23.572  0.00  0.00     0.304 A 
ATOM      3  C   UNL d   1      31.272  17.666 -23.972  0.00  0.00     0.011 A 
ATOM      4  C   UNL d   1      30.903  16.960 -24.159  0.00  0.00     0.023 A 
ATOM      5  O   UNL d   1      32.083  16.226 -23.758  0.00  0.00    -0.273 OA
ATOM      6  C   UNL d   1      31.301  16.254 -24.054  0.00  0.00     0.103 A 
ATOM      7  C   UNL d   1      30.130  16.951 -24.454  0.00  0.00     0.002 A 
ATOM      8  O   UNL d   1      33.241  16.983 -23.266  0.00  0.00    -0.259 OA
ATOM      9  C   UNL d   1      30.941  15.511 -24.240  0.00  0.00     0.025 A 
ATOM     10  C   UNL d   1      29.757  16.242 -24.643  0.00  0.00     0.000 A 
ATOM     11  C   UNL d   1      30.155  15.537 -24.538  0.00  0.00     0.002 A 
ATOM     12  C   UNL d   1      29.725  17.670 -24.561  0.00  0.00     0.000 A 
ATOM     13  C   UNL d   1      28.984  16.233 -24.939  0.00  0.00     0.000 A 
ATOM     14  C   UNL d   1      28.954  17.668 -24.855  0.00  0.00     0.000 A 
ATOM     15  C   UNL d   1      28.566  16.945 -25.051  0.00  0.00     0.000 A 
ENDROOT
BRANCH   1  16
ATOM     16  C   UNL d   1      32.422  18.386 -23.485  0.00  0.00     0.210 A 
ATOM     17  O   UNL d   1      32.320  18.868 -22.822  0.00  0.00    -0.268 OA
ATOM     18  C   UNL d   1      32.829  19.505 -22.905  0.00  0.00     0.204 A 
ATOM     19  N   UNL d   1      33.241  19.424 -23.606  0.00  0.00    -0.121 NA
ATOM     20  N   UNL d   1      32.996  18.733 -23.972  0.00  0.00    -0.121 NA
BRANCH  18  21
ATOM     21  C   UNL d   1      32.960  20.148 -22.419  0.00  0.00     0.043 A 
ATOM     22  C   UNL d   1      32.963  20.056 -21.611  0.00  0.00     0.004 A 
ATOM     23  C   UNL d   1      33.096  20.705 -21.113  0.00  0.00     0.000 A 
ATOM     24  C   UNL d   1      33.223  21.439 -21.434  0.00  0.00     0.000 A 
ATOM     25  C   UNL d   1      33.219  21.526 -22.253  0.00  0.00     0.000 A 
ATOM     26  C   UNL d   1      33.088  20.887 -22.744  0.00  0.00     0.004 A 
ENDBRANCH  18  21
ENDBRANCH   1  16
TORSDOF 2
ENDMDL
MODEL 2
REMARK VINA RESULT:      -2.9      1.292      5.146
REMARK  2 active torsions:
REMARK  status: ('A' for Active; 'I' for Inactive)
REMARK    1  A    between atoms: C_2  and  C_1 
REMARK    2  A    between atoms: C_14  and  C_8 
ROOT
ATOM      1  C   UNL d   1      32.850  19.488 -23.469  0.00  0.00     0.106 A 
ATOM      2  C   UNL d   1      33.062  19.891 -24.147  0.00  0.00     0.304 A 
ATOM      3  C   UNL d   1      32.766  19.904 -22.759  0.00  0.00     0.011 A 
ATOM      4  C   UNL d   1      32.892  20.712 -22.728  0.00  0.00     0.023 A 
ATOM      5  O   UNL d   1      33.198  20.726 -24.142  0.00  0.00    -0.273 OA
ATOM      6  C   UNL d   1      33.104  21.115 -23.407  0.00  0.00     0.103 A 
ATOM      7  C   UNL d   1      32.808  21.128 -22.018  0.00  0.00     0.002 A 
ATOM      8  O   UNL d   1      33.148  19.457 -24.879  0.00  0.00    -0.259 OA
ATOM      9  C   UNL d   1      33.240  21.950 -23.402  0.00  0.00     0.025 A 
ATOM     10  C   UNL d   1      32.934  21.940 -21.986  0.00  0.00     0.000 A 
ATOM     11  C   UNL d   1      33.146  22.343 -22.664  0.00  0.00     0.002 A 
ATOM     12  C   UNL d   1      32.592  20.717 -21.327  0.00  0.00     0.000 A 
ATOM     13  C   UNL d   1      32.850  22.357 -21.276  0.00  0.00     0.000 A 
ATOM     14  C   UNL d   1      32.507  21.126 -20.616  0.00  0.00     0.000 A 
ATOM     15  C   UNL d   1      32.635  21.959 -20.576  0.00  0.00     0.000 A 
ENDROOT
BRANCH   1  16
ATOM     16  C   UNL d   1      32.723  18.671 -23.504  0.00  0.00     0.210 A 
ATOM     17  O   UNL d   1      32.105  18.256 -23.861  0.00  0.00    -0.268 OA
ATOM     18  C   UNL d   1      32.246  17.457 -23.735  0.00  0.00     0.204 A 
ATOM     19  N   UNL d   1      32.937  17.376 -23.308  0.00  0.00    -0.121 NA
ATOM     20  N   UNL d   1      33.240  18.122 -23.161  0.00  0.00    -0.121 NA
BRANCH  18  21
ATOM     21  C   UNL d   1      31.818  16.799 -23.963  0.00  0.00     0.043 A 
ATOM     22  C   UNL d   1      32.081  16.332 -24.574  0.00  0.00     0.004 A 
ATOM     23  C   UNL d   1      31.651  15.664 -24.809  0.00  0.00     0.000 A 
ATOM     24  C   UNL d   1      30.962  15.474 -24.426  0.00  0.00     0.000 A 
ATOM     25  C   UNL d   1      30.701  15.950 -23.807  0.00  0.00     0.000 A 
ATOM     26  C   UNL d   1      31.124  16.610 -23.575  0.00  0.00     0.004 A 
ENDBRANCH  18  21
ENDBRANCH   1  16
TORSDOF 2
ENDMDL
MODEL 3
REMARK VINA RESULT:      -1.9      1.329      5.302
REMARK  2 active torsions:
REMARK  status: ('A' for Active; 'I' for Inactive)
REMARK    1  A    between atoms: C_2  and  C_1 
REMARK    2  A    between atoms: C_14  and  C_8 
ROOT
ATOM      1  C   UNL d   1      32.850  19.974 -22.139  0.00  0.00     0.106 A 
ATOM      2  C   UNL d   1      32.934  19.989 -21.326  0.00  0.00     0.304 A 
ATOM      3  C   UNL d   1      32.882  20.683 -22.563  0.00  0.00     0.011 A 
ATOM      4  C   UNL d   1      32.995  21.397 -22.180  0.00  0.00     0.023 A 
ATOM      5  O   UNL d   1      33.052  20.714 -20.906  0.00  0.00    -0.273 OA
ATOM      6  C   UNL d   1      33.078  21.412 -21.367  0.00  0.00     0.103 A 
ATOM      7  C   UNL d   1      33.026  22.107 -22.604  0.00  0.00     0.002 A 
ATOM      8  O   UNL d   1      32.901  19.254 -20.891  0.00  0.00    -0.259 OA
ATOM      9  C   UNL d   1      33.196  22.137 -20.947  0.00  0.00     0.025 A 
ATOM     10  C   UNL d   1      33.140  22.825 -22.221  0.00  0.00     0.000 A 
ATOM     11  C   UNL d   1      33.223  22.840 -21.409  0.00  0.00     0.002 A 
ATOM     12  C   UNL d   1      32.941  22.091 -23.433  0.00  0.00     0.000 A 
ATOM     13  C   UNL d   1      33.171  23.535 -22.646  0.00  0.00     0.000 A 
ATOM     14  C   UNL d   1      32.972  22.795 -23.862  0.00  0.00     0.000 A 
ATOM     15  C   UNL d   1      33.088  23.535 -23.475  0.00  0.00     0.000 A 
ENDROOT
BRANCH   1  16
ATOM     16  C   UNL d   1      32.736  19.249 -22.522  0.00  0.00     0.210 A 
ATOM     17  O   UNL d   1      32.143  19.030 -23.053  0.00  0.00    -0.268 OA
ATOM     18  C   UNL d   1      32.286  18.251 -23.267  0.00  0.00     0.204 A 
ATOM     19  N   UNL d   1      32.955  17.990 -22.878  0.00  0.00    -0.121 NA
ATOM     20  N   UNL d   1      33.241  18.602 -22.414  0.00  0.00    -0.121 NA
BRANCH  18  21
ATOM     21  C   UNL d   1      31.879  17.755 -23.773  0.00  0.00     0.043 A 
ATOM     22  C   UNL d   1      31.615  17.032 -23.512  0.00  0.00     0.004 A 
ATOM     23  C   UNL d   1      31.202  16.525 -24.021  0.00  0.00     0.000 A 
ATOM     24  C   UNL d   1      31.060  16.752 -24.787  0.00  0.00     0.000 A 
ATOM     25  C   UNL d   1      31.331  17.485 -25.046  0.00  0.00     0.000 A 
ATOM     26  C   UNL d   1      31.738  17.986 -24.544  0.00  0.00     0.004 A 
ENDBRANCH  18  21
ENDBRANCH   1  16
TORSDOF 2
ENDMDL
MODEL 4
REMARK VINA RESULT:      -0.9      2.897      3.988
REMARK  2 active torsions:
REMARK  status: ('A' for Active; 'I' for Inactive)
REMARK    1  A    between atoms: C_2  and  C_1 
REMARK    2  A    between atoms: C_14  and  C_8 
ROOT
ATOM      1  C   UNL d   1      33.203  21.032 -22.864  0.00  0.00     0.106 A 
ATOM      2  C   UNL d   1      33.184  21.271 -23.644  0.00  0.00     0.304 A 
ATOM      3  C   UNL d   1      33.212  20.223 -22.687  0.00  0.00     0.011 A 
ATOM      4  C   UNL d   1      33.202  19.664 -23.284  0.00  0.00     0.023 A 
ATOM      5  O   UNL d   1      33.173  20.712 -24.279  0.00  0.00    -0.273 OA
ATOM      6  C   UNL d   1      33.183  19.903 -24.064  0.00  0.00     0.103 A 
ATOM      7  C   UNL d   1      33.212  18.855 -23.107  0.00  0.00     0.002 A 
ATOM      8  O   UNL d   1      33.174  22.107 -23.823  0.00  0.00    -0.259 OA
ATOM      9  C   UNL d   1      33.172  19.344 -24.699  0.00  0.00     0.025 A 
ATOM     10  C   UNL d   1      33.202  18.291 -23.705  0.00  0.00     0.000 A 
ATOM     11  C   UNL d   1      33.183  18.530 -24.486  0.00  0.00     0.002 A 
ATOM     12  C   UNL d   1      33.231  18.611 -22.311  0.00  0.00     0.000 A 
ATOM     13  C   UNL d   1      33.211  17.482 -23.529  0.00  0.00     0.000 A 
ATOM     14  C   UNL d   1      33.241  17.807 -22.128  0.00  0.00     0.000 A 
ATOM     15  C   UNL d   1      33.231  17.223 -22.737  0.00  0.00     0.000 A 
ENDROOT
BRANCH   1  16
ATOM     16  C   UNL d   1      33.213  21.602 -22.264  0.00  0.00     0.210 A 
ATOM     17  O   UNL d   1      33.202  21.495 -21.445  0.00  0.00    -0.268 OA
ATOM     18  C   UNL d   1      33.219  22.241 -21.104  0.00  0.00     0.204 A 
ATOM     19  N   UNL d   1      33.240  22.802 -21.698  0.00  0.00    -0.121 NA
ATOM     20  N   UNL d   1      33.236  22.415 -22.420  0.00  0.00    -0.121 NA
BRANCH  18  21
ATOM     21  C   UNL d   1      33.218  22.468 -20.319  0.00  0.00     0.043 A 
ATOM     22  C   UNL d   1      33.220  23.256 -20.121  0.00  0.00     0.004 A 
ATOM     23  C   UNL d   1      33.219  23.491 -19.326  0.00  0.00     0.000 A 
ATOM     24  C   UNL d   1      33.215  22.929 -18.740  0.00  0.00     0.000 A 
ATOM     25  C   UNL d   1      33.213  22.132 -18.948  0.00  0.00     0.000 A 
ATOM     26  C   UNL d   1      33.214  21.900 -19.731  0.00  0.00     0.004 A 
ENDBRANCH  18  21
ENDBRANCH   1  16
TORSDOF 2
ENDMDL
