MODEL 1
REMARK VINA RESULT:      -2.0      0.000      0.000
REMARK  4 active torsions:
REMARK  status: ('A' for Active; 'I' for Inactive)
REMARK    1  A    between atoms: S_13  and  C_7 
REMARK       I    between atoms: N_10  and  C_12 
REMARK    2  A    between atoms: C_25  and  C_11 
REMARK    3  A    between atoms: C_12  and  C_16 
REMARK    4  A    between atoms: C_16  and  S_13 
ROOT
ATOM      1  N   UNL d   1      29.949  17.592 -24.602  0.00  0.00    -0.224 N 
ATOM      2  N   UNL d   1      30.206  16.232 -24.213  0.00  0.00    -0.241 N 
ATOM      3  C   UNL d   1      29.684  16.808 -24.489  0.00  0.00     0.343 A 
ATOM      4  C   UNL d   1      30.991  16.438 -24.049  0.00  0.00     0.160 A 
ATOM      5  C   UNL d   1      30.733  17.792 -24.437  0.00  0.00     0.273 A 
ATOM      6  C   UNL d   1      31.254  17.215 -24.160  0.00  0.00     0.115 A 
ATOM      7  C   UNL d   1      32.037  17.415 -23.995  0.00  0.00     0.120 A 
ATOM      8  N   UNL d   1      31.520  15.860 -23.769  0.00  0.00    -0.209 NA
ATOM      9  N   UNL d   1      32.560  16.843 -23.719  0.00  0.00    -0.220 NA
ATOM     10  C   UNL d   1      32.303  16.059 -23.604  0.00  0.00     0.165 A 
ATOM     11  O   UNL d   1      28.898  16.610 -24.656  0.00  0.00    -0.245 OA
ATOM     12  O   UNL d   1      30.991  18.568 -24.550  0.00  0.00    -0.266 OA
ATOM     13  C   UNL d   1      29.425  18.160 -24.878  0.00  0.00     0.107 C 
ATOM     14  C   UNL d   1      29.944  15.455 -24.101  0.00  0.00     0.105 C 
ENDROOT
BRANCH   7  15
ATOM     15  S   UNL d   1      32.295  18.191 -24.108  0.00  0.00    -0.062 SA
BRANCH  15  16
ATOM     16  C   UNL d   1      32.786  18.551 -23.547  0.00  0.00     0.098 C 
BRANCH  16  17
ATOM     17  C   UNL d   1      32.983  19.348 -23.618  0.00  0.00     0.271 C 
ATOM     18  N   UNL d   1      33.012  19.830 -22.954  0.00  0.00    -0.272 N 
ATOM     19  C   UNL d   1      32.844  19.514 -22.227  0.00  0.00     0.083 A 
ATOM     20  C   UNL d   1      33.209  20.626 -23.022  0.00  0.00     0.083 A 
ATOM     21  C   UNL d   1      32.871  19.998 -21.548  0.00  0.00     0.019 A 
ATOM     22  C   UNL d   1      33.070  20.800 -21.617  0.00  0.00     0.003 A 
ATOM     23  C   UNL d   1      33.240  21.111 -22.365  0.00  0.00     0.019 A 
ATOM     24  C   UNL d   1      33.097  21.276 -20.951  0.00  0.00     0.000 C 
ATOM     25  O   UNL d   1      33.156  19.669 -24.369  0.00  0.00    -0.266 OA
ENDBRANCH  16  17
ENDBRANCH  15  16
ENDBRANCH   7  15
BRANCH  10  26
ATOM     26  C   UNL d   1      32.831  15.486 -23.326  0.00  0.00     0.039 C 
ATOM     27  C   UNL d   1      33.047  15.470 -22.530  0.00  0.00     0.003 C 
ENDBRANCH  10  26
TORSDOF 4
ENDMDL
