MODEL 1
REMARK VINA RESULT:      -8.7      0.000      0.000
REMARK  5 active torsions:
REMARK  status: ('A' for Active; 'I' for Inactive)
REMARK    1  A    between atoms: N_4  and  C_1 
REMARK       I    between atoms: C_3  and  N_4 
REMARK    2  A    between atoms: C_8  and  C_3 
REMARK    3  A    between atoms: S_9  and  C_5 
REMARK    4  A    between atoms: C_12  and  S_9 
REMARK    5  A    between atoms: C_15  and  C_12 
ROOT
ATOM      1  C   UNL d   1      51.406  33.872  52.959  0.00  0.00     0.219 A 
ATOM      2  S   UNL d   1      50.593  33.982  53.213  0.00  0.00    -0.019 SA
ATOM      3  C   UNL d   1      50.184  34.366  52.549  0.00  0.00     0.165 A 
ATOM      4  N   UNL d   1      51.422  34.142  52.298  0.00  0.00    -0.120 NA
ATOM      5  N   UNL d   1      50.655  34.447  52.051  0.00  0.00    -0.133 NA
ENDROOT
BRANCH   1   6
ATOM      6  N   UNL d   1      52.081  33.488  53.454  0.00  0.00    -0.181 NA
ATOM      7  C   UNL d   1      52.819  33.901  53.583  0.00  0.00     0.282 C 
ATOM      8  O   UNL d   1      52.890  34.531  53.303  0.00  0.00    -0.265 OA
BRANCH   7   9
ATOM      9  C   UNL d   1      53.487  33.672  53.998  0.00  0.00     0.069 A 
ATOM     10  C   UNL d   1      53.693  34.077  54.672  0.00  0.00     0.062 A 
ATOM     11 CL   UNL d   1      53.200  34.767  54.963  0.00  0.00    -0.082 Cl
ATOM     12  C   UNL d   1      54.360  33.856  55.095  0.00  0.00     0.012 A 
ATOM     13  C   UNL d   1      54.825  33.224  54.843  0.00  0.00     0.001 A 
ATOM     14  C   UNL d   1      54.615  32.809  54.153  0.00  0.00     0.000 A 
ATOM     15  C   UNL d   1      53.938  33.038  53.729  0.00  0.00     0.006 A 
ENDBRANCH   7   9
ENDBRANCH   1   6
BRANCH   3  16
ATOM     16  S   UNL d   1      49.333  34.647  52.414  0.00  0.00    -0.059 SA
BRANCH  16  17
ATOM     17  C   UNL d   1      49.186  35.265  52.803  0.00  0.00     0.037 C 
BRANCH  17  18
ATOM     18  C   UNL d   1      48.444  35.604  52.769  0.00  0.00     0.007 A 
ATOM     19  C   UNL d   1      48.007  35.600  52.076  0.00  0.00     0.001 A 
ATOM     20  C   UNL d   1      47.254  35.944  52.042  0.00  0.00     0.007 A 
ATOM     21  C   UNL d   1      46.942  36.298  52.723  0.00  0.00     0.035 A 
ATOM     22  C   UNL d   1      47.387  36.305  53.438  0.00  0.00     0.007 A 
ATOM     23 BR   UNL d   1      46.120  36.684  52.719  0.00  0.00    -0.049 Br
ATOM     24  C   UNL d   1      48.141  35.948  53.434  0.00  0.00     0.001 A 
ENDBRANCH  17  18
ENDBRANCH  16  17
ENDBRANCH   3  16
TORSDOF 5
ENDMDL
MODEL 2
REMARK VINA RESULT:      -8.3      1.599      1.845
REMARK  5 active torsions:
REMARK  status: ('A' for Active; 'I' for Inactive)
REMARK    1  A    between atoms: N_4  and  C_1 
REMARK       I    between atoms: C_3  and  N_4 
REMARK    2  A    between atoms: C_8  and  C_3 
REMARK    3  A    between atoms: S_9  and  C_5 
REMARK    4  A    between atoms: C_12  and  S_9 
REMARK    5  A    between atoms: C_15  and  C_12 
ROOT
ATOM      1  C   UNL d   1      51.590  33.329  53.112  0.00  0.00     0.219 A 
ATOM      2  S   UNL d   1      50.743  33.440  53.019  0.00  0.00    -0.019 SA
ATOM      3  C   UNL d   1      50.644  34.220  52.647  0.00  0.00     0.165 A 
ATOM      4  N   UNL d   1      51.877  33.925  52.845  0.00  0.00    -0.120 NA
ATOM      5  N   UNL d   1      51.278  34.475  52.558  0.00  0.00    -0.133 NA
ENDROOT
BRANCH   1   6
ATOM      6  N   UNL d   1      52.002  32.591  53.479  0.00  0.00    -0.181 NA
ATOM      7  C   UNL d   1      52.486  32.075  52.998  0.00  0.00     0.282 C 
ATOM      8  O   UNL d   1      52.557  32.231  52.326  0.00  0.00    -0.265 OA
BRANCH   7   9
ATOM      9  C   UNL d   1      52.900  31.398  53.201  0.00  0.00     0.069 A 
ATOM     10  C   UNL d   1      53.642  31.469  53.524  0.00  0.00     0.062 A 
ATOM     11 CL   UNL d   1      54.010  32.275  53.659  0.00  0.00    -0.082 Cl
ATOM     12  C   UNL d   1      54.065  30.798  53.731  0.00  0.00     0.012 A 
ATOM     13  C   UNL d   1      53.743  30.048  53.614  0.00  0.00     0.001 A 
ATOM     14  C   UNL d   1      52.983  29.974  53.284  0.00  0.00     0.000 A 
ATOM     15  C   UNL d   1      52.560  30.659  53.076  0.00  0.00     0.006 A 
ENDBRANCH   7   9
ENDBRANCH   1   6
BRANCH   3  16
ATOM     16  S   UNL d   1      49.922  34.702  52.386  0.00  0.00    -0.059 SA
BRANCH  16  17
ATOM     17  C   UNL d   1      49.520  34.928  52.970  0.00  0.00     0.037 C 
BRANCH  17  18
ATOM     18  C   UNL d   1      48.820  35.331  52.855  0.00  0.00     0.007 A 
ATOM     19  C   UNL d   1      48.420  35.293  52.141  0.00  0.00     0.001 A 
ATOM     20  C   UNL d   1      47.710  35.702  52.024  0.00  0.00     0.007 A 
ATOM     21  C   UNL d   1      47.401  36.157  52.643  0.00  0.00     0.035 A 
ATOM     22  C   UNL d   1      47.808  36.201  53.380  0.00  0.00     0.007 A 
ATOM     23 BR   UNL d   1      46.624  36.618  52.547  0.00  0.00    -0.049 Br
ATOM     24  C   UNL d   1      48.520  35.775  53.460  0.00  0.00     0.001 A 
ENDBRANCH  17  18
ENDBRANCH  16  17
ENDBRANCH   3  16
TORSDOF 5
ENDMDL
MODEL 3
REMARK VINA RESULT:      -7.7      3.029      6.044
REMARK  5 active torsions:
REMARK  status: ('A' for Active; 'I' for Inactive)
REMARK    1  A    between atoms: N_4  and  C_1 
REMARK       I    between atoms: C_3  and  N_4 
REMARK    2  A    between atoms: C_8  and  C_3 
REMARK    3  A    between atoms: S_9  and  C_5 
REMARK    4  A    between atoms: C_12  and  S_9 
REMARK    5  A    between atoms: C_15  and  C_12 
ROOT
ATOM      1  C   UNL d   1      50.769  34.321  52.787  0.00  0.00     0.219 A 
ATOM      2  S   UNL d   1      51.037  33.671  53.280  0.00  0.00    -0.019 SA
ATOM      3  C   UNL d   1      51.829  33.460  52.988  0.00  0.00     0.165 A 
ATOM      4  N   UNL d   1      51.307  34.431  52.330  0.00  0.00    -0.120 NA
ATOM      5  N   UNL d   1      51.963  33.888  52.464  0.00  0.00    -0.133 NA
ENDROOT
BRANCH   1   6
ATOM      6  N   UNL d   1      49.961  34.757  52.859  0.00  0.00    -0.181 NA
ATOM      7  C   UNL d   1      49.428  34.806  52.192  0.00  0.00     0.282 C 
ATOM      8  O   UNL d   1      49.625  34.508  51.598  0.00  0.00    -0.265 OA
BRANCH   7   9
ATOM      9  C   UNL d   1      48.692  35.160  52.128  0.00  0.00     0.069 A 
ATOM     10  C   UNL d   1      48.258  35.052  51.450  0.00  0.00     0.062 A 
ATOM     11 CL   UNL d   1      48.574  34.552  50.776  0.00  0.00    -0.082 Cl
ATOM     12  C   UNL d   1      47.520  35.402  51.375  0.00  0.00     0.012 A 
ATOM     13  C   UNL d   1      47.213  35.865  51.985  0.00  0.00     0.001 A 
ATOM     14  C   UNL d   1      47.657  35.976  52.679  0.00  0.00     0.000 A 
ATOM     15  C   UNL d   1      48.404  35.619  52.748  0.00  0.00     0.006 A 
ENDBRANCH   7   9
ENDBRANCH   1   6
BRANCH   3  16
ATOM     16  S   UNL d   1      52.442  32.838  53.230  0.00  0.00    -0.059 SA
BRANCH  16  17
ATOM     17  C   UNL d   1      52.357  32.208  52.843  0.00  0.00     0.037 C 
BRANCH  17  18
ATOM     18  C   UNL d   1      52.696  31.514  53.109  0.00  0.00     0.007 A 
ATOM     19  C   UNL d   1      53.391  31.521  53.544  0.00  0.00     0.001 A 
ATOM     20  C   UNL d   1      53.734  30.817  53.814  0.00  0.00     0.007 A 
ATOM     21  C   UNL d   1      53.365  30.097  53.639  0.00  0.00     0.035 A 
ATOM     22  C   UNL d   1      52.651  30.084  53.192  0.00  0.00     0.007 A 
ATOM     23 BR   UNL d   1      53.716  29.307  53.920  0.00  0.00    -0.049 Br
ATOM     24  C   UNL d   1      52.335  30.812  52.937  0.00  0.00     0.001 A 
ENDBRANCH  17  18
ENDBRANCH  16  17
ENDBRANCH   3  16
TORSDOF 5
ENDMDL
MODEL 4
REMARK VINA RESULT:      -7.3      2.735      6.049
REMARK  5 active torsions:
REMARK  status: ('A' for Active; 'I' for Inactive)
REMARK    1  A    between atoms: N_4  and  C_1 
REMARK       I    between atoms: C_3  and  N_4 
REMARK    2  A    between atoms: C_8  and  C_3 
REMARK    3  A    between atoms: S_9  and  C_5 
REMARK    4  A    between atoms: C_12  and  S_9 
REMARK    5  A    between atoms: C_15  and  C_12 
ROOT
ATOM      1  C   UNL d   1      49.681  34.673  52.593  0.00  0.00     0.219 A 
ATOM      2  S   UNL d   1      50.346  34.644  53.136  0.00  0.00    -0.019 SA
ATOM      3  C   UNL d   1      50.997  34.268  52.698  0.00  0.00     0.165 A 
ATOM      4  N   UNL d   1      49.929  34.374  51.994  0.00  0.00    -0.120 NA
ATOM      5  N   UNL d   1      50.751  34.125  52.069  0.00  0.00    -0.133 NA
ENDROOT
BRANCH   1   6
ATOM      6  N   UNL d   1      48.847  35.018  52.776  0.00  0.00    -0.181 NA
ATOM      7  C   UNL d   1      48.402  35.431  52.174  0.00  0.00     0.282 C 
ATOM      8  O   UNL d   1      48.690  35.497  51.547  0.00  0.00    -0.265 OA
BRANCH   7   9
ATOM      9  C   UNL d   1      47.662  35.780  52.210  0.00  0.00     0.069 A 
ATOM     10  C   UNL d   1      47.111  35.600  51.640  0.00  0.00     0.062 A 
ATOM     11 CL   UNL d   1      47.305  35.028  50.977  0.00  0.00    -0.082 Cl
ATOM     12  C   UNL d   1      46.367  35.943  51.665  0.00  0.00     0.012 A 
ATOM     13  C   UNL d   1      46.171  36.472  52.268  0.00  0.00     0.001 A 
ATOM     14  C   UNL d   1      46.734  36.656  52.851  0.00  0.00     0.000 A 
ATOM     15  C   UNL d   1      47.486  36.305  52.819  0.00  0.00     0.006 A 
ENDBRANCH   7   9
ENDBRANCH   1   6
BRANCH   3  16
ATOM     16  S   UNL d   1      51.853  34.056  52.907  0.00  0.00    -0.059 SA
BRANCH  16  17
ATOM     17  C   UNL d   1      51.915  33.846  53.619  0.00  0.00     0.037 C 
BRANCH  17  18
ATOM     18  C   UNL d   1      52.652  33.747  53.954  0.00  0.00     0.007 A 
ATOM     19  C   UNL d   1      53.079  33.056  53.846  0.00  0.00     0.001 A 
ATOM     20  C   UNL d   1      53.827  32.955  54.186  0.00  0.00     0.007 A 
ATOM     21  C   UNL d   1      54.146  33.567  54.644  0.00  0.00     0.035 A 
ATOM     22  C   UNL d   1      53.712  34.280  54.760  0.00  0.00     0.007 A 
ATOM     23 BR   UNL d   1      54.964  33.489  55.031  0.00  0.00    -0.049 Br
ATOM     24  C   UNL d   1      52.962  34.345  54.401  0.00  0.00     0.001 A 
ENDBRANCH  17  18
ENDBRANCH  16  17
ENDBRANCH   3  16
TORSDOF 5
ENDMDL
MODEL 5
REMARK VINA RESULT:      -5.7     10.544     11.342
REMARK  5 active torsions:
REMARK  status: ('A' for Active; 'I' for Inactive)
REMARK    1  A    between atoms: N_4  and  C_1 
REMARK       I    between atoms: C_3  and  N_4 
REMARK    2  A    between atoms: C_8  and  C_3 
REMARK    3  A    between atoms: S_9  and  C_5 
REMARK    4  A    between atoms: C_12  and  S_9 
REMARK    5  A    between atoms: C_15  and  C_12 
ROOT
ATOM      1  C   UNL d   1      44.913  27.662  57.126  0.00  0.00     0.219 A 
ATOM      2  S   UNL d   1      44.425  26.960  57.036  0.00  0.00    -0.019 SA
ATOM      3  C   UNL d   1      44.945  26.351  56.697  0.00  0.00     0.165 A 
ATOM      4  N   UNL d   1      45.555  27.464  56.885  0.00  0.00    -0.120 NA
ATOM      5  N   UNL d   1      45.565  26.644  56.620  0.00  0.00    -0.133 NA
ENDROOT
BRANCH   1   6
ATOM      6  N   UNL d   1      44.636  28.474  57.462  0.00  0.00    -0.181 NA
ATOM      7  C   UNL d   1      45.088  28.875  58.067  0.00  0.00     0.282 C 
ATOM      8  O   UNL d   1      45.667  28.569  58.294  0.00  0.00    -0.265 OA
BRANCH   7   9
ATOM      9  C   UNL d   1      44.950  29.590  58.443  0.00  0.00     0.069 A 
ATOM     10  C   UNL d   1      44.738  29.591  59.227  0.00  0.00     0.062 A 
ATOM     11 CL   UNL d   1      44.653  28.823  59.682  0.00  0.00    -0.082 Cl
ATOM     12  C   UNL d   1      44.598  30.300  59.613  0.00  0.00     0.012 A 
ATOM     13  C   UNL d   1      44.672  31.017  59.211  0.00  0.00     0.001 A 
ATOM     14  C   UNL d   1      44.889  31.016  58.408  0.00  0.00     0.000 A 
ATOM     15  C   UNL d   1      45.029  30.293  58.023  0.00  0.00     0.006 A 
ENDBRANCH   7   9
ENDBRANCH   1   6
BRANCH   3  16
ATOM     16  S   UNL d   1      44.822  25.486  56.454  0.00  0.00    -0.059 SA
BRANCH  16  17
ATOM     17  C   UNL d   1      44.714  25.422  55.720  0.00  0.00     0.037 C 
BRANCH  17  18
ATOM     18  C   UNL d   1      44.686  24.685  55.372  0.00  0.00     0.007 A 
ATOM     19  C   UNL d   1      44.981  24.023  55.755  0.00  0.00     0.001 A 
ATOM     20  C   UNL d   1      44.953  23.274  55.402  0.00  0.00     0.007 A 
ATOM     21  C   UNL d   1      44.620  23.198  54.648  0.00  0.00     0.035 A 
ATOM     22  C   UNL d   1      44.315  23.875  54.249  0.00  0.00     0.007 A 
ATOM     23 BR   UNL d   1      44.573  22.391  54.233  0.00  0.00    -0.049 Br
ATOM     24  C   UNL d   1      44.361  24.612  54.636  0.00  0.00     0.001 A 
ENDBRANCH  17  18
ENDBRANCH  16  17
ENDBRANCH   3  16
TORSDOF 5
ENDMDL
