MODEL 1
REMARK VINA RESULT:      -4.5      0.000      0.000
REMARK  5 active torsions:
REMARK  status: ('A' for Active; 'I' for Inactive)
REMARK    1  A    between atoms: C_2  and  C_1 
REMARK    2  A    between atoms: N_5  and  C_2 
REMARK    3  A    between atoms: C_12  and  C_4 
REMARK    4  A    between atoms: C_24  and  N_9 
REMARK    5  A    between atoms: C_19  and  C_24 
ROOT
ATOM      1  N   UNL d   1     -43.708  12.559  21.775  0.00  0.00    -0.191 NA
ATOM      2  C   UNL d   1     -43.010  12.871  21.466  0.00  0.00     0.103 C 
ATOM      3  C   UNL d   1     -42.312  13.179  21.158  0.00  0.00     0.097 C 
ENDROOT
BRANCH   3   4
ATOM      4  C   UNL d   1     -42.204  13.991  21.125  0.00  0.00     0.091 C 
BRANCH   4   5
ATOM      5  N   UNL d   1     -41.479  14.305  20.879  0.00  0.00    -0.299 N 
ATOM      6  C   UNL d   1     -40.777  13.967  21.146  0.00  0.00     0.100 A 
ATOM      7  C   UNL d   1     -40.053  14.277  20.901  0.00  0.00     0.100 A 
ATOM      8  N   UNL d   1     -40.032  14.925  20.391  0.00  0.00    -0.291 N 
ATOM      9  C   UNL d   1     -40.734  15.267  20.122  0.00  0.00     0.100 A 
ATOM     10  C   UNL d   1     -41.459  14.953  20.369  0.00  0.00     0.100 A 
BRANCH   8  11
ATOM     11  C   UNL d   1     -39.311  15.230  20.151  0.00  0.00     0.143 C 
ATOM     12  S   UNL d   1     -39.013  15.913  20.504  0.00  0.00    -0.057 SA
BRANCH  11  13
ATOM     13  C   UNL d   1     -38.879  14.856  19.556  0.00  0.00     0.126 A 
ATOM     14  O   UNL d   1     -39.050  14.863  18.750  0.00  0.00    -0.305 OA
ATOM     15  C   UNL d   1     -38.475  14.419  18.355  0.00  0.00     0.100 A 
ATOM     16  C   UNL d   1     -37.945  14.138  18.926  0.00  0.00     0.027 A 
ATOM     17  C   UNL d   1     -38.196  14.408  19.665  0.00  0.00     0.029 A 
BRANCH  15  18
ATOM     18  C   UNL d   1     -38.432  14.281  17.544  0.00  0.00     0.023 A 
ATOM     19  C   UNL d   1     -38.382  14.912  17.024  0.00  0.00     0.003 A 
ATOM     20  C   UNL d   1     -38.340  14.777  16.215  0.00  0.00     0.011 A 
ATOM     21  C   UNL d   1     -38.348  13.997  15.922  0.00  0.00     0.058 A 
ATOM     22  C   UNL d   1     -38.400  13.361  16.454  0.00  0.00     0.011 A 
ATOM     23 CL   UNL d   1     -38.306  13.856  15.112  0.00  0.00    -0.082 Cl
ATOM     24  C   UNL d   1     -38.442  13.507  17.266  0.00  0.00     0.003 A 
ENDBRANCH  15  18
ENDBRANCH  11  13
ENDBRANCH   8  11
ENDBRANCH   4   5
ENDBRANCH   3   4
TORSDOF 5
ENDMDL
MODEL 2
REMARK VINA RESULT:      -3.6      7.592      9.743
REMARK  5 active torsions:
REMARK  status: ('A' for Active; 'I' for Inactive)
REMARK    1  A    between atoms: C_2  and  C_1 
REMARK    2  A    between atoms: N_5  and  C_2 
REMARK    3  A    between atoms: C_12  and  C_4 
REMARK    4  A    between atoms: C_24  and  N_9 
REMARK    5  A    between atoms: C_19  and  C_24 
ROOT
ATOM      1  N   UNL d   1     -43.704   9.908  23.537  0.00  0.00    -0.191 NA
ATOM      2  C   UNL d   1     -44.279  10.486  23.410  0.00  0.00     0.103 C 
ATOM      3  C   UNL d   1     -44.855  11.060  23.285  0.00  0.00     0.097 C 
ENDROOT
BRANCH   3   4
ATOM      4  C   UNL d   1     -44.672  11.733  22.853  0.00  0.00     0.091 C 
BRANCH   4   5
ATOM      5  N   UNL d   1     -45.217  12.353  22.799  0.00  0.00    -0.299 N 
ATOM      6  C   UNL d   1     -45.404  12.667  22.061  0.00  0.00     0.100 A 
ATOM      7  C   UNL d   1     -45.947  13.286  22.004  0.00  0.00     0.100 A 
ATOM      8  N   UNL d   1     -46.301  13.589  22.685  0.00  0.00    -0.291 N 
ATOM      9  C   UNL d   1     -46.115  13.277  23.426  0.00  0.00     0.100 A 
ATOM     10  C   UNL d   1     -45.570  12.656  23.479  0.00  0.00     0.100 A 
BRANCH   8  11
ATOM     11  C   UNL d   1     -46.839  14.203  22.624  0.00  0.00     0.143 C 
ATOM     12  S   UNL d   1     -46.584  14.957  22.411  0.00  0.00    -0.057 SA
BRANCH  11  13
ATOM     13  C   UNL d   1     -47.640  14.070  22.774  0.00  0.00     0.126 A 
ATOM     14  O   UNL d   1     -47.996  13.342  22.920  0.00  0.00    -0.305 OA
ATOM     15  C   UNL d   1     -48.805  13.464  23.042  0.00  0.00     0.100 A 
ATOM     16  C   UNL d   1     -48.946  14.277  22.971  0.00  0.00     0.027 A 
ATOM     17  C   UNL d   1     -48.227  14.648  22.806  0.00  0.00     0.029 A 
BRANCH  15  18
ATOM     18  C   UNL d   1     -49.370  12.886  23.205  0.00  0.00     0.023 A 
ATOM     19  C   UNL d   1     -50.160  13.033  23.048  0.00  0.00     0.003 A 
ATOM     20  C   UNL d   1     -50.726  12.459  23.209  0.00  0.00     0.011 A 
ATOM     21  C   UNL d   1     -50.495  11.727  23.532  0.00  0.00     0.058 A 
ATOM     22  C   UNL d   1     -49.692  11.584  23.689  0.00  0.00     0.011 A 
ATOM     23 CL   UNL d   1     -51.057  11.148  23.696  0.00  0.00    -0.082 Cl
ATOM     24  C   UNL d   1     -49.131  12.167  23.524  0.00  0.00     0.003 A 
ENDBRANCH  15  18
ENDBRANCH  11  13
ENDBRANCH   8  11
ENDBRANCH   4   5
ENDBRANCH   3   4
TORSDOF 5
ENDMDL
MODEL 3
REMARK VINA RESULT:      -3.4      6.655     10.105
REMARK  5 active torsions:
REMARK  status: ('A' for Active; 'I' for Inactive)
REMARK    1  A    between atoms: C_2  and  C_1 
REMARK    2  A    between atoms: N_5  and  C_2 
REMARK    3  A    between atoms: C_12  and  C_4 
REMARK    4  A    between atoms: C_24  and  N_9 
REMARK    5  A    between atoms: C_19  and  C_24 
ROOT
ATOM      1  N   UNL d   1     -43.230  12.526  21.114  0.00  0.00    -0.191 NA
ATOM      2  C   UNL d   1     -43.803  12.858  21.606  0.00  0.00     0.103 C 
ATOM      3  C   UNL d   1     -44.372  13.190  22.100  0.00  0.00     0.097 C 
ENDROOT
BRANCH   3   4
ATOM      4  C   UNL d   1     -45.139  13.293  21.826  0.00  0.00     0.091 C 
BRANCH   4   5
ATOM      5  N   UNL d   1     -45.768  12.904  22.196  0.00  0.00    -0.299 N 
ATOM      6  C   UNL d   1     -45.896  13.013  23.003  0.00  0.00     0.100 A 
ATOM      7  C   UNL d   1     -46.522  12.626  23.375  0.00  0.00     0.100 A 
ATOM      8  N   UNL d   1     -47.020  12.132  22.940  0.00  0.00    -0.291 N 
ATOM      9  C   UNL d   1     -46.895  12.021  22.131  0.00  0.00     0.100 A 
ATOM     10  C   UNL d   1     -46.265  12.411  21.761  0.00  0.00     0.100 A 
BRANCH   8  11
ATOM     11  C   UNL d   1     -47.640  11.751  23.313  0.00  0.00     0.143 C 
ATOM     12  S   UNL d   1     -47.543  10.985  23.600  0.00  0.00    -0.057 SA
BRANCH  11  13
ATOM     13  C   UNL d   1     -48.368  12.131  23.403  0.00  0.00     0.126 A 
ATOM     14  O   UNL d   1     -48.535  12.915  23.219  0.00  0.00    -0.305 OA
ATOM     15  C   UNL d   1     -49.330  13.064  23.397  0.00  0.00     0.100 A 
ATOM     16  C   UNL d   1     -49.652  12.361  23.692  0.00  0.00     0.027 A 
ATOM     17  C   UNL d   1     -49.058  11.787  23.695  0.00  0.00     0.029 A 
BRANCH  15  18
ATOM     18  C   UNL d   1     -49.730  13.777  23.298  0.00  0.00     0.023 A 
ATOM     19  C   UNL d   1     -49.329  14.486  23.387  0.00  0.00     0.003 A 
ATOM     20  C   UNL d   1     -49.726  15.199  23.290  0.00  0.00     0.011 A 
ATOM     21  C   UNL d   1     -50.537  15.201  23.101  0.00  0.00     0.058 A 
ATOM     22  C   UNL d   1     -50.938  14.479  23.012  0.00  0.00     0.011 A 
ATOM     23 CL   UNL d   1     -50.940  15.913  23.002  0.00  0.00    -0.082 Cl
ATOM     24  C   UNL d   1     -50.531  13.768  23.112  0.00  0.00     0.003 A 
ENDBRANCH  15  18
ENDBRANCH  11  13
ENDBRANCH   8  11
ENDBRANCH   4   5
ENDBRANCH   3   4
TORSDOF 5
ENDMDL
MODEL 4
REMARK VINA RESULT:      -3.2      2.768      4.836
REMARK  5 active torsions:
REMARK  status: ('A' for Active; 'I' for Inactive)
REMARK    1  A    between atoms: C_2  and  C_1 
REMARK    2  A    between atoms: N_5  and  C_2 
REMARK    3  A    between atoms: C_12  and  C_4 
REMARK    4  A    between atoms: C_24  and  N_9 
REMARK    5  A    between atoms: C_19  and  C_24 
ROOT
ATOM      1  N   UNL d   1     -42.798  15.565  15.453  0.00  0.00    -0.191 NA
ATOM      2  C   UNL d   1     -42.223  15.742  16.018  0.00  0.00     0.103 C 
ATOM      3  C   UNL d   1     -41.651  15.922  16.582  0.00  0.00     0.097 C 
ENDROOT
BRANCH   3   4
ATOM      4  C   UNL d   1     -40.967  15.472  16.627  0.00  0.00     0.091 C 
BRANCH   4   5
ATOM      5  N   UNL d   1     -40.644  15.278  17.363  0.00  0.00    -0.299 N 
ATOM      6  C   UNL d   1     -40.365  14.515  17.498  0.00  0.00     0.100 A 
ATOM      7  C   UNL d   1     -40.042  14.319  18.231  0.00  0.00     0.100 A 
ATOM      8  N   UNL d   1     -39.999  14.886  18.828  0.00  0.00    -0.291 N 
ATOM      9  C   UNL d   1     -40.278  15.653  18.697  0.00  0.00     0.100 A 
ATOM     10  C   UNL d   1     -40.601  15.846  17.960  0.00  0.00     0.100 A 
BRANCH   8  11
ATOM     11  C   UNL d   1     -39.678  14.688  19.555  0.00  0.00     0.143 C 
ATOM     12  S   UNL d   1     -38.861  14.690  19.660  0.00  0.00    -0.057 SA
BRANCH  11  13
ATOM     13  C   UNL d   1     -40.171  14.484  20.186  0.00  0.00     0.126 A 
ATOM     14  O   UNL d   1     -40.910  14.126  20.132  0.00  0.00    -0.305 OA
ATOM     15  C   UNL d   1     -41.209  14.023  20.897  0.00  0.00     0.100 A 
ATOM     16  C   UNL d   1     -40.645  14.322  21.424  0.00  0.00     0.027 A 
ATOM     17  C   UNL d   1     -40.006  14.605  20.984  0.00  0.00     0.029 A 
BRANCH  15  18
ATOM     18  C   UNL d   1     -41.933  13.686  21.100  0.00  0.00     0.023 A 
ATOM     19  C   UNL d   1     -41.995  12.874  21.184  0.00  0.00     0.003 A 
ATOM     20  C   UNL d   1     -42.716  12.535  21.387  0.00  0.00     0.011 A 
ATOM     21  C   UNL d   1     -43.383  13.018  21.507  0.00  0.00     0.058 A 
ATOM     22  C   UNL d   1     -43.313  13.841  21.421  0.00  0.00     0.011 A 
ATOM     23 CL   UNL d   1     -44.108  12.684  21.711  0.00  0.00    -0.082 Cl
ATOM     24  C   UNL d   1     -42.585  14.173  21.217  0.00  0.00     0.003 A 
ENDBRANCH  15  18
ENDBRANCH  11  13
ENDBRANCH   8  11
ENDBRANCH   4   5
ENDBRANCH   3   4
TORSDOF 5
ENDMDL
MODEL 5
REMARK VINA RESULT:      -2.8      5.059      7.370
REMARK  5 active torsions:
REMARK  status: ('A' for Active; 'I' for Inactive)
REMARK    1  A    between atoms: C_2  and  C_1 
REMARK    2  A    between atoms: N_5  and  C_2 
REMARK    3  A    between atoms: C_12  and  C_4 
REMARK    4  A    between atoms: C_24  and  N_9 
REMARK    5  A    between atoms: C_19  and  C_24 
ROOT
ATOM      1  N   UNL d   1     -51.063  15.536  22.824  0.00  0.00    -0.191 NA
ATOM      2  C   UNL d   1     -50.269  15.334  22.921  0.00  0.00     0.103 C 
ATOM      3  C   UNL d   1     -49.477  15.134  23.021  0.00  0.00     0.097 C 
ENDROOT
BRANCH   3   4
ATOM      4  C   UNL d   1     -49.053  14.820  22.393  0.00  0.00     0.091 C 
BRANCH   4   5
ATOM      5  N   UNL d   1     -48.389  14.347  22.534  0.00  0.00    -0.299 N 
ATOM      6  C   UNL d   1     -47.679  14.699  22.759  0.00  0.00     0.100 A 
ATOM      7  C   UNL d   1     -47.015  14.230  22.901  0.00  0.00     0.100 A 
ATOM      8  N   UNL d   1     -47.063  13.411  22.817  0.00  0.00    -0.291 N 
ATOM      9  C   UNL d   1     -47.773  13.055  22.592  0.00  0.00     0.100 A 
ATOM     10  C   UNL d   1     -48.437  13.529  22.451  0.00  0.00     0.100 A 
BRANCH   8  11
ATOM     11  C   UNL d   1     -46.402  12.949  22.959  0.00  0.00     0.143 C 
ATOM     12  S   UNL d   1     -46.322  12.550  23.675  0.00  0.00    -0.057 SA
BRANCH  11  13
ATOM     13  C   UNL d   1     -45.812  12.881  22.385  0.00  0.00     0.126 A 
ATOM     14  O   UNL d   1     -45.034  13.141  22.452  0.00  0.00    -0.305 OA
ATOM     15  C   UNL d   1     -44.635  12.961  21.750  0.00  0.00     0.100 A 
ATOM     16  C   UNL d   1     -45.176  12.587  21.248  0.00  0.00     0.027 A 
ATOM     17  C   UNL d   1     -45.900  12.538  21.641  0.00  0.00     0.029 A 
BRANCH  15  18
ATOM     18  C   UNL d   1     -43.845  13.123  21.578  0.00  0.00     0.023 A 
ATOM     19  C   UNL d   1     -43.615  13.889  21.404  0.00  0.00     0.003 A 
ATOM     20  C   UNL d   1     -42.828  14.054  21.232  0.00  0.00     0.011 A 
ATOM     21  C   UNL d   1     -42.265  13.441  21.236  0.00  0.00     0.058 A 
ATOM     22  C   UNL d   1     -42.505  12.666  21.414  0.00  0.00     0.011 A 
ATOM     23 CL   UNL d   1     -41.474  13.600  21.064  0.00  0.00    -0.082 Cl
ATOM     24  C   UNL d   1     -43.297  12.510  21.585  0.00  0.00     0.003 A 
ENDBRANCH  15  18
ENDBRANCH  11  13
ENDBRANCH   8  11
ENDBRANCH   4   5
ENDBRANCH   3   4
TORSDOF 5
ENDMDL
MODEL 6
REMARK VINA RESULT:      -2.1      7.279      8.637
REMARK  5 active torsions:
REMARK  status: ('A' for Active; 'I' for Inactive)
REMARK    1  A    between atoms: C_2  and  C_1 
REMARK    2  A    between atoms: N_5  and  C_2 
REMARK    3  A    between atoms: C_12  and  C_4 
REMARK    4  A    between atoms: C_24  and  N_9 
REMARK    5  A    between atoms: C_19  and  C_24 
ROOT
ATOM      1  N   UNL d   1     -50.899  12.519  20.873  0.00  0.00    -0.191 NA
ATOM      2  C   UNL d   1     -50.653  12.812  21.604  0.00  0.00     0.103 C 
ATOM      3  C   UNL d   1     -50.409  13.101  22.335  0.00  0.00     0.097 C 
ENDROOT
BRANCH   3   4
ATOM      4  C   UNL d   1     -50.028  13.827  22.380  0.00  0.00     0.091 C 
BRANCH   4   5
ATOM      5  N   UNL d   1     -49.223  13.863  22.567  0.00  0.00    -0.299 N 
ATOM      6  C   UNL d   1     -48.915  13.354  23.137  0.00  0.00     0.100 A 
ATOM      7  C   UNL d   1     -48.113  13.388  23.326  0.00  0.00     0.100 A 
ATOM      8  N   UNL d   1     -47.621  13.930  22.946  0.00  0.00    -0.291 N 
ATOM      9  C   UNL d   1     -47.927  14.442  22.374  0.00  0.00     0.100 A 
ATOM     10  C   UNL d   1     -48.732  14.405  22.187  0.00  0.00     0.100 A 
BRANCH   8  11
ATOM     11  C   UNL d   1     -46.826  13.960  23.137  0.00  0.00     0.143 C 
ATOM     12  S   UNL d   1     -46.536  14.571  23.608  0.00  0.00    -0.057 SA
BRANCH  11  13
ATOM     13  C   UNL d   1     -46.309  13.379  22.859  0.00  0.00     0.126 A 
ATOM     14  O   UNL d   1     -46.000  12.752  23.295  0.00  0.00    -0.305 OA
ATOM     15  C   UNL d   1     -45.508  12.306  22.801  0.00  0.00     0.100 A 
ATOM     16  C   UNL d   1     -45.517  12.665  22.054  0.00  0.00     0.027 A 
ATOM     17  C   UNL d   1     -46.011  13.326  22.093  0.00  0.00     0.029 A 
BRANCH  15  18
ATOM     18  C   UNL d   1     -45.086  11.630  23.009  0.00  0.00     0.023 A 
ATOM     19  C   UNL d   1     -44.319  11.529  22.740  0.00  0.00     0.003 A 
ATOM     20  C   UNL d   1     -43.895  10.855  22.946  0.00  0.00     0.011 A 
ATOM     21  C   UNL d   1     -44.247  10.275  23.428  0.00  0.00     0.058 A 
ATOM     22  C   UNL d   1     -45.025  10.383  23.698  0.00  0.00     0.011 A 
ATOM     23 CL   UNL d   1     -43.828   9.597  23.638  0.00  0.00    -0.082 Cl
ATOM     24  C   UNL d   1     -45.443  11.063  23.486  0.00  0.00     0.003 A 
ENDBRANCH  15  18
ENDBRANCH  11  13
ENDBRANCH   8  11
ENDBRANCH   4   5
ENDBRANCH   3   4
TORSDOF 5
ENDMDL
MODEL 7
REMARK VINA RESULT:      -1.8      2.458      5.001
REMARK  5 active torsions:
REMARK  status: ('A' for Active; 'I' for Inactive)
REMARK    1  A    between atoms: C_2  and  C_1 
REMARK    2  A    between atoms: N_5  and  C_2 
REMARK    3  A    between atoms: C_12  and  C_4 
REMARK    4  A    between atoms: C_24  and  N_9 
REMARK    5  A    between atoms: C_19  and  C_24 
ROOT
ATOM      1  N   UNL d   1     -37.950  11.212  17.124  0.00  0.00    -0.191 NA
ATOM      2  C   UNL d   1     -37.947  11.969  17.451  0.00  0.00     0.103 C 
ATOM      3  C   UNL d   1     -37.941  12.724  17.780  0.00  0.00     0.097 C 
ENDROOT
BRANCH   3   4
ATOM      4  C   UNL d   1     -38.443  13.301  17.483  0.00  0.00     0.091 C 
BRANCH   4   5
ATOM      5  N   UNL d   1     -38.907  13.752  17.998  0.00  0.00    -0.299 N 
ATOM      6  C   UNL d   1     -38.572  14.059  18.685  0.00  0.00     0.100 A 
ATOM      7  C   UNL d   1     -39.033  14.509  19.201  0.00  0.00     0.100 A 
ATOM      8  N   UNL d   1     -39.827  14.652  19.027  0.00  0.00    -0.291 N 
ATOM      9  C   UNL d   1     -40.166  14.346  18.339  0.00  0.00     0.100 A 
ATOM     10  C   UNL d   1     -39.700  13.895  17.824  0.00  0.00     0.100 A 
BRANCH   8  11
ATOM     11  C   UNL d   1     -40.280  15.100  19.541  0.00  0.00     0.143 C 
ATOM     12  S   UNL d   1     -40.359  15.911  19.425  0.00  0.00    -0.057 SA
BRANCH  11  13
ATOM     13  C   UNL d   1     -40.662  14.741  20.180  0.00  0.00     0.126 A 
ATOM     14  O   UNL d   1     -41.369  14.320  20.152  0.00  0.00    -0.305 OA
ATOM     15  C   UNL d   1     -41.549  14.057  20.915  0.00  0.00     0.100 A 
ATOM     16  C   UNL d   1     -40.945  14.320  21.416  0.00  0.00     0.027 A 
ATOM     17  C   UNL d   1     -40.400  14.741  20.961  0.00  0.00     0.029 A 
BRANCH  15  18
ATOM     18  C   UNL d   1     -42.207  13.615  21.140  0.00  0.00     0.023 A 
ATOM     19  C   UNL d   1     -42.957  13.937  21.074  0.00  0.00     0.003 A 
ATOM     20  C   UNL d   1     -43.616  13.499  21.298  0.00  0.00     0.011 A 
ATOM     21  C   UNL d   1     -43.520  12.725  21.591  0.00  0.00     0.058 A 
ATOM     22  C   UNL d   1     -42.756  12.404  21.656  0.00  0.00     0.011 A 
ATOM     23 CL   UNL d   1     -44.176  12.281  21.817  0.00  0.00    -0.082 Cl
ATOM     24  C   UNL d   1     -42.101  12.852  21.429  0.00  0.00     0.003 A 
ENDBRANCH  15  18
ENDBRANCH  11  13
ENDBRANCH   8  11
ENDBRANCH   4   5
ENDBRANCH   3   4
TORSDOF 5
ENDMDL
MODEL 8
REMARK VINA RESULT:      -1.7      6.413      8.806
REMARK  5 active torsions:
REMARK  status: ('A' for Active; 'I' for Inactive)
REMARK    1  A    between atoms: C_2  and  C_1 
REMARK    2  A    between atoms: N_5  and  C_2 
REMARK    3  A    between atoms: C_12  and  C_4 
REMARK    4  A    between atoms: C_24  and  N_9 
REMARK    5  A    between atoms: C_19  and  C_24 
ROOT
ATOM      1  N   UNL d   1     -51.065  15.546  22.302  0.00  0.00    -0.191 NA
ATOM      2  C   UNL d   1     -51.019  14.821  22.694  0.00  0.00     0.103 C 
ATOM      3  C   UNL d   1     -50.974  14.100  23.088  0.00  0.00     0.097 C 
ENDROOT
BRANCH   3   4
ATOM      4  C   UNL d   1     -50.731  13.429  22.683  0.00  0.00     0.091 C 
BRANCH   4   5
ATOM      5  N   UNL d   1     -49.990  13.095  22.839  0.00  0.00    -0.299 N 
ATOM      6  C   UNL d   1     -49.584  13.307  23.524  0.00  0.00     0.100 A 
ATOM      7  C   UNL d   1     -48.845  12.976  23.682  0.00  0.00     0.100 A 
ATOM      8  N   UNL d   1     -48.514  12.434  23.156  0.00  0.00    -0.291 N 
ATOM      9  C   UNL d   1     -48.918  12.220  22.468  0.00  0.00     0.100 A 
ATOM     10  C   UNL d   1     -49.660  12.554  22.313  0.00  0.00     0.100 A 
BRANCH   8  11
ATOM     11  C   UNL d   1     -47.781  12.108  23.316  0.00  0.00     0.143 C 
ATOM     12  S   UNL d   1     -47.727  11.369  23.675  0.00  0.00    -0.057 SA
BRANCH  11  13
ATOM     13  C   UNL d   1     -47.091  12.518  23.120  0.00  0.00     0.126 A 
ATOM     14  O   UNL d   1     -46.409  12.196  22.790  0.00  0.00    -0.305 OA
ATOM     15  C   UNL d   1     -45.857  12.803  22.685  0.00  0.00     0.100 A 
ATOM     16  C   UNL d   1     -46.205  13.504  22.954  0.00  0.00     0.027 A 
ATOM     17  C   UNL d   1     -46.966  13.326  23.221  0.00  0.00     0.029 A 
BRANCH  15  18
ATOM     18  C   UNL d   1     -45.098  12.728  22.371  0.00  0.00     0.023 A 
ATOM     19  C   UNL d   1     -44.624  12.099  22.597  0.00  0.00     0.003 A 
ATOM     20  C   UNL d   1     -43.867  12.021  22.285  0.00  0.00     0.011 A 
ATOM     21  C   UNL d   1     -43.583  12.582  21.739  0.00  0.00     0.058 A 
ATOM     22  C   UNL d   1     -44.069  13.217  21.513  0.00  0.00     0.011 A 
ATOM     23 CL   UNL d   1     -42.825  12.509  21.423  0.00  0.00    -0.082 Cl
ATOM     24  C   UNL d   1     -44.827  13.287  21.832  0.00  0.00     0.003 A 
ENDBRANCH  15  18
ENDBRANCH  11  13
ENDBRANCH   8  11
ENDBRANCH   4   5
ENDBRANCH   3   4
TORSDOF 5
ENDMDL
