MODEL 1
REMARK VINA RESULT:      25.7      0.000      0.000
REMARK  4 active torsions:
REMARK  status: ('A' for Active; 'I' for Inactive)
REMARK    1  A    between atoms: N_5  and  C_1 
REMARK    2  A    between atoms: N_8  and  C_3 
REMARK    3  A    between atoms: C_13  and  N_8 
REMARK    4  A    between atoms: C_12  and  C_13 
ROOT
ATOM      1  C   UNL d   1      46.118 -18.151  42.280  0.00  0.00     0.200 A 
ATOM      2  C   UNL d   1      46.088 -18.935  42.026  0.00  0.00     0.288 A 
ATOM      3  C   UNL d   1      46.265 -17.970  43.080  0.00  0.00     0.109 A 
ATOM      4  N   UNL d   1      46.205 -19.547  42.574  0.00  0.00    -0.270 N 
ATOM      5  C   UNL d   1      46.382 -18.589  43.621  0.00  0.00     0.036 A 
ATOM      6  C   UNL d   1      46.352 -19.375  43.368  0.00  0.00     0.069 A 
ATOM      7  O   UNL d   1      45.941 -19.106  41.233  0.00  0.00    -0.265 OA
ATOM      8  C   UNL d   1      46.175 -20.330  42.321  0.00  0.00     0.102 C 
ATOM      9  C   UNL d   1      46.528 -18.417  44.415  0.00  0.00     0.003 A 
ATOM     10  C   UNL d   1      46.468 -19.986  43.908  0.00  0.00     0.018 A 
ATOM     11  C   UNL d   1      46.644 -19.032  44.955  0.00  0.00     0.000 A 
ATOM     12  C   UNL d   1      46.614 -19.815  44.702  0.00  0.00     0.002 A 
ENDROOT
BRANCH   3  13
ATOM     13  N   UNL d   1      46.295 -17.188  43.334  0.00  0.00    -0.242 NA
BRANCH  13  14
ATOM     14  C   UNL d   1      45.760 -16.916  43.900  0.00  0.00     0.100 C 
BRANCH  14  15
ATOM     15  C   UNL d   1      45.759 -16.121  44.117  0.00  0.00     0.030 A 
ATOM     16  C   UNL d   1      45.187 -15.846  44.644  0.00  0.00     0.059 A 
ATOM     17 CL   UNL d   1      44.620 -16.357  44.954  0.00  0.00    -0.082 Cl
ATOM     18  C   UNL d   1      45.184 -15.052  44.861  0.00  0.00     0.011 A 
ATOM     19  C   UNL d   1      45.754 -14.533  44.551  0.00  0.00     0.001 A 
ATOM     20  C   UNL d   1      46.322 -14.816  44.024  0.00  0.00     0.000 A 
ATOM     21  C   UNL d   1      46.324 -15.610  43.807  0.00  0.00     0.002 A 
ENDBRANCH  14  15
ENDBRANCH  13  14
ENDBRANCH   3  13
BRANCH   1  22
ATOM     22  N   UNL d   1      46.001 -17.533  41.738  0.00  0.00    -0.107 N 
ATOM     23  O   UNL d   1      45.245 -17.226  41.623  0.00  0.00    -0.531 OA
ATOM     24  O   UNL d   1      46.641 -17.225  41.314  0.00  0.00    -0.531 OA
ENDBRANCH   1  22
TORSDOF 4
ENDMDL
