MODEL 1
REMARK VINA RESULT:      47.6      0.000      0.000
REMARK  7 active torsions:
REMARK  status: ('A' for Active; 'I' for Inactive)
REMARK    1  A    between atoms: C_2  and  C_1 
REMARK    2  A    between atoms: O_13  and  C_11 
REMARK    3  A    between atoms: C_18  and  O_13 
REMARK    4  A    between atoms: C_15  and  C_18 
REMARK       I    between atoms: N_21  and  C_15 
REMARK    5  A    between atoms: C_23  and  C_16 
REMARK    6  A    between atoms: C_26  and  N_21 
REMARK    7  A    between atoms: C_27  and  C_26 
ROOT
ATOM      1  C   UNL d   1      13.708  15.507  -4.698  0.00  0.00     0.087 A 
ATOM      2  C   UNL d   1      13.486  14.783  -5.025  0.00  0.00     0.201 A 
ATOM      3  C   UNL d   1      13.432  14.111  -4.533  0.00  0.00     0.062 A 
ATOM      4  C   UNL d   1      13.876  15.569  -3.896  0.00  0.00     0.128 A 
ATOM      5  C   UNL d   1      13.599  14.172  -3.732  0.00  0.00     0.105 A 
ATOM      6  O   UNL d   1      13.826  14.908  -3.395  0.00  0.00    -0.305 OA
ATOM      7  C   UNL d   1      13.209  13.388  -4.861  0.00  0.00     0.007 A 
ATOM      8  C   UNL d   1      13.325  12.788  -3.569  0.00  0.00     0.102 A 
ATOM      9  C   UNL d   1      13.550  13.513  -3.230  0.00  0.00     0.050 A 
ATOM     10  C   UNL d   1      13.157  12.726  -4.370  0.00  0.00     0.023 A 
ATOM     11  O   UNL d   1      13.318  14.722  -5.826  0.00  0.00    -0.286 OA
ENDROOT
BRANCH   8  12
ATOM     12  O   UNL d   1      13.274  12.121  -3.066  0.00  0.00    -0.302 OA
BRANCH  12  13
ATOM     13  C   UNL d   1      13.898  11.932  -2.580  0.00  0.00     0.158 C 
ATOM     14  C   UNL d   1      14.650  11.780  -2.889  0.00  0.00     0.032 C 
BRANCH  13  15
ATOM     15  C   UNL d   1      13.785  11.889  -1.749  0.00  0.00     0.302 C 
ATOM     16  O   UNL d   1      13.024  11.915  -1.444  0.00  0.00    -0.263 OA
ATOM     17  N   UNL d   1      14.438  11.824  -1.273  0.00  0.00    -0.201 NA
BRANCH  17  18
ATOM     18  C   UNL d   1      14.384  11.782  -0.507  0.00  0.00     0.148 C 
BRANCH  18  19
ATOM     19  C   UNL d   1      14.419  12.586  -0.014  0.00  0.00     0.255 C 
ATOM     20  O   UNL d   1      15.036  13.124  -0.093  0.00  0.00    -0.281 OA
ENDBRANCH  18  19
ENDBRANCH  17  18
ENDBRANCH  13  15
ENDBRANCH  12  13
ENDBRANCH   8  12
BRANCH  10  21
ATOM     21  C   UNL d   1      12.958  12.056  -4.639  0.00  0.00     0.002 C 
ATOM     22  C   UNL d   1      13.243  11.801  -5.290  0.00  0.00     0.000 C 
ENDBRANCH  10  21
BRANCH   1  23
ATOM     23  C   UNL d   1      13.761  16.174  -5.189  0.00  0.00     0.116 A 
ATOM     24  N   UNL d   1      13.208  16.684  -5.498  0.00  0.00    -0.238 NA
ATOM     25  C   UNL d   1      13.596  17.251  -5.955  0.00  0.00     0.088 A 
ATOM     26  C   UNL d   1      13.261  17.893  -6.385  0.00  0.00     0.021 C 
ATOM     27  C   UNL d   1      14.366  17.100  -5.932  0.00  0.00     0.056 A 
ATOM     28  S   UNL d   1      14.503  16.421  -5.453  0.00  0.00    -0.066 SA
ENDBRANCH   1  23
TORSDOF 7
ENDMDL
MODEL 2
REMARK VINA RESULT:      50.6      2.365      4.139
REMARK  7 active torsions:
REMARK  status: ('A' for Active; 'I' for Inactive)
REMARK    1  A    between atoms: C_2  and  C_1 
REMARK    2  A    between atoms: O_13  and  C_11 
REMARK    3  A    between atoms: C_18  and  O_13 
REMARK    4  A    between atoms: C_15  and  C_18 
REMARK       I    between atoms: N_21  and  C_15 
REMARK    5  A    between atoms: C_23  and  C_16 
REMARK    6  A    between atoms: C_26  and  N_21 
REMARK    7  A    between atoms: C_27  and  C_26 
ROOT
ATOM      1  C   UNL d   1      13.740  13.048  -3.439  0.00  0.00     0.087 A 
ATOM      2  C   UNL d   1      13.970  12.608  -2.779  0.00  0.00     0.201 A 
ATOM      3  C   UNL d   1      14.207  13.006  -2.084  0.00  0.00     0.062 A 
ATOM      4  C   UNL d   1      13.743  13.868  -3.414  0.00  0.00     0.128 A 
ATOM      5  C   UNL d   1      14.210  13.827  -2.060  0.00  0.00     0.105 A 
ATOM      6  O   UNL d   1      13.977  14.278  -2.730  0.00  0.00    -0.305 OA
ATOM      7  C   UNL d   1      14.436  12.567  -1.426  0.00  0.00     0.007 A 
ATOM      8  C   UNL d   1      14.673  13.786  -0.717  0.00  0.00     0.102 A 
ATOM      9  C   UNL d   1      14.443  14.236  -1.377  0.00  0.00     0.050 A 
ATOM     10  C   UNL d   1      14.670  12.965  -0.741  0.00  0.00     0.023 A 
ATOM     11  O   UNL d   1      13.967  11.788  -2.803  0.00  0.00    -0.286 OA
ENDROOT
BRANCH   8  12
ATOM     12  O   UNL d   1      14.908  14.195  -0.027  0.00  0.00    -0.302 OA
BRANCH  12  13
ATOM     13  C   UNL d   1      15.465  14.785  -0.076  0.00  0.00     0.158 C 
ATOM     14  C   UNL d   1      16.273  14.617  -0.014  0.00  0.00     0.032 C 
BRANCH  13  15
ATOM     15  C   UNL d   1      15.225  15.582  -0.193  0.00  0.00     0.302 C 
ATOM     16  O   UNL d   1      14.455  15.800  -0.014  0.00  0.00    -0.263 OA
ATOM     17  N   UNL d   1      15.768  16.111  -0.480  0.00  0.00    -0.201 NA
BRANCH  17  18
ATOM     18  C   UNL d   1      15.593  16.849  -0.603  0.00  0.00     0.148 C 
BRANCH  18  19
ATOM     19  C   UNL d   1      15.601  17.166  -1.491  0.00  0.00     0.255 C 
ATOM     20  O   UNL d   1      14.911  17.325  -1.908  0.00  0.00    -0.281 OA
ENDBRANCH  18  19
ENDBRANCH  17  18
ENDBRANCH  13  15
ENDBRANCH  12  13
ENDBRANCH   8  12
BRANCH  10  21
ATOM     21  C   UNL d   1      14.883  12.593  -0.127  0.00  0.00     0.002 C 
ATOM     22  C   UNL d   1      14.667  11.878  -0.015  0.00  0.00     0.000 C 
ENDBRANCH  10  21
BRANCH   1  23
ATOM     23  C   UNL d   1      13.506  12.650  -4.128  0.00  0.00     0.116 A 
ATOM     24  N   UNL d   1      13.747  12.689  -4.904  0.00  0.00    -0.238 NA
ATOM     25  C   UNL d   1      13.304  12.151  -5.346  0.00  0.00     0.088 A 
ATOM     26  C   UNL d   1      13.351  11.991  -6.172  0.00  0.00     0.021 C 
ATOM     27  C   UNL d   1      12.803  11.789  -4.863  0.00  0.00     0.056 A 
ATOM     28  S   UNL d   1      12.907  12.084  -4.081  0.00  0.00    -0.066 SA
ENDBRANCH   1  23
TORSDOF 7
ENDMDL
