MODEL 1
REMARK VINA RESULT:      55.9      0.000      0.000
REMARK  2 active torsions:
REMARK  status: ('A' for Active; 'I' for Inactive)
REMARK    1  A    between atoms: N_9  and  C_3 
REMARK    2  A    between atoms: C_11  and  C_4 
ROOT
ATOM      1  N   UNL d   1      59.571  49.657  50.964  0.00  0.00    -0.196 N 
ATOM      2  C   UNL d   1      60.382  49.657  51.083  0.00  0.00     0.167 A 
ATOM      3  C   UNL d   1      59.263  49.673  50.198  0.00  0.00     0.153 A 
ATOM      4  C   UNL d   1      60.521  49.639  51.891  0.00  0.00     0.057 A 
ATOM      5  N   UNL d   1      59.205  49.640  51.697  0.00  0.00    -0.161 NA
ATOM      6  N   UNL d   1      60.897  49.673  50.439  0.00  0.00    -0.227 NA
ATOM      7  C   UNL d   1      59.779  49.690  49.550  0.00  0.00     0.057 A 
ATOM      8  C   UNL d   1      59.799  49.628  52.269  0.00  0.00     0.124 A 
ATOM      9  C   UNL d   1      60.590  49.689  49.670  0.00  0.00     0.086 A 
ATOM     10  C   UNL d   1      61.103  49.706  49.012  0.00  0.00     0.021 C 
ENDROOT
BRANCH   3  11
ATOM     11  N   UNL d   1      58.452  49.674  50.078  0.00  0.00    -0.285 N 
ATOM     12  C   UNL d   1      57.935  49.645  50.725  0.00  0.00     0.108 A 
ATOM     13  C   UNL d   1      57.120  49.645  50.605  0.00  0.00     0.142 A 
ATOM     14  O   UNL d   1      56.816  49.674  49.837  0.00  0.00    -0.300 OA
ATOM     15  C   UNL d   1      57.328  49.704  49.193  0.00  0.00     0.142 A 
ATOM     16  C   UNL d   1      58.143  49.703  49.313  0.00  0.00     0.108 A 
ENDBRANCH   3  11
BRANCH   4  17
ATOM     17  C   UNL d   1      61.216  49.631  52.333  0.00  0.00     0.004 A 
ATOM     18  C   UNL d   1      61.189  49.569  53.164  0.00  0.00     0.000 A 
ATOM     19  C   UNL d   1      61.886  49.562  53.597  0.00  0.00     0.000 A 
ATOM     20  C   UNL d   1      62.621  49.616  53.214  0.00  0.00     0.000 A 
ATOM     21  C   UNL d   1      62.647  49.677  52.391  0.00  0.00     0.000 A 
ATOM     22  C   UNL d   1      61.947  49.685  51.949  0.00  0.00     0.000 A 
ENDBRANCH   4  17
TORSDOF 2
ENDMDL
