MODEL 1
REMARK VINA RESULT:      -3.1      0.000      0.000
REMARK  5 active torsions:
REMARK  status: ('A' for Active; 'I' for Inactive)
REMARK    1  A    between atoms: S_9  and  C_3 
REMARK    2  A    between atoms: C_14  and  S_9 
REMARK    3  A    between atoms: C_10  and  C_11 
REMARK    4  A    between atoms: C_12  and  C_10 
REMARK    5  A    between atoms: C_11  and  C_14 
ROOT
ATOM      1  S   UNL d   1      32.854  18.801 -23.249  0.00  0.00    -0.046 SA
ENDROOT
BRANCH   1   2
ATOM      2  C   UNL d   1      32.844  17.985 -23.373  0.00  0.00     0.220 A 
ATOM      3  N   UNL d   1      32.436  17.668 -24.018  0.00  0.00    -0.149 N 
ATOM      4  C   UNL d   1      32.420  16.847 -24.151  0.00  0.00     0.303 A 
ATOM      5  N   UNL d   1      32.037  18.167 -24.540  0.00  0.00    -0.037 N 
ATOM      6  C   UNL d   1      32.825  16.353 -23.618  0.00  0.00     0.161 A 
ATOM      7  O   UNL d   1      32.016  16.533 -24.789  0.00  0.00    -0.263 OA
ATOM      8  C   UNL d   1      32.816  15.537 -23.741  0.00  0.00     0.028 C 
ATOM      9  N   UNL d   1      33.233  16.670 -22.973  0.00  0.00    -0.141 NA
ATOM     10  N   UNL d   1      33.241  17.484 -22.853  0.00  0.00    -0.121 NA
ENDBRANCH   1   2
BRANCH   1  11
ATOM     11  C   UNL d   1      33.023  19.103 -22.504  0.00  0.00     0.038 C 
BRANCH  11  12
ATOM     12  C   UNL d   1      32.927  19.906 -22.361  0.00  0.00     0.007 C 
BRANCH  12  13
ATOM     13  C   UNL d   1      33.063  20.215 -21.608  0.00  0.00     0.001 C 
BRANCH  13  14
ATOM     14  C   UNL d   1      32.858  21.002 -21.448  0.00  0.00     0.000 A 
ATOM     15  C   UNL d   1      33.241  21.617 -21.830  0.00  0.00     0.000 A 
ATOM     16  C   UNL d   1      33.026  22.406 -21.660  0.00  0.00     0.000 A 
ATOM     17  C   UNL d   1      32.437  22.556 -21.115  0.00  0.00     0.000 A 
ATOM     18  C   UNL d   1      32.052  21.938 -20.731  0.00  0.00     0.000 A 
ATOM     19  C   UNL d   1      32.261  21.157 -20.895  0.00  0.00     0.000 A 
ENDBRANCH  13  14
ENDBRANCH  12  13
ENDBRANCH  11  12
ENDBRANCH   1  11
TORSDOF 5
ENDMDL
MODEL 2
REMARK VINA RESULT:      -0.8      2.803      5.120
REMARK  5 active torsions:
REMARK  status: ('A' for Active; 'I' for Inactive)
REMARK    1  A    between atoms: S_9  and  C_3 
REMARK    2  A    between atoms: C_14  and  S_9 
REMARK    3  A    between atoms: C_10  and  C_11 
REMARK    4  A    between atoms: C_12  and  C_10 
REMARK    5  A    between atoms: C_11  and  C_14 
ROOT
ATOM      1  S   UNL d   1      32.970  20.392 -21.821  0.00  0.00    -0.046 SA
ENDROOT
BRANCH   1   2
ATOM      2  C   UNL d   1      32.888  21.212 -21.782  0.00  0.00     0.220 A 
ATOM      3  N   UNL d   1      32.451  21.557 -21.170  0.00  0.00    -0.149 N 
ATOM      4  C   UNL d   1      32.363  22.382 -21.122  0.00  0.00     0.303 A 
ATOM      5  N   UNL d   1      32.096  21.081 -20.597  0.00  0.00    -0.037 N 
ATOM      6  C   UNL d   1      32.725  22.853 -21.704  0.00  0.00     0.161 A 
ATOM      7  O   UNL d   1      31.931  22.723 -20.517  0.00  0.00    -0.263 OA
ATOM      8  C   UNL d   1      32.644  23.673 -21.666  0.00  0.00     0.028 C 
ATOM      9  N   UNL d   1      33.162  22.508 -22.316  0.00  0.00    -0.141 NA
ATOM     10  N   UNL d   1      33.241  21.690 -22.352  0.00  0.00    -0.121 NA
ENDBRANCH   1   2
BRANCH   1  11
ATOM     11  C   UNL d   1      33.167  20.031 -22.533  0.00  0.00     0.038 C 
BRANCH  11  12
ATOM     12  C   UNL d   1      32.979  19.241 -22.652  0.00  0.00     0.007 C 
BRANCH  12  13
ATOM     13  C   UNL d   1      33.006  18.915 -23.409  0.00  0.00     0.001 C 
BRANCH  13  14
ATOM     14  C   UNL d   1      32.700  18.155 -23.536  0.00  0.00     0.000 A 
ATOM     15  C   UNL d   1      32.972  17.518 -23.100  0.00  0.00     0.000 A 
ATOM     16  C   UNL d   1      32.656  16.757 -23.238  0.00  0.00     0.000 A 
ATOM     17  C   UNL d   1      32.078  16.657 -23.806  0.00  0.00     0.000 A 
ATOM     18  C   UNL d   1      31.805  17.297 -24.245  0.00  0.00     0.000 A 
ATOM     19  C   UNL d   1      32.114  18.051 -24.113  0.00  0.00     0.000 A 
ENDBRANCH  13  14
ENDBRANCH  12  13
ENDBRANCH  11  12
ENDBRANCH   1  11
TORSDOF 5
ENDMDL
MODEL 3
REMARK VINA RESULT:      -0.8      1.994      4.830
REMARK  5 active torsions:
REMARK  status: ('A' for Active; 'I' for Inactive)
REMARK    1  A    between atoms: S_9  and  C_3 
REMARK    2  A    between atoms: C_14  and  S_9 
REMARK    3  A    between atoms: C_10  and  C_11 
REMARK    4  A    between atoms: C_12  and  C_10 
REMARK    5  A    between atoms: C_11  and  C_14 
ROOT
ATOM      1  S   UNL d   1      33.164  18.171 -23.792  0.00  0.00    -0.046 SA
ENDROOT
BRANCH   1   2
ATOM      2  C   UNL d   1      33.183  18.890 -23.389  0.00  0.00     0.220 A 
ATOM      3  N   UNL d   1      33.202  18.902 -22.562  0.00  0.00    -0.149 N 
ATOM      4  C   UNL d   1      33.221  19.622 -22.146  0.00  0.00     0.303 A 
ATOM      5  N   UNL d   1      33.201  18.194 -22.139  0.00  0.00    -0.037 N 
ATOM      6  C   UNL d   1      33.222  20.330 -22.582  0.00  0.00     0.161 A 
ATOM      7  O   UNL d   1      33.239  19.633 -21.329  0.00  0.00    -0.263 OA
ATOM      8  C   UNL d   1      33.241  21.049 -22.180  0.00  0.00     0.028 C 
ATOM      9  N   UNL d   1      33.203  20.318 -23.409  0.00  0.00    -0.141 NA
ATOM     10  N   UNL d   1      33.184  19.598 -23.808  0.00  0.00    -0.121 NA
ENDBRANCH   1   2
BRANCH   1  11
ATOM     11  C   UNL d   1      32.655  18.068 -24.429  0.00  0.00     0.038 C 
BRANCH  11  12
ATOM     12  C   UNL d   1      32.261  17.354 -24.522  0.00  0.00     0.007 C 
BRANCH  12  13
ATOM     13  C   UNL d   1      31.582  17.310 -24.989  0.00  0.00     0.001 C 
BRANCH  13  14
ATOM     14  C   UNL d   1      30.979  16.781 -24.782  0.00  0.00     0.000 A 
ATOM     15  C   UNL d   1      31.127  15.977 -24.740  0.00  0.00     0.000 A 
ATOM     16  C   UNL d   1      30.510  15.454 -24.530  0.00  0.00     0.000 A 
ATOM     17  C   UNL d   1      29.767  15.750 -24.368  0.00  0.00     0.000 A 
ATOM     18  C   UNL d   1      29.618  16.559 -24.410  0.00  0.00     0.000 A 
ATOM     19  C   UNL d   1      30.223  17.080 -24.617  0.00  0.00     0.000 A 
ENDBRANCH  13  14
ENDBRANCH  12  13
ENDBRANCH  11  12
ENDBRANCH   1  11
TORSDOF 5
ENDMDL
