MODEL 1
REMARK VINA RESULT:       8.8      0.000      0.000
REMARK  4 active torsions:
REMARK  status: ('A' for Active; 'I' for Inactive)
REMARK    1  A    between atoms: N_10  and  C_3 
REMARK    2  A    between atoms: C_11  and  C_5 
REMARK    3  A    between atoms: C_13  and  N_10 
REMARK    4  A    between atoms: C_19  and  C_13 
ROOT
ATOM      1  N   UNL d   1     -41.921-122.108 -51.812  0.00  0.00    -0.195 N 
ATOM      2  C   UNL d   1     -41.852-121.922 -50.994  0.00  0.00     0.167 A 
ATOM      3  C   UNL d   1     -41.751-121.527 -52.381  0.00  0.00     0.167 A 
ATOM      4  N   UNL d   1     -42.325-123.433 -51.478  0.00  0.00    -0.163 NA
ATOM      5  C   UNL d   1     -42.018-122.489 -50.438  0.00  0.00     0.055 A 
ATOM      6  N   UNL d   1     -41.614-121.163 -50.772  0.00  0.00    -0.227 NA
ATOM      7  C   UNL d   1     -41.517-120.782 -52.147  0.00  0.00     0.054 A 
ATOM      8  C   UNL d   1     -42.257-123.250 -50.672  0.00  0.00     0.104 A 
ATOM      9  C   UNL d   1     -41.445-120.589 -51.330  0.00  0.00     0.086 A 
ATOM     10  C   UNL d   1     -41.317-120.112 -52.564  0.00  0.00     0.005 A 
ATOM     11  C   UNL d   1     -42.423-123.817 -50.103  0.00  0.00     0.023 C 
ATOM     12  C   UNL d   1     -41.202-119.806 -51.266  0.00  0.00     0.019 A 
ATOM     13  C   UNL d   1     -41.123-119.509 -52.041  0.00  0.00     0.002 A 
ENDROOT
BRANCH   5  14
ATOM     14  C   UNL d   1     -41.950-122.307 -49.636  0.00  0.00     0.004 A 
ATOM     15  C   UNL d   1     -42.622-122.129 -49.192  0.00  0.00     0.000 A 
ATOM     16  C   UNL d   1     -42.558-121.948 -48.395  0.00  0.00     0.000 A 
ATOM     17  C   UNL d   1     -41.813-121.945 -48.032  0.00  0.00     0.000 A 
ATOM     18  C   UNL d   1     -41.145-122.119 -48.463  0.00  0.00     0.000 A 
ATOM     19  C   UNL d   1     -41.214-122.302 -49.273  0.00  0.00     0.000 A 
ENDBRANCH   5  14
BRANCH   3  20
ATOM     20  N   UNL d   1     -41.820-121.710 -53.208  0.00  0.00    -0.225 NA
BRANCH  20  21
ATOM     21  C   UNL d   1     -42.039-122.243 -53.824  0.00  0.00     0.101 C 
BRANCH  21  22
ATOM     22  C   UNL d   1     -42.072-121.982 -54.625  0.00  0.00     0.019 C 
ATOM     23  C   UNL d   1     -41.403-122.093 -55.135  0.00  0.00     0.002 C 
ATOM     24  C   UNL d   1     -42.778-121.608 -54.918  0.00  0.00     0.002 C 
ENDBRANCH  21  22
ENDBRANCH  20  21
ENDBRANCH   3  20
TORSDOF 4
ENDMDL
