MODEL 1
REMARK VINA RESULT:      -8.6      0.000      0.000
REMARK  4 active torsions:
REMARK  status: ('A' for Active; 'I' for Inactive)
REMARK    1  A    between atoms: N_7  and  C_1 
REMARK    2  A    between atoms: C_8  and  C_2 
REMARK    3  A    between atoms: C_11  and  N_7 
REMARK    4  A    between atoms: C_19  and  C_12 
ROOT
ATOM      1  C   UNL d   1     -47.518  12.981  23.009  0.00  0.00     0.189 A 
ATOM      2  C   UNL d   1     -46.752  12.720  23.169  0.00  0.00     0.119 A 
ATOM      3  C   UNL d   1     -46.633  11.976  23.507  0.00  0.00     0.204 A 
ATOM      4  O   UNL d   1     -48.163  12.497  23.188  0.00  0.00    -0.289 OA
ATOM      5  C   UNL d   1     -47.275  11.500  23.683  0.00  0.00     0.067 A 
ATOM      6  C   UNL d   1     -48.041  11.760  23.523  0.00  0.00     0.105 A 
ATOM      7  O   UNL d   1     -45.864  11.715  23.667  0.00  0.00    -0.286 OA
ATOM      8  C   UNL d   1     -48.707  11.285  23.698  0.00  0.00     0.027 C 
ENDROOT
BRANCH   1   9
ATOM      9  N   UNL d   1     -47.652  13.748  22.660  0.00  0.00    -0.222 NA
BRANCH   9  10
ATOM     10  C   UNL d   1     -48.410  14.061  22.614  0.00  0.00     0.084 A 
ATOM     11  C   UNL d   1     -48.721  14.497  23.247  0.00  0.00     0.019 A 
ATOM     12  C   UNL d   1     -49.482  14.810  23.202  0.00  0.00     0.002 A 
ATOM     13  C   UNL d   1     -49.937  14.689  22.523  0.00  0.00     0.000 A 
ATOM     14  C   UNL d   1     -49.631  14.259  21.897  0.00  0.00     0.002 A 
ATOM     15  C   UNL d   1     -48.870  13.945  21.943  0.00  0.00     0.019 A 
BRANCH  13  16
ATOM     16  C   UNL d   1     -50.702  15.004  22.477  0.00  0.00     0.000 C 
ATOM     17  C   UNL d   1     -51.063  15.304  23.148  0.00  0.00     0.000 C 
ENDBRANCH  13  16
ENDBRANCH   9  10
ENDBRANCH   1   9
BRANCH   2  18
ATOM     18  C   UNL d   1     -46.101  13.220  22.983  0.00  0.00     0.202 C 
ATOM     19  O   UNL d   1     -45.830  13.759  23.550  0.00  0.00    -0.286 OA
ATOM     20  C   UNL d   1     -45.737  13.177  22.250  0.00  0.00     0.046 C 
ENDBRANCH   2  18
TORSDOF 4
ENDMDL
MODEL 2
REMARK VINA RESULT:      -7.7      1.544      3.875
REMARK  4 active torsions:
REMARK  status: ('A' for Active; 'I' for Inactive)
REMARK    1  A    between atoms: N_7  and  C_1 
REMARK    2  A    between atoms: C_8  and  C_2 
REMARK    3  A    between atoms: C_11  and  N_7 
REMARK    4  A    between atoms: C_19  and  C_12 
ROOT
ATOM      1  C   UNL d   1     -49.088  14.049  22.517  0.00  0.00     0.189 A 
ATOM      2  C   UNL d   1     -49.770  14.510  22.470  0.00  0.00     0.119 A 
ATOM      3  C   UNL d   1     -50.379  14.292  21.957  0.00  0.00     0.204 A 
ATOM      4  O   UNL d   1     -49.016  13.371  22.050  0.00  0.00    -0.289 OA
ATOM      5  C   UNL d   1     -50.305  13.619  21.496  0.00  0.00     0.067 A 
ATOM      6  C   UNL d   1     -49.622  13.159  21.542  0.00  0.00     0.105 A 
ATOM      7  O   UNL d   1     -51.064  14.754  21.911  0.00  0.00    -0.286 OA
ATOM      8  C   UNL d   1     -49.532  12.469  21.077  0.00  0.00     0.027 C 
ENDROOT
BRANCH   1   9
ATOM      9  N   UNL d   1     -48.453  14.265  23.044  0.00  0.00    -0.222 NA
BRANCH   9  10
ATOM     10  C   UNL d   1     -47.708  13.930  22.961  0.00  0.00     0.084 A 
ATOM     11  C   UNL d   1     -47.530  13.210  23.331  0.00  0.00     0.019 A 
ATOM     12  C   UNL d   1     -46.782  12.873  23.247  0.00  0.00     0.002 A 
ATOM     13  C   UNL d   1     -46.207  13.254  22.793  0.00  0.00     0.000 A 
ATOM     14  C   UNL d   1     -46.381  13.966  22.427  0.00  0.00     0.002 A 
ATOM     15  C   UNL d   1     -47.130  14.303  22.510  0.00  0.00     0.019 A 
BRANCH  13  16
ATOM     16  C   UNL d   1     -45.455  12.916  22.709  0.00  0.00     0.000 C 
ATOM     17  C   UNL d   1     -45.063  12.961  21.992  0.00  0.00     0.000 C 
ENDBRANCH  13  16
ENDBRANCH   9  10
ENDBRANCH   1   9
BRANCH   2  18
ATOM     18  C   UNL d   1     -49.834  15.199  22.950  0.00  0.00     0.202 C 
ATOM     19  O   UNL d   1     -49.558  15.922  22.658  0.00  0.00    -0.286 OA
ATOM     20  C   UNL d   1     -50.166  15.157  23.698  0.00  0.00     0.046 C 
ENDBRANCH   2  18
TORSDOF 4
ENDMDL
MODEL 3
REMARK VINA RESULT:      -7.2      1.453      3.880
REMARK  4 active torsions:
REMARK  status: ('A' for Active; 'I' for Inactive)
REMARK    1  A    between atoms: N_7  and  C_1 
REMARK    2  A    between atoms: C_8  and  C_2 
REMARK    3  A    between atoms: C_11  and  N_7 
REMARK    4  A    between atoms: C_19  and  C_12 
ROOT
ATOM      1  C   UNL d   1     -48.884  13.220  22.954  0.00  0.00     0.189 A 
ATOM      2  C   UNL d   1     -49.674  12.983  22.928  0.00  0.00     0.119 A 
ATOM      3  C   UNL d   1     -50.272  13.550  22.883  0.00  0.00     0.204 A 
ATOM      4  O   UNL d   1     -48.696  14.024  22.934  0.00  0.00    -0.289 OA
ATOM      5  C   UNL d   1     -50.081  14.346  22.864  0.00  0.00     0.067 A 
ATOM      6  C   UNL d   1     -49.292  14.583  22.890  0.00  0.00     0.105 A 
ATOM      7  O   UNL d   1     -51.064  13.311  22.857  0.00  0.00    -0.286 OA
ATOM      8  C   UNL d   1     -49.081  15.392  22.872  0.00  0.00     0.027 C 
ENDROOT
BRANCH   1   9
ATOM      9  N   UNL d   1     -48.258  12.642  23.000  0.00  0.00    -0.222 NA
BRANCH   9  10
ATOM     10  C   UNL d   1     -47.486  12.846  22.810  0.00  0.00     0.084 A 
ATOM     11  C   UNL d   1     -46.936  13.006  23.409  0.00  0.00     0.019 A 
ATOM     12  C   UNL d   1     -46.160  13.212  23.218  0.00  0.00     0.002 A 
ATOM     13  C   UNL d   1     -45.930  13.257  22.427  0.00  0.00     0.000 A 
ATOM     14  C   UNL d   1     -46.472  13.099  21.833  0.00  0.00     0.002 A 
ATOM     15  C   UNL d   1     -47.248  12.894  22.025  0.00  0.00     0.019 A 
BRANCH  13  16
ATOM     16  C   UNL d   1     -45.151  13.463  22.235  0.00  0.00     0.000 C 
ATOM     17  C   UNL d   1     -44.684  12.947  21.805  0.00  0.00     0.000 C 
ENDBRANCH  13  16
ENDBRANCH   9  10
ENDBRANCH   1   9
BRANCH   2  18
ATOM     18  C   UNL d   1     -49.856  12.161  22.948  0.00  0.00     0.202 C 
ATOM     19  O   UNL d   1     -49.936  11.747  22.235  0.00  0.00    -0.286 OA
ATOM     20  C   UNL d   1     -49.955  11.773  23.662  0.00  0.00     0.046 C 
ENDBRANCH   2  18
TORSDOF 4
ENDMDL
MODEL 4
REMARK VINA RESULT:      -6.0      8.488      9.737
REMARK  4 active torsions:
REMARK  status: ('A' for Active; 'I' for Inactive)
REMARK    1  A    between atoms: N_7  and  C_1 
REMARK    2  A    between atoms: C_8  and  C_2 
REMARK    3  A    between atoms: C_11  and  N_7 
REMARK    4  A    between atoms: C_19  and  C_12 
ROOT
ATOM      1  C   UNL d   1     -39.905  14.597  18.329  0.00  0.00     0.189 A 
ATOM      2  C   UNL d   1     -39.928  14.649  17.506  0.00  0.00     0.119 A 
ATOM      3  C   UNL d   1     -39.382  14.228  17.052  0.00  0.00     0.204 A 
ATOM      4  O   UNL d   1     -39.336  14.123  18.695  0.00  0.00    -0.289 OA
ATOM      5  C   UNL d   1     -38.819  13.760  17.418  0.00  0.00     0.067 A 
ATOM      6  C   UNL d   1     -38.796  13.707  18.241  0.00  0.00     0.105 A 
ATOM      7  O   UNL d   1     -39.405  14.281  16.226  0.00  0.00    -0.286 OA
ATOM      8  C   UNL d   1     -38.227  13.233  18.630  0.00  0.00     0.027 C 
ENDROOT
BRANCH   1   9
ATOM      9  N   UNL d   1     -40.465  15.028  18.807  0.00  0.00    -0.222 NA
BRANCH   9  10
ATOM     10  C   UNL d   1     -40.320  15.157  19.605  0.00  0.00     0.084 A 
ATOM     11  C   UNL d   1     -40.640  14.646  20.176  0.00  0.00     0.019 A 
ATOM     12  C   UNL d   1     -40.495  14.776  20.977  0.00  0.00     0.002 A 
ATOM     13  C   UNL d   1     -40.029  15.416  21.213  0.00  0.00     0.000 A 
ATOM     14  C   UNL d   1     -39.713  15.920  20.651  0.00  0.00     0.002 A 
ATOM     15  C   UNL d   1     -39.858  15.791  19.850  0.00  0.00     0.019 A 
BRANCH  13  16
ATOM     16  C   UNL d   1     -39.884  15.545  22.019  0.00  0.00     0.000 C 
ATOM     17  C   UNL d   1     -39.152  15.364  22.337  0.00  0.00     0.000 C 
ENDBRANCH  13  16
ENDBRANCH   9  10
ENDBRANCH   1   9
BRANCH   2  18
ATOM     18  C   UNL d   1     -40.512  15.134  17.142  0.00  0.00     0.202 C 
ATOM     19  O   UNL d   1     -41.275  14.833  17.029  0.00  0.00    -0.286 OA
ATOM     20  C   UNL d   1     -40.330  15.895  16.900  0.00  0.00     0.046 C 
ENDBRANCH   2  18
TORSDOF 4
ENDMDL
MODEL 5
REMARK VINA RESULT:      -5.7      7.511      9.714
REMARK  4 active torsions:
REMARK  status: ('A' for Active; 'I' for Inactive)
REMARK    1  A    between atoms: N_7  and  C_1 
REMARK    2  A    between atoms: C_8  and  C_2 
REMARK    3  A    between atoms: C_11  and  N_7 
REMARK    4  A    between atoms: C_19  and  C_12 
ROOT
ATOM      1  C   UNL d   1     -40.027  15.332  19.926  0.00  0.00     0.189 A 
ATOM      2  C   UNL d   1     -40.332  15.478  20.678  0.00  0.00     0.119 A 
ATOM      3  C   UNL d   1     -39.841  15.774  21.271  0.00  0.00     0.204 A 
ATOM      4  O   UNL d   1     -39.230  15.483  19.770  0.00  0.00    -0.289 OA
ATOM      5  C   UNL d   1     -39.051  15.922  21.113  0.00  0.00     0.067 A 
ATOM      6  C   UNL d   1     -38.745  15.776  20.361  0.00  0.00     0.105 A 
ATOM      7  O   UNL d   1     -40.148  15.921  22.026  0.00  0.00    -0.286 OA
ATOM      8  C   UNL d   1     -37.941  15.922  20.184  0.00  0.00     0.027 C 
ENDROOT
BRANCH   1   9
ATOM      9  N   UNL d   1     -40.527  15.027  19.306  0.00  0.00    -0.222 NA
BRANCH   9  10
ATOM     10  C   UNL d   1     -40.211  14.825  18.575  0.00  0.00     0.084 A 
ATOM     11  C   UNL d   1     -40.196  15.378  17.958  0.00  0.00     0.019 A 
ATOM     12  C   UNL d   1     -39.878  15.175  17.225  0.00  0.00     0.002 A 
ATOM     13  C   UNL d   1     -39.573  14.418  17.105  0.00  0.00     0.000 A 
ATOM     14  C   UNL d   1     -39.586  13.870  17.713  0.00  0.00     0.002 A 
ATOM     15  C   UNL d   1     -39.904  14.073  18.446  0.00  0.00     0.019 A 
BRANCH  13  16
ATOM     16  C   UNL d   1     -39.254  14.213  16.367  0.00  0.00     0.000 C 
ATOM     17  C   UNL d   1     -38.559  13.783  16.326  0.00  0.00     0.000 C 
ENDBRANCH  13  16
ENDBRANCH   9  10
ENDBRANCH   1   9
BRANCH   2  18
ATOM     18  C   UNL d   1     -41.146  15.322  20.828  0.00  0.00     0.202 C 
ATOM     19  O   UNL d   1     -41.380  14.554  21.028  0.00  0.00    -0.286 OA
ATOM     20  C   UNL d   1     -41.702  15.921  20.778  0.00  0.00     0.046 C 
ENDBRANCH   2  18
TORSDOF 4
ENDMDL
MODEL 6
REMARK VINA RESULT:      -5.6      8.545      9.905
REMARK  4 active torsions:
REMARK  status: ('A' for Active; 'I' for Inactive)
REMARK    1  A    between atoms: N_7  and  C_1 
REMARK    2  A    between atoms: C_8  and  C_2 
REMARK    3  A    between atoms: C_11  and  N_7 
REMARK    4  A    between atoms: C_19  and  C_12 
ROOT
ATOM      1  C   UNL d   1     -39.693  14.324  18.100  0.00  0.00     0.189 A 
ATOM      2  C   UNL d   1     -39.304  13.985  17.457  0.00  0.00     0.119 A 
ATOM      3  C   UNL d   1     -39.420  14.290  16.699  0.00  0.00     0.204 A 
ATOM      4  O   UNL d   1     -40.197  14.967  17.983  0.00  0.00    -0.289 OA
ATOM      5  C   UNL d   1     -39.921  14.928  16.586  0.00  0.00     0.067 A 
ATOM      6  C   UNL d   1     -40.310  15.267  17.230  0.00  0.00     0.105 A 
ATOM      7  O   UNL d   1     -39.029  13.949  16.053  0.00  0.00    -0.286 OA
ATOM      8  C   UNL d   1     -40.825  15.919  17.131  0.00  0.00     0.027 C 
ENDROOT
BRANCH   1   9
ATOM      9  N   UNL d   1     -39.580  14.016  18.888  0.00  0.00    -0.222 NA
BRANCH   9  10
ATOM     10  C   UNL d   1     -39.742  14.480  19.545  0.00  0.00     0.084 A 
ATOM     11  C   UNL d   1     -39.204  15.061  19.791  0.00  0.00     0.019 A 
ATOM     12  C   UNL d   1     -39.367  15.527  20.451  0.00  0.00     0.002 A 
ATOM     13  C   UNL d   1     -40.070  15.415  20.870  0.00  0.00     0.000 A 
ATOM     14  C   UNL d   1     -40.603  14.842  20.629  0.00  0.00     0.002 A 
ATOM     15  C   UNL d   1     -40.440  14.376  19.969  0.00  0.00     0.019 A 
BRANCH  13  16
ATOM     16  C   UNL d   1     -40.234  15.884  21.534  0.00  0.00     0.000 C 
ATOM     17  C   UNL d   1     -39.809  15.779  22.225  0.00  0.00     0.000 C 
ENDBRANCH  13  16
ENDBRANCH   9  10
ENDBRANCH   1   9
BRANCH   2  18
ATOM     18  C   UNL d   1     -38.792  13.329  17.586  0.00  0.00     0.202 C 
ATOM     19  O   UNL d   1     -39.115  12.569  17.647  0.00  0.00    -0.286 OA
ATOM     20  C   UNL d   1     -37.983  13.438  17.651  0.00  0.00     0.046 C 
ENDBRANCH   2  18
TORSDOF 4
ENDMDL
