MODEL 1
REMARK VINA RESULT:       0.7      0.000      0.000
REMARK  3 active torsions:
REMARK  status: ('A' for Active; 'I' for Inactive)
REMARK    1  A    between atoms: C_6  and  C_1 
REMARK    2  A    between atoms: C_10  and  C_3 
REMARK    3  A    between atoms: C_8  and  N_4 
REMARK       I    between atoms: N_7  and  C_6 
ROOT
ATOM      1  C   UNL d   1      32.953  21.690 -22.262  0.00  0.00     0.095 A 
ATOM      2  N   UNL d   1      32.556  20.745 -21.269  0.00  0.00    -0.165 NA
ATOM      3  C   UNL d   1      32.679  21.521 -21.503  0.00  0.00     0.107 A 
ATOM      4  N   UNL d   1      32.979  20.286 -22.553  0.00  0.00    -0.228 N 
ATOM      5  C   UNL d   1      33.101  21.069 -22.781  0.00  0.00     0.107 A 
ENDROOT
BRANCH   1   6
ATOM      6  C   UNL d   1      33.074  22.473 -22.489  0.00  0.00     0.268 C 
ATOM      7  N   UNL d   1      33.024  22.683 -23.319  0.00  0.00    -0.272 N 
ATOM      8  C   UNL d   1      33.148  23.492 -23.564  0.00  0.00     0.083 A 
ATOM      9  C   UNL d   1      32.849  22.084 -23.903  0.00  0.00     0.083 A 
ATOM     10  C   UNL d   1      33.098  23.701 -24.390  0.00  0.00     0.019 A 
ATOM     11  C   UNL d   1      32.923  23.100 -24.966  0.00  0.00     0.003 A 
ATOM     12  C   UNL d   1      32.799  22.294 -24.728  0.00  0.00     0.019 A 
ATOM     13  O   UNL d   1      33.241  23.045 -21.936  0.00  0.00    -0.267 OA
ENDBRANCH   1   6
BRANCH   3  14
ATOM     14  C   UNL d   1      32.527  22.139 -20.974  0.00  0.00     0.023 A 
ATOM     15  C   UNL d   1      31.799  22.525 -20.999  0.00  0.00     0.022 A 
ATOM     16  C   UNL d   1      31.653  23.140 -20.469  0.00  0.00     0.099 A 
ATOM     17  N   UNL d   1      32.228  23.366 -19.922  0.00  0.00    -0.242 NA
ATOM     18  C   UNL d   1      32.954  22.974 -19.905  0.00  0.00     0.099 A 
ATOM     19  C   UNL d   1      33.102  22.360 -20.432  0.00  0.00     0.022 A 
ENDBRANCH   3  14
BRANCH   4  20
ATOM     20  C   UNL d   1      33.065  19.553 -22.913  0.00  0.00     0.083 A 
ATOM     21  C   UNL d   1      33.128  19.502 -23.727  0.00  0.00     0.019 A 
ATOM     22  C   UNL d   1      33.214  18.768 -24.085  0.00  0.00     0.002 A 
ATOM     23  C   UNL d   1      33.238  18.080 -23.627  0.00  0.00     0.000 A 
ATOM     24  C   UNL d   1      33.174  18.134 -22.802  0.00  0.00     0.002 A 
ATOM     25  C   UNL d   1      33.087  18.874 -22.442  0.00  0.00     0.019 A 
ENDBRANCH   4  20
TORSDOF 3
ENDMDL
MODEL 2
REMARK VINA RESULT:       1.7      3.548      5.820
REMARK  3 active torsions:
REMARK  status: ('A' for Active; 'I' for Inactive)
REMARK    1  A    between atoms: C_6  and  C_1 
REMARK    2  A    between atoms: C_10  and  C_3 
REMARK    3  A    between atoms: C_8  and  N_4 
REMARK       I    between atoms: N_7  and  C_6 
ROOT
ATOM      1  C   UNL d   1      31.095  17.528 -23.729  0.00  0.00     0.095 A 
ATOM      2  N   UNL d   1      30.529  17.930 -24.975  0.00  0.00    -0.165 NA
ATOM      3  C   UNL d   1      31.124  17.985 -24.414  0.00  0.00     0.107 A 
ATOM      4  N   UNL d   1      29.859  16.955 -24.176  0.00  0.00    -0.228 N 
ATOM      5  C   UNL d   1      30.461  17.016 -23.616  0.00  0.00     0.107 A 
ENDROOT
BRANCH   1   6
ATOM      6  C   UNL d   1      31.697  17.589 -23.169  0.00  0.00     0.268 C 
ATOM      7  N   UNL d   1      32.157  16.893 -22.967  0.00  0.00    -0.272 N 
ATOM      8  C   UNL d   1      32.783  16.947 -22.388  0.00  0.00     0.083 A 
ATOM      9  C   UNL d   1      31.990  16.145 -23.343  0.00  0.00     0.083 A 
ATOM     10  C   UNL d   1      33.239  16.255 -22.187  0.00  0.00     0.019 A 
ATOM     11  C   UNL d   1      33.068  15.513 -22.565  0.00  0.00     0.003 A 
ATOM     12  C   UNL d   1      32.446  15.454 -23.142  0.00  0.00     0.019 A 
ATOM     13  O   UNL d   1      31.859  18.300 -22.809  0.00  0.00    -0.267 OA
ENDBRANCH   1   6
BRANCH   3  14
ATOM     14  C   UNL d   1      31.758  18.502 -24.536  0.00  0.00     0.023 A 
ATOM     15  C   UNL d   1      31.729  19.263 -24.217  0.00  0.00     0.022 A 
ATOM     16  C   UNL d   1      32.362  19.775 -24.341  0.00  0.00     0.099 A 
ATOM     17  N   UNL d   1      33.018  19.530 -24.779  0.00  0.00    -0.242 NA
ATOM     18  C   UNL d   1      33.038  18.768 -25.095  0.00  0.00     0.099 A 
ATOM     19  C   UNL d   1      32.407  18.255 -24.972  0.00  0.00     0.022 A 
ENDBRANCH   3  14
BRANCH   4  20
ATOM     20  C   UNL d   1      29.167  16.518 -24.245  0.00  0.00     0.083 A 
ATOM     21  C   UNL d   1      28.609  16.540 -23.647  0.00  0.00     0.019 A 
ATOM     22  C   UNL d   1      27.917  16.103 -23.717  0.00  0.00     0.002 A 
ATOM     23  C   UNL d   1      27.782  15.640 -24.389  0.00  0.00     0.000 A 
ATOM     24  C   UNL d   1      28.349  15.620 -24.994  0.00  0.00     0.002 A 
ATOM     25  C   UNL d   1      29.045  16.061 -24.922  0.00  0.00     0.019 A 
ENDBRANCH   4  20
TORSDOF 3
ENDMDL
MODEL 3
REMARK VINA RESULT:       2.7      1.151      4.090
REMARK  3 active torsions:
REMARK  status: ('A' for Active; 'I' for Inactive)
REMARK    1  A    between atoms: C_6  and  C_1 
REMARK    2  A    between atoms: C_10  and  C_3 
REMARK    3  A    between atoms: C_8  and  N_4 
REMARK       I    between atoms: N_7  and  C_6 
ROOT
ATOM      1  C   UNL d   1      32.864  22.411 -21.824  0.00  0.00     0.095 A 
ATOM      2  N   UNL d   1      32.366  23.702 -21.477  0.00  0.00    -0.165 NA
ATOM      3  C   UNL d   1      32.555  23.142 -22.046  0.00  0.00     0.107 A 
ATOM      4  N   UNL d   1      32.793  22.809 -20.448  0.00  0.00    -0.228 N 
ATOM      5  C   UNL d   1      32.980  22.252 -21.026  0.00  0.00     0.107 A 
ENDROOT
BRANCH   1   6
ATOM      6  C   UNL d   1      33.052  21.853 -22.401  0.00  0.00     0.268 C 
ATOM      7  N   UNL d   1      33.048  21.020 -22.199  0.00  0.00    -0.272 N 
ATOM      8  C   UNL d   1      33.241  20.435 -22.791  0.00  0.00     0.083 A 
ATOM      9  C   UNL d   1      32.850  20.773 -21.406  0.00  0.00     0.083 A 
ATOM     10  C   UNL d   1      33.237  19.606 -22.589  0.00  0.00     0.019 A 
ATOM     11  C   UNL d   1      33.039  19.366 -21.798  0.00  0.00     0.003 A 
ATOM     12  C   UNL d   1      32.845  19.944 -21.205  0.00  0.00     0.019 A 
ATOM     13  O   UNL d   1      33.241  22.086 -23.157  0.00  0.00    -0.267 OA
ENDBRANCH   1   6
BRANCH   3  14
ATOM     14  C   UNL d   1      32.435  23.312 -22.846  0.00  0.00     0.023 A 
ATOM     15  C   UNL d   1      33.076  23.531 -23.316  0.00  0.00     0.022 A 
ATOM     16  C   UNL d   1      32.952  23.699 -24.113  0.00  0.00     0.099 A 
ATOM     17  N   UNL d   1      32.194  23.649 -24.437  0.00  0.00    -0.242 NA
ATOM     18  C   UNL d   1      31.558  23.429 -23.960  0.00  0.00     0.099 A 
ATOM     19  C   UNL d   1      31.680  23.260 -23.164  0.00  0.00     0.022 A 
ENDBRANCH   3  14
BRANCH   4  20
ATOM     20  C   UNL d   1      32.834  22.839 -19.629  0.00  0.00     0.083 A 
ATOM     21  C   UNL d   1      32.538  23.488 -19.228  0.00  0.00     0.019 A 
ATOM     22  C   UNL d   1      32.579  23.516 -18.408  0.00  0.00     0.002 A 
ATOM     23  C   UNL d   1      32.919  22.891 -17.986  0.00  0.00     0.000 A 
ATOM     24  C   UNL d   1      33.218  22.235 -18.394  0.00  0.00     0.002 A 
ATOM     25  C   UNL d   1      33.176  22.208 -19.220  0.00  0.00     0.019 A 
ENDBRANCH   4  20
TORSDOF 3
ENDMDL
MODEL 4
REMARK VINA RESULT:       3.6      3.055      5.630
REMARK  3 active torsions:
REMARK  status: ('A' for Active; 'I' for Inactive)
REMARK    1  A    between atoms: C_6  and  C_1 
REMARK    2  A    between atoms: C_10  and  C_3 
REMARK    3  A    between atoms: C_8  and  N_4 
REMARK       I    between atoms: N_7  and  C_6 
ROOT
ATOM      1  C   UNL d   1      31.408  17.969 -23.904  0.00  0.00     0.095 A 
ATOM      2  N   UNL d   1      30.478  18.789 -23.199  0.00  0.00    -0.165 NA
ATOM      3  C   UNL d   1      30.635  18.140 -23.675  0.00  0.00     0.107 A 
ATOM      4  N   UNL d   1      31.868  19.112 -23.171  0.00  0.00    -0.228 N 
ATOM      5  C   UNL d   1      32.018  18.458 -23.649  0.00  0.00     0.107 A 
ENDROOT
BRANCH   1   6
ATOM      6  C   UNL d   1      31.558  17.314 -24.382  0.00  0.00     0.268 C 
ATOM      7  N   UNL d   1      32.122  16.722 -24.121  0.00  0.00    -0.272 N 
ATOM      8  C   UNL d   1      32.284  16.041 -24.610  0.00  0.00     0.083 A 
ATOM      9  C   UNL d   1      32.523  16.813 -23.373  0.00  0.00     0.083 A 
ATOM     10  C   UNL d   1      32.844  15.453 -24.351  0.00  0.00     0.019 A 
ATOM     11  C   UNL d   1      33.241  15.548 -23.604  0.00  0.00     0.003 A 
ATOM     12  C   UNL d   1      33.083  16.225 -23.114  0.00  0.00     0.019 A 
ATOM     13  O   UNL d   1      31.178  17.225 -25.095  0.00  0.00    -0.267 OA
ENDBRANCH   1   6
BRANCH   3  14
ATOM     14  C   UNL d   1      30.014  17.654 -23.926  0.00  0.00     0.023 A 
ATOM     15  C   UNL d   1      29.789  17.011 -23.461  0.00  0.00     0.022 A 
ATOM     16  C   UNL d   1      29.170  16.530 -23.715  0.00  0.00     0.099 A 
ATOM     17  N   UNL d   1      28.781  16.690 -24.426  0.00  0.00    -0.242 NA
ATOM     18  C   UNL d   1      29.014  17.335 -24.884  0.00  0.00     0.099 A 
ATOM     19  C   UNL d   1      29.631  17.817 -24.632  0.00  0.00     0.022 A 
ENDBRANCH   3  14
BRANCH   4  20
ATOM     20  C   UNL d   1      32.324  19.700 -22.825  0.00  0.00     0.083 A 
ATOM     21  C   UNL d   1      32.567  20.343 -23.269  0.00  0.00     0.019 A 
ATOM     22  C   UNL d   1      33.024  20.931 -22.922  0.00  0.00     0.002 A 
ATOM     23  C   UNL d   1      33.240  20.876 -22.125  0.00  0.00     0.000 A 
ATOM     24  C   UNL d   1      32.992  20.224 -21.677  0.00  0.00     0.002 A 
ATOM     25  C   UNL d   1      32.533  19.632 -22.028  0.00  0.00     0.019 A 
ENDBRANCH   4  20
TORSDOF 3
ENDMDL
