MODEL 1
REMARK VINA RESULT:      -7.1      0.000      0.000
REMARK  11 active torsions:
REMARK  status: ('A' for Active; 'I' for Inactive)
REMARK    1  A    between atoms: C_2  and  N_1 
REMARK    2  A    between atoms: C_4  and  C_2 
REMARK    3  A    between atoms: C_5  and  C_2 
REMARK    4  A    between atoms: C_3  and  N_6 
REMARK    5  A    between atoms: N_15  and  C_3 
REMARK    6  A    between atoms: N_6  and  C_4 
REMARK    7  A    between atoms: C_16  and  N_7 
REMARK    8  A    between atoms: C_20  and  N_15 
REMARK    9  A    between atoms: C_19  and  C_16 
REMARK   10  A    between atoms: C_23  and  C_20 
REMARK   11  A    between atoms: C_22  and  C_23 
ROOT
ATOM      1  C   UNL d   1      52.464  34.202  53.456  0.00  0.00     0.088 C 
ENDROOT
BRANCH   1   2
ATOM      2  N   UNL d   1      52.840  33.470  53.512  0.00  0.00    -0.300 N 
ATOM      3  C   UNL d   1      53.295  33.194  52.880  0.00  0.00     0.100 A 
ATOM      4  C   UNL d   1      53.671  32.461  52.936  0.00  0.00     0.100 A 
ATOM      5  N   UNL d   1      53.596  32.005  53.617  0.00  0.00    -0.300 N 
ATOM      6  C   UNL d   1      53.142  32.282  54.245  0.00  0.00     0.100 A 
ATOM      7  C   UNL d   1      52.766  33.014  54.189  0.00  0.00     0.100 A 
BRANCH   5   8
ATOM      8  C   UNL d   1      53.974  31.273  53.669  0.00  0.00     0.080 C 
BRANCH   8   9
ATOM      9  C   UNL d   1      53.528  30.576  53.612  0.00  0.00     0.018 A 
ATOM     10  C   UNL d   1      53.136  30.396  52.923  0.00  0.00     0.002 A 
ATOM     11  C   UNL d   1      52.691  29.702  52.863  0.00  0.00     0.000 A 
ATOM     12  C   UNL d   1      52.655  29.199  53.509  0.00  0.00     0.000 A 
ATOM     13  C   UNL d   1      53.053  29.376  54.215  0.00  0.00     0.000 A 
ATOM     14  C   UNL d   1      53.493  30.076  54.256  0.00  0.00     0.002 A 
ENDBRANCH   8   9
ENDBRANCH   5   8
ENDBRANCH   1   2
BRANCH   1  15
ATOM     15  C   UNL d   1      51.792  34.292  52.995  0.00  0.00     0.100 C 
ATOM     16  C   UNL d   1      51.868  34.425  52.194  0.00  0.00     0.022 C 
BRANCH  15  17
ATOM     17  N   UNL d   1      51.058  34.248  53.345  0.00  0.00    -0.216 NA
BRANCH  17  18
ATOM     18  C   UNL d   1      50.378  34.415  52.903  0.00  0.00     0.221 C 
ATOM     19  S   UNL d   1      50.101  33.855  52.366  0.00  0.00    -0.037 SA
BRANCH  18  20
ATOM     20  N   UNL d   1      49.992  35.126  53.002  0.00  0.00    -0.216 NA
BRANCH  20  21
ATOM     21  C   UNL d   1      49.174  35.159  53.050  0.00  0.00     0.102 C 
BRANCH  21  22
ATOM     22  C   UNL d   1      48.815  35.850  53.332  0.00  0.00     0.021 C 
BRANCH  22  23
ATOM     23  C   UNL d   1      48.010  35.945  53.243  0.00  0.00     0.002 A 
ATOM     24  C   UNL d   1      47.526  35.952  53.912  0.00  0.00     0.000 A 
ATOM     25  C   UNL d   1      46.710  36.047  53.826  0.00  0.00     0.000 A 
ATOM     26  C   UNL d   1      46.382  36.135  53.083  0.00  0.00     0.000 A 
ATOM     27  C   UNL d   1      46.874  36.127  52.413  0.00  0.00     0.000 A 
ATOM     28  C   UNL d   1      47.679  36.033  52.501  0.00  0.00     0.000 A 
ENDBRANCH  22  23
ENDBRANCH  21  22
ENDBRANCH  20  21
ENDBRANCH  18  20
ENDBRANCH  17  18
ENDBRANCH  15  17
ENDBRANCH   1  15
BRANCH   1  29
ATOM     29  C   UNL d   1      52.768  34.848  53.870  0.00  0.00     0.047 A 
ATOM     30  S   UNL d   1      52.638  35.023  54.667  0.00  0.00    -0.085 SA
ATOM     31  C   UNL d   1      53.044  35.712  54.846  0.00  0.00     0.035 A 
ATOM     32  C   UNL d   1      53.428  35.969  54.162  0.00  0.00     0.007 A 
ATOM     33  C   UNL d   1      53.256  35.433  53.558  0.00  0.00     0.009 A 
ENDBRANCH   1  29
TORSDOF 11
ENDMDL
MODEL 2
REMARK VINA RESULT:      -5.9      1.022      5.838
REMARK  11 active torsions:
REMARK  status: ('A' for Active; 'I' for Inactive)
REMARK    1  A    between atoms: C_2  and  N_1 
REMARK    2  A    between atoms: C_4  and  C_2 
REMARK    3  A    between atoms: C_5  and  C_2 
REMARK    4  A    between atoms: C_3  and  N_6 
REMARK    5  A    between atoms: N_15  and  C_3 
REMARK    6  A    between atoms: N_6  and  C_4 
REMARK    7  A    between atoms: C_16  and  N_7 
REMARK    8  A    between atoms: C_20  and  N_15 
REMARK    9  A    between atoms: C_19  and  C_16 
REMARK   10  A    between atoms: C_23  and  C_20 
REMARK   11  A    between atoms: C_22  and  C_23 
ROOT
ATOM      1  C   UNL d   1      52.584  34.176  53.466  0.00  0.00     0.088 C 
ENDROOT
BRANCH   1   2
ATOM      2  N   UNL d   1      51.824  34.152  53.146  0.00  0.00    -0.300 N 
ATOM      3  C   UNL d   1      51.686  34.463  52.393  0.00  0.00     0.100 A 
ATOM      4  C   UNL d   1      50.926  34.439  52.073  0.00  0.00     0.100 A 
ATOM      5  N   UNL d   1      50.304  34.108  52.499  0.00  0.00    -0.300 N 
ATOM      6  C   UNL d   1      50.444  33.798  53.249  0.00  0.00     0.100 A 
ATOM      7  C   UNL d   1      51.204  33.822  53.569  0.00  0.00     0.100 A 
BRANCH   5   8
ATOM      8  C   UNL d   1      49.546  34.086  52.176  0.00  0.00     0.080 C 
BRANCH   8   9
ATOM      9  C   UNL d   1      49.041  34.738  52.266  0.00  0.00     0.018 A 
ATOM     10  C   UNL d   1      48.937  35.078  52.997  0.00  0.00     0.002 A 
ATOM     11  C   UNL d   1      48.435  35.728  53.090  0.00  0.00     0.000 A 
ATOM     12  C   UNL d   1      48.046  36.023  52.431  0.00  0.00     0.000 A 
ATOM     13  C   UNL d   1      48.148  35.682  51.682  0.00  0.00     0.000 A 
ATOM     14  C   UNL d   1      48.654  35.032  51.610  0.00  0.00     0.002 A 
ENDBRANCH   8   9
ENDBRANCH   5   8
ENDBRANCH   1   2
BRANCH   1  15
ATOM     15  C   UNL d   1      53.142  33.611  53.259  0.00  0.00     0.100 C 
ATOM     16  C   UNL d   1      53.582  33.710  52.580  0.00  0.00     0.022 C 
BRANCH  15  17
ATOM     17  N   UNL d   1      53.247  32.960  53.737  0.00  0.00    -0.216 NA
BRANCH  17  18
ATOM     18  C   UNL d   1      53.740  32.342  53.491  0.00  0.00     0.221 C 
ATOM     19  S   UNL d   1      54.551  32.474  53.436  0.00  0.00    -0.037 SA
BRANCH  18  20
ATOM     20  N   UNL d   1      53.422  31.614  53.309  0.00  0.00    -0.216 NA
BRANCH  20  21
ATOM     21  C   UNL d   1      53.581  30.956  53.771  0.00  0.00     0.102 C 
BRANCH  21  22
ATOM     22  C   UNL d   1      53.191  30.244  53.605  0.00  0.00     0.021 C 
BRANCH  22  23
ATOM     23  C   UNL d   1      53.285  29.612  54.111  0.00  0.00     0.002 A 
ATOM     24  C   UNL d   1      53.657  28.926  53.840  0.00  0.00     0.000 A 
ATOM     25  C   UNL d   1      53.754  28.284  54.350  0.00  0.00     0.000 A 
ATOM     26  C   UNL d   1      53.483  28.326  55.120  0.00  0.00     0.000 A 
ATOM     27  C   UNL d   1      53.109  29.018  55.387  0.00  0.00     0.000 A 
ATOM     28  C   UNL d   1      53.015  29.650  54.882  0.00  0.00     0.000 A 
ENDBRANCH  22  23
ENDBRANCH  21  22
ENDBRANCH  20  21
ENDBRANCH  18  20
ENDBRANCH  17  18
ENDBRANCH  15  17
ENDBRANCH   1  15
BRANCH   1  29
ATOM     29  C   UNL d   1      52.783  34.775  53.998  0.00  0.00     0.047 A 
ATOM     30  S   UNL d   1      52.672  34.755  54.817  0.00  0.00    -0.085 SA
ATOM     31  C   UNL d   1      52.947  35.462  55.127  0.00  0.00     0.035 A 
ATOM     32  C   UNL d   1      53.229  35.924  54.504  0.00  0.00     0.007 A 
ATOM     33  C   UNL d   1      53.127  35.496  53.805  0.00  0.00     0.009 A 
ENDBRANCH   1  29
TORSDOF 11
ENDMDL
MODEL 3
REMARK VINA RESULT:      -5.7      1.239      2.050
REMARK  11 active torsions:
REMARK  status: ('A' for Active; 'I' for Inactive)
REMARK    1  A    between atoms: C_2  and  N_1 
REMARK    2  A    between atoms: C_4  and  C_2 
REMARK    3  A    between atoms: C_5  and  C_2 
REMARK    4  A    between atoms: C_3  and  N_6 
REMARK    5  A    between atoms: N_15  and  C_3 
REMARK    6  A    between atoms: N_6  and  C_4 
REMARK    7  A    between atoms: C_16  and  N_7 
REMARK    8  A    between atoms: C_20  and  N_15 
REMARK    9  A    between atoms: C_19  and  C_16 
REMARK   10  A    between atoms: C_23  and  C_20 
REMARK   11  A    between atoms: C_22  and  C_23 
ROOT
ATOM      1  C   UNL d   1      53.657  33.062  53.858  0.00  0.00     0.088 C 
ENDROOT
BRANCH   1   2
ATOM      2  N   UNL d   1      53.496  32.258  53.765  0.00  0.00    -0.300 N 
ATOM      3  C   UNL d   1      54.011  31.785  53.326  0.00  0.00     0.100 A 
ATOM      4  C   UNL d   1      53.850  30.981  53.233  0.00  0.00     0.100 A 
ATOM      5  N   UNL d   1      53.180  30.648  53.576  0.00  0.00    -0.300 N 
ATOM      6  C   UNL d   1      52.668  31.121  54.013  0.00  0.00     0.100 A 
ATOM      7  C   UNL d   1      52.830  31.925  54.106  0.00  0.00     0.100 A 
BRANCH   5   8
ATOM      8  C   UNL d   1      53.022  29.844  53.481  0.00  0.00     0.080 C 
BRANCH   8   9
ATOM      9  C   UNL d   1      53.228  29.311  54.082  0.00  0.00     0.018 A 
ATOM     10  C   UNL d   1      52.874  29.360  54.812  0.00  0.00     0.002 A 
ATOM     11  C   UNL d   1      53.077  28.830  55.413  0.00  0.00     0.000 A 
ATOM     12  C   UNL d   1      53.641  28.256  55.259  0.00  0.00     0.000 A 
ATOM     13  C   UNL d   1      54.007  28.199  54.517  0.00  0.00     0.000 A 
ATOM     14  C   UNL d   1      53.790  28.739  53.928  0.00  0.00     0.002 A 
ENDBRANCH   8   9
ENDBRANCH   5   8
ENDBRANCH   1   2
BRANCH   1  15
ATOM     15  C   UNL d   1      53.283  33.620  53.388  0.00  0.00     0.100 C 
ATOM     16  C   UNL d   1      53.659  33.905  52.723  0.00  0.00     0.022 C 
BRANCH  15  17
ATOM     17  N   UNL d   1      52.539  33.881  53.594  0.00  0.00    -0.216 NA
BRANCH  17  18
ATOM     18  C   UNL d   1      52.143  34.427  53.112  0.00  0.00     0.221 C 
ATOM     19  S   UNL d   1      52.420  35.201  53.072  0.00  0.00    -0.037 SA
BRANCH  18  20
ATOM     20  N   UNL d   1      51.490  34.193  52.684  0.00  0.00    -0.216 NA
BRANCH  20  21
ATOM     21  C   UNL d   1      50.775  34.587  52.759  0.00  0.00     0.102 C 
BRANCH  21  22
ATOM     22  C   UNL d   1      50.088  34.234  52.457  0.00  0.00     0.021 C 
BRANCH  22  23
ATOM     23  C   UNL d   1      49.421  34.690  52.352  0.00  0.00     0.002 A 
ATOM     24  C   UNL d   1      49.019  34.663  51.631  0.00  0.00     0.000 A 
ATOM     25  C   UNL d   1      48.342  35.123  51.522  0.00  0.00     0.000 A 
ATOM     26  C   UNL d   1      48.070  35.604  52.124  0.00  0.00     0.000 A 
ATOM     27  C   UNL d   1      48.478  35.628  52.848  0.00  0.00     0.000 A 
ATOM     28  C   UNL d   1      49.146  35.172  52.953  0.00  0.00     0.000 A 
ENDBRANCH  22  23
ENDBRANCH  21  22
ENDBRANCH  20  21
ENDBRANCH  18  20
ENDBRANCH  17  18
ENDBRANCH  15  17
ENDBRANCH   1  15
BRANCH   1  29
ATOM     29  C   UNL d   1      54.201  33.305  54.429  0.00  0.00     0.047 A 
ATOM     30  S   UNL d   1      54.043  33.430  55.231  0.00  0.00    -0.085 SA
ATOM     31  C   UNL d   1      54.739  33.666  55.593  0.00  0.00     0.035 A 
ATOM     32  C   UNL d   1      55.333  33.689  55.020  0.00  0.00     0.007 A 
ATOM     33  C   UNL d   1      54.998  33.465  54.299  0.00  0.00     0.009 A 
ENDBRANCH   1  29
TORSDOF 11
ENDMDL
