MODEL 1
REMARK VINA RESULT:      18.3      0.000      0.000
REMARK  2 active torsions:
REMARK  status: ('A' for Active; 'I' for Inactive)
REMARK       I    between atoms: N_2  and  C_1 
REMARK    1  A    between atoms: C_6  and  C_1 
REMARK    2  A    between atoms: C_4  and  N_2 
ROOT
ATOM      1  C   UNL d   1     -51.822  25.616  33.342  0.00  0.00     0.279 C 
ATOM      2  N   UNL d   1     -51.019  25.445  33.313  0.00  0.00    -0.204 NA
ATOM      3  O   UNL d   1     -52.076  26.407  33.374  0.00  0.00    -0.265 OA
ENDROOT
BRANCH   1   4
ATOM      4  C   UNL d   1     -52.379  25.007  33.339  0.00  0.00     0.058 A 
ATOM      5  C   UNL d   1     -52.142  24.231  33.365  0.00  0.00     0.006 A 
ATOM      6  C   UNL d   1     -52.699  23.622  33.363  0.00  0.00     0.012 A 
ATOM      7  C   UNL d   1     -53.499  23.783  33.333  0.00  0.00     0.058 A 
ATOM      8  C   UNL d   1     -53.753  24.587  33.306  0.00  0.00     0.012 A 
ATOM      9 CL   UNL d   1     -54.041  23.191  33.330  0.00  0.00    -0.082 Cl
ATOM     10  C   UNL d   1     -53.197  25.196  33.308  0.00  0.00     0.006 A 
ENDBRANCH   1   4
BRANCH   2  11
ATOM     11  C   UNL d   1     -50.465  26.065  33.317  0.00  0.00     0.130 A 
ATOM     12  C   UNL d   1     -49.650  25.996  33.320  0.00  0.00     0.243 A 
ATOM     13  S   UNL d   1     -49.327  26.753  33.323  0.00  0.00    -0.044 SA
ATOM     14  O   UNL d   1     -49.226  25.280  33.322  0.00  0.00    -0.278 OA
ATOM     15  C   UNL d   1     -49.952  27.297  33.320  0.00  0.00     0.040 A 
ATOM     16  C   UNL d   1     -50.658  26.874  33.317  0.00  0.00     0.030 A 
ENDBRANCH   2  11
TORSDOF 2
ENDMDL
