MODEL 1
REMARK VINA RESULT:      17.3      0.000      0.000
REMARK  2 active torsions:
REMARK  status: ('A' for Active; 'I' for Inactive)
REMARK    1  A    between atoms: C_7  and  C_2 
REMARK    2  A    between atoms: C_5  and  C_7 
ROOT
ATOM      1  C   UNL d   1     -51.395  25.778  33.328  0.00  0.00     0.021 A 
ATOM      2  N   UNL d   1     -52.083  26.910  33.341  0.00  0.00    -0.244 NA
ATOM      3  C   UNL d   1     -52.153  26.091  33.308  0.00  0.00     0.099 A 
ATOM      4  C   UNL d   1     -50.861  26.396  33.373  0.00  0.00     0.019 A 
ATOM      5  C   UNL d   1     -51.287  27.098  33.381  0.00  0.00     0.081 A 
ATOM      6  C   UNL d   1     -50.033  26.413  33.409  0.00  0.00     0.002 A 
ATOM      7  C   UNL d   1     -50.890  27.823  33.425  0.00  0.00     0.019 A 
ATOM      8  C   UNL d   1     -49.632  27.132  33.453  0.00  0.00     0.000 A 
ATOM      9  C   UNL d   1     -50.061  27.840  33.461  0.00  0.00     0.002 A 
ENDROOT
BRANCH   1  10
ATOM     10  C   UNL d   1     -51.211  24.969  33.306  0.00  0.00     0.011 C 
BRANCH  10  11
ATOM     11  C   UNL d   1     -51.816  24.409  33.339  0.00  0.00     0.062 A 
ATOM     12  C   UNL d   1     -51.629  23.608  33.395  0.00  0.00     0.145 A 
ATOM     13  N   UNL d   1     -52.340  23.189  33.418  0.00  0.00    -0.191 NA
ATOM     14  S   UNL d   1     -50.861  23.281  33.424  0.00  0.00    -0.057 SA
ATOM     15  C   UNL d   1     -52.955  23.716  33.377  0.00  0.00     0.311 A 
ATOM     16  S   UNL d   1     -52.635  24.475  33.328  0.00  0.00    -0.023 SA
ATOM     17  O   UNL d   1     -53.764  23.515  33.383  0.00  0.00    -0.258 OA
ENDBRANCH  10  11
ENDBRANCH   1  10
TORSDOF 2
ENDMDL
