MODEL 1
REMARK VINA RESULT:      -4.9      0.000      0.000
REMARK  5 active torsions:
REMARK  status: ('A' for Active; 'I' for Inactive)
REMARK    1  A    between atoms: C_3  and  C_1 
REMARK    2  A    between atoms: C_7  and  C_2 
REMARK       I    between atoms: N_5  and  C_3 
REMARK    3  A    between atoms: C_6  and  N_5 
REMARK    4  A    between atoms: N_10  and  C_6 
REMARK    5  A    between atoms: C_14  and  N_10 
ROOT
ATOM      1  C   UNL d   1      59.738  -0.674  29.074  0.00  0.00     0.103 A 
ATOM      2  C   UNL d   1      60.047  -1.411  28.851  0.00  0.00     0.116 A 
ATOM      3  N   UNL d   1      60.835  -1.296  28.636  0.00  0.00    -0.126 NA
ATOM      4  O   UNL d   1      61.015  -0.493  28.725  0.00  0.00    -0.211 OA
ATOM      5  C   UNL d   1      60.340  -0.123  28.992  0.00  0.00     0.131 A 
ATOM      6  C   UNL d   1      60.271   0.680  29.155  0.00  0.00     0.029 C 
ENDROOT
BRANCH   1   7
ATOM      7  C   UNL d   1      58.970  -0.545  29.326  0.00  0.00     0.285 C 
ATOM      8  N   UNL d   1      58.795  -0.364  30.106  0.00  0.00    -0.179 NA
ATOM      9  O   UNL d   1      58.351  -0.598  28.777  0.00  0.00    -0.265 OA
BRANCH   8  10
ATOM     10  C   UNL d   1      58.026  -0.234  30.359  0.00  0.00     0.223 C 
ATOM     11  S   UNL d   1      57.640   0.463  30.132  0.00  0.00    -0.037 SA
BRANCH  10  12
ATOM     12  N   UNL d   1      57.632  -0.782  30.832  0.00  0.00    -0.217 NA
BRANCH  12  13
ATOM     13  C   UNL d   1      57.217  -0.526  31.486  0.00  0.00     0.084 A 
ATOM     14  C   UNL d   1      56.630  -1.015  31.813  0.00  0.00     0.019 A 
ATOM     15  C   UNL d   1      56.211  -0.756  32.473  0.00  0.00     0.002 A 
ATOM     16  C   UNL d   1      56.374  -0.015  32.809  0.00  0.00     0.000 A 
ATOM     17  C   UNL d   1      56.965   0.472  32.476  0.00  0.00     0.002 A 
ATOM     18  C   UNL d   1      55.951   0.246  33.474  0.00  0.00     0.000 C 
ATOM     19  C   UNL d   1      57.386   0.212  31.812  0.00  0.00     0.019 A 
ENDBRANCH  12  13
ENDBRANCH  10  12
ENDBRANCH   8  10
ENDBRANCH   1   7
BRANCH   2  20
ATOM     20  C   UNL d   1      59.640  -2.128  28.846  0.00  0.00     0.031 A 
ATOM     21  C   UNL d   1      59.961  -2.786  29.221  0.00  0.00     0.059 A 
ATOM     22 CL   UNL d   1      60.688  -2.726  29.601  0.00  0.00    -0.082 Cl
ATOM     23  C   UNL d   1      59.554  -3.496  29.212  0.00  0.00     0.011 A 
ATOM     24  C   UNL d   1      58.820  -3.558  28.828  0.00  0.00     0.001 A 
ATOM     25  C   UNL d   1      58.505  -2.894  28.455  0.00  0.00     0.000 A 
ATOM     26  C   UNL d   1      58.909  -2.169  28.457  0.00  0.00     0.002 A 
ENDBRANCH   2  20
TORSDOF 5
ENDMDL
MODEL 2
REMARK VINA RESULT:      -3.0      1.055      2.072
REMARK  5 active torsions:
REMARK  status: ('A' for Active; 'I' for Inactive)
REMARK    1  A    between atoms: C_3  and  C_1 
REMARK    2  A    between atoms: C_7  and  C_2 
REMARK       I    between atoms: N_5  and  C_3 
REMARK    3  A    between atoms: C_6  and  N_5 
REMARK    4  A    between atoms: N_10  and  C_6 
REMARK    5  A    between atoms: C_14  and  N_10 
ROOT
ATOM      1  C   UNL d   1      58.757  -1.463  29.360  0.00  0.00     0.103 A 
ATOM      2  C   UNL d   1      59.510  -1.396  29.020  0.00  0.00     0.116 A 
ATOM      3  N   UNL d   1      59.735  -2.148  28.763  0.00  0.00    -0.126 NA
ATOM      4  O   UNL d   1      59.126  -2.678  28.943  0.00  0.00    -0.211 OA
ATOM      5  C   UNL d   1      58.534  -2.251  29.306  0.00  0.00     0.131 A 
ATOM      6  C   UNL d   1      57.823  -2.561  29.577  0.00  0.00     0.029 C 
ENDROOT
BRANCH   1   7
ATOM      7  C   UNL d   1      58.332  -0.842  29.684  0.00  0.00     0.285 C 
ATOM      8  N   UNL d   1      58.124  -0.827  30.476  0.00  0.00    -0.179 NA
ATOM      9  O   UNL d   1      58.106  -0.211  29.196  0.00  0.00    -0.265 OA
BRANCH   8  10
ATOM     10  C   UNL d   1      57.698  -0.206  30.800  0.00  0.00     0.223 C 
ATOM     11  S   UNL d   1      57.188   0.230  30.314  0.00  0.00    -0.037 SA
BRANCH  10  12
ATOM     12  N   UNL d   1      57.769  -0.008  31.597  0.00  0.00    -0.217 NA
BRANCH  12  13
ATOM     13  C   UNL d   1      57.105   0.004  32.070  0.00  0.00     0.084 A 
ATOM     14  C   UNL d   1      56.937  -0.652  32.553  0.00  0.00     0.019 A 
ATOM     15  C   UNL d   1      56.266  -0.639  33.031  0.00  0.00     0.002 A 
ATOM     16  C   UNL d   1      55.763   0.020  33.030  0.00  0.00     0.000 A 
ATOM     17  C   UNL d   1      55.936   0.676  32.543  0.00  0.00     0.002 A 
ATOM     18  C   UNL d   1      55.087   0.032  33.512  0.00  0.00     0.000 C 
ATOM     19  C   UNL d   1      56.611   0.663  32.062  0.00  0.00     0.019 A 
ENDBRANCH  12  13
ENDBRANCH  10  12
ENDBRANCH   8  10
ENDBRANCH   1   7
BRANCH   2  20
ATOM     20  C   UNL d   1      59.954  -0.705  28.950  0.00  0.00     0.031 A 
ATOM     21  C   UNL d   1      60.696  -0.655  29.302  0.00  0.00     0.059 A 
ATOM     22 CL   UNL d   1      60.993  -1.296  29.723  0.00  0.00    -0.082 Cl
ATOM     23  C   UNL d   1      61.133   0.033  29.230  0.00  0.00     0.011 A 
ATOM     24  C   UNL d   1      60.834   0.682  28.805  0.00  0.00     0.001 A 
ATOM     25  C   UNL d   1      60.090   0.623  28.455  0.00  0.00     0.000 A 
ATOM     26  C   UNL d   1      59.638  -0.070  28.522  0.00  0.00     0.002 A 
ENDBRANCH   2  20
TORSDOF 5
ENDMDL
