MODEL 1
REMARK VINA RESULT:      52.2      0.000      0.000
REMARK  8 active torsions:
REMARK  status: ('A' for Active; 'I' for Inactive)
REMARK    1  A    between atoms: N_6  and  C_1 
REMARK    2  A    between atoms: N_2  and  C_3 
REMARK       I    between atoms: C_4  and  N_2 
REMARK    3  A    between atoms: C_3  and  N_6 
REMARK    4  A    between atoms: C_10  and  C_4 
REMARK    5  A    between atoms: C_9  and  C_7 
REMARK    6  A    between atoms: C_12  and  C_9 
REMARK    7  A    between atoms: O_17  and  C_12 
REMARK    8  A    between atoms: C_21  and  O_17 
ROOT
ATOM      1  C   UNL d   1     -47.574  30.310  35.336  0.00  0.00     0.225 C 
ATOM      2  S   UNL d   1     -47.530  30.493  36.140  0.00  0.00    -0.037 SA
ENDROOT
BRANCH   1   3
ATOM      3  N   UNL d   1     -47.821  30.905  34.769  0.00  0.00    -0.179 NA
ATOM      4  C   UNL d   1     -47.524  31.685  34.843  0.00  0.00     0.281 C 
ATOM      5  O   UNL d   1     -46.983  31.873  35.478  0.00  0.00    -0.265 OA
BRANCH   4   6
ATOM      6  C   UNL d   1     -47.732  32.277  34.327  0.00  0.00     0.058 A 
ATOM      7  C   UNL d   1     -47.181  32.692  33.910  0.00  0.00     0.005 A 
ATOM      8  C   UNL d   1     -46.384  32.512  34.006  0.00  0.00     0.000 C 
ATOM      9  C   UNL d   1     -47.412  33.281  33.399  0.00  0.00     0.000 A 
ATOM     10  C   UNL d   1     -48.222  33.458  33.306  0.00  0.00     0.000 A 
ATOM     11  C   UNL d   1     -48.813  33.048  33.722  0.00  0.00     0.000 A 
ATOM     12  C   UNL d   1     -48.575  32.440  34.249  0.00  0.00     0.005 A 
ENDBRANCH   4   6
ENDBRANCH   1   3
BRANCH   1  13
ATOM     13  N   UNL d   1     -47.388  29.562  35.044  0.00  0.00    -0.192 NA
BRANCH  13  14
ATOM     14  C   UNL d   1     -47.980  28.974  35.078  0.00  0.00     0.196 A 
ATOM     15  N   UNL d   1     -48.630  28.818  34.570  0.00  0.00    -0.220 NA
ATOM     16  C   UNL d   1     -49.032  28.177  34.863  0.00  0.00     0.095 A 
ATOM     17  C   UNL d   1     -48.647  27.909  35.567  0.00  0.00     0.058 A 
ATOM     18  S   UNL d   1     -48.001  28.413  35.682  0.00  0.00    -0.046 SA
BRANCH  16  19
ATOM     19  C   UNL d   1     -49.708  27.826  34.546  0.00  0.00     0.088 C 
BRANCH  19  20
ATOM     20  C   UNL d   1     -49.667  27.291  33.934  0.00  0.00     0.302 C 
ATOM     21  O   UNL d   1     -48.968  26.913  33.740  0.00  0.00    -0.259 OA
BRANCH  20  22
ATOM     22  O   UNL d   1     -50.347  27.116  33.487  0.00  0.00    -0.271 OA
BRANCH  22  23
ATOM     23  C   UNL d   1     -50.638  26.301  33.513  0.00  0.00     0.126 C 
ATOM     24  C   UNL d   1     -51.307  26.179  33.307  0.00  0.00     0.029 C 
ENDBRANCH  22  23
ENDBRANCH  20  22
ENDBRANCH  19  20
ENDBRANCH  16  19
ENDBRANCH  13  14
ENDBRANCH   1  13
TORSDOF 8
ENDMDL
MODEL 2
REMARK VINA RESULT:      52.7      0.959      5.576
REMARK  8 active torsions:
REMARK  status: ('A' for Active; 'I' for Inactive)
REMARK    1  A    between atoms: N_6  and  C_1 
REMARK    2  A    between atoms: N_2  and  C_3 
REMARK       I    between atoms: C_4  and  N_2 
REMARK    3  A    between atoms: C_3  and  N_6 
REMARK    4  A    between atoms: C_10  and  C_4 
REMARK    5  A    between atoms: C_9  and  C_7 
REMARK    6  A    between atoms: C_12  and  C_9 
REMARK    7  A    between atoms: O_17  and  C_12 
REMARK    8  A    between atoms: C_21  and  O_17 
ROOT
ATOM      1  C   UNL d   1     -48.933  27.919  34.712  0.00  0.00     0.225 C 
ATOM      2  S   UNL d   1     -49.486  28.423  35.061  0.00  0.00    -0.037 SA
ENDROOT
BRANCH   1   3
ATOM      3  N   UNL d   1     -49.150  27.116  34.503  0.00  0.00    -0.179 NA
ATOM      4  C   UNL d   1     -49.790  26.991  33.976  0.00  0.00     0.281 C 
ATOM      5  O   UNL d   1     -50.211  27.663  33.657  0.00  0.00    -0.265 OA
BRANCH   4   6
ATOM      6  C   UNL d   1     -50.027  26.247  33.753  0.00  0.00     0.058 A 
ATOM      7  C   UNL d   1     -50.794  26.083  33.566  0.00  0.00     0.005 A 
ATOM      8  C   UNL d   1     -51.355  26.685  33.601  0.00  0.00     0.000 C 
ATOM      9  C   UNL d   1     -51.010  25.331  33.346  0.00  0.00     0.000 A 
ATOM     10  C   UNL d   1     -50.437  24.725  33.312  0.00  0.00     0.000 A 
ATOM     11  C   UNL d   1     -49.639  24.864  33.499  0.00  0.00     0.000 A 
ATOM     12  C   UNL d   1     -49.416  25.640  33.726  0.00  0.00     0.005 A 
ENDBRANCH   4   6
ENDBRANCH   1   3
BRANCH   1  13
ATOM     13  N   UNL d   1     -48.161  28.158  34.550  0.00  0.00    -0.192 NA
BRANCH  13  14
ATOM     14  C   UNL d   1     -47.891  28.864  34.905  0.00  0.00     0.196 A 
ATOM     15  N   UNL d   1     -47.582  29.567  34.568  0.00  0.00    -0.220 NA
ATOM     16  C   UNL d   1     -47.406  30.081  35.170  0.00  0.00     0.095 A 
ATOM     17  C   UNL d   1     -47.599  29.716  35.909  0.00  0.00     0.058 A 
ATOM     18  S   UNL d   1     -47.897  28.967  35.724  0.00  0.00    -0.046 SA
BRANCH  16  19
ATOM     19  C   UNL d   1     -47.089  30.840  35.100  0.00  0.00     0.088 C 
BRANCH  19  20
ATOM     20  C   UNL d   1     -47.543  31.476  34.871  0.00  0.00     0.302 C 
ATOM     21  O   UNL d   1     -48.140  31.770  35.347  0.00  0.00    -0.259 OA
BRANCH  20  22
ATOM     22  O   UNL d   1     -47.406  31.844  34.138  0.00  0.00    -0.271 OA
BRANCH  22  23
ATOM     23  C   UNL d   1     -47.867  32.554  33.960  0.00  0.00     0.126 C 
ATOM     24  C   UNL d   1     -47.514  33.154  33.817  0.00  0.00     0.029 C 
ENDBRANCH  22  23
ENDBRANCH  20  22
ENDBRANCH  19  20
ENDBRANCH  16  19
ENDBRANCH  13  14
ENDBRANCH   1  13
TORSDOF 8
ENDMDL
MODEL 3
REMARK VINA RESULT:      53.8      1.578      2.501
REMARK  8 active torsions:
REMARK  status: ('A' for Active; 'I' for Inactive)
REMARK    1  A    between atoms: N_6  and  C_1 
REMARK    2  A    between atoms: N_2  and  C_3 
REMARK       I    between atoms: C_4  and  N_2 
REMARK    3  A    between atoms: C_3  and  N_6 
REMARK    4  A    between atoms: C_10  and  C_4 
REMARK    5  A    between atoms: C_9  and  C_7 
REMARK    6  A    between atoms: C_12  and  C_9 
REMARK    7  A    between atoms: O_17  and  C_12 
REMARK    8  A    between atoms: C_21  and  O_17 
ROOT
ATOM      1  C   UNL d   1     -48.707  28.269  35.328  0.00  0.00     0.225 C 
ATOM      2  S   UNL d   1     -49.223  28.273  35.973  0.00  0.00    -0.037 SA
ENDROOT
BRANCH   1   3
ATOM      3  N   UNL d   1     -48.362  29.000  35.044  0.00  0.00    -0.179 NA
ATOM      4  C   UNL d   1     -47.949  29.492  35.583  0.00  0.00     0.281 C 
ATOM      5  O   UNL d   1     -47.880  29.256  36.402  0.00  0.00    -0.265 OA
BRANCH   4   6
ATOM      6  C   UNL d   1     -47.608  30.193  35.355  0.00  0.00     0.058 A 
ATOM      7  C   UNL d   1     -46.953  30.487  35.721  0.00  0.00     0.005 A 
ATOM      8  C   UNL d   1     -46.617  30.067  36.344  0.00  0.00     0.000 C 
ATOM      9  C   UNL d   1     -46.627  31.190  35.476  0.00  0.00     0.000 A 
ATOM     10  C   UNL d   1     -46.972  31.611  34.843  0.00  0.00     0.000 A 
ATOM     11  C   UNL d   1     -47.647  31.334  34.446  0.00  0.00     0.000 A 
ATOM     12  C   UNL d   1     -47.983  30.608  34.699  0.00  0.00     0.005 A 
ENDBRANCH   4   6
ENDBRANCH   1   3
BRANCH   1  13
ATOM     13  N   UNL d   1     -48.503  27.574  34.934  0.00  0.00    -0.192 NA
BRANCH  13  14
ATOM     14  C   UNL d   1     -49.072  27.236  34.424  0.00  0.00     0.196 A 
ATOM     15  N   UNL d   1     -49.193  26.441  34.185  0.00  0.00    -0.220 NA
ATOM     16  C   UNL d   1     -49.829  26.422  33.681  0.00  0.00     0.095 A 
ATOM     17  C   UNL d   1     -50.129  27.208  33.587  0.00  0.00     0.058 A 
ATOM     18  S   UNL d   1     -49.649  27.694  34.053  0.00  0.00    -0.046 SA
BRANCH  16  19
ATOM     19  C   UNL d   1     -50.149  25.759  33.308  0.00  0.00     0.088 C 
BRANCH  19  20
ATOM     20  C   UNL d   1     -50.930  25.548  33.403  0.00  0.00     0.302 C 
ATOM     21  O   UNL d   1     -51.529  26.106  33.393  0.00  0.00    -0.259 OA
BRANCH  20  22
ATOM     22  O   UNL d   1     -51.136  24.750  33.512  0.00  0.00    -0.271 OA
BRANCH  22  23
ATOM     23  C   UNL d   1     -51.955  24.527  33.346  0.00  0.00     0.126 C 
ATOM     24  C   UNL d   1     -52.312  24.171  33.847  0.00  0.00     0.029 C 
ENDBRANCH  22  23
ENDBRANCH  20  22
ENDBRANCH  19  20
ENDBRANCH  16  19
ENDBRANCH  13  14
ENDBRANCH   1  13
TORSDOF 8
ENDMDL
