MODEL 1
REMARK VINA RESULT:      -2.7      0.000      0.000
REMARK  3 active torsions:
REMARK  status: ('A' for Active; 'I' for Inactive)
REMARK    1  A    between atoms: S_11  and  C_7 
REMARK    2  A    between atoms: C_12  and  S_11 
REMARK    3  A    between atoms: C_14  and  C_12 
ROOT
ATOM      1  N   UNL d   1      32.878  22.233 -20.309  0.00  0.00    -0.167 N 
ATOM      2  C   UNL d   1      32.521  22.623 -20.936  0.00  0.00     0.220 A 
ATOM      3  C   UNL d   1      32.885  22.566 -19.550  0.00  0.00     0.301 A 
ATOM      4  S   UNL d   1      32.609  22.149 -21.607  0.00  0.00    -0.019 SA
ATOM      5  N   UNL d   1      33.186  21.525 -20.580  0.00  0.00    -0.147 NA
ATOM      6  N   UNL d   1      32.163  23.355 -20.817  0.00  0.00    -0.121 NA
ATOM      7  C   UNL d   1      33.019  21.473 -21.385  0.00  0.00     0.163 A 
ATOM      8  N   UNL d   1      32.163  23.697 -20.070  0.00  0.00    -0.141 NA
ATOM      9  C   UNL d   1      32.522  23.304 -19.440  0.00  0.00     0.161 A 
ATOM     10  O   UNL d   1      33.240  22.178 -18.925  0.00  0.00    -0.263 OA
ATOM     11  C   UNL d   1      32.523  23.644 -18.690  0.00  0.00     0.028 C 
ENDROOT
BRANCH   7  12
ATOM     12  S   UNL d   1      33.228  20.850 -21.884  0.00  0.00    -0.059 SA
BRANCH  12  13
ATOM     13  C   UNL d   1      32.691  20.252 -22.048  0.00  0.00     0.037 C 
BRANCH  13  14
ATOM     14  C   UNL d   1      32.866  19.694 -22.634  0.00  0.00     0.006 A 
ATOM     15  C   UNL d   1      32.841  18.889 -22.455  0.00  0.00     0.001 A 
ATOM     16  C   UNL d   1      33.013  18.329 -23.028  0.00  0.00     0.000 A 
ATOM     17  C   UNL d   1      32.987  17.532 -22.850  0.00  0.00     0.000 C 
ATOM     18  C   UNL d   1      33.214  18.570 -23.793  0.00  0.00     0.000 A 
ATOM     19  C   UNL d   1      33.241  19.374 -23.976  0.00  0.00     0.000 A 
ATOM     20  C   UNL d   1      33.068  19.936 -23.399  0.00  0.00     0.001 A 
ENDBRANCH  13  14
ENDBRANCH  12  13
ENDBRANCH   7  12
TORSDOF 3
ENDMDL
MODEL 2
REMARK VINA RESULT:      -2.4      5.002      6.510
REMARK  3 active torsions:
REMARK  status: ('A' for Active; 'I' for Inactive)
REMARK    1  A    between atoms: S_11  and  C_7 
REMARK    2  A    between atoms: C_12  and  S_11 
REMARK    3  A    between atoms: C_14  and  C_12 
ROOT
ATOM      1  N   UNL d   1      29.135  16.586 -23.958  0.00  0.00    -0.167 N 
ATOM      2  C   UNL d   1      29.252  16.293 -24.715  0.00  0.00     0.220 A 
ATOM      3  C   UNL d   1      28.503  16.319 -23.493  0.00  0.00     0.301 A 
ATOM      4  S   UNL d   1      29.920  16.667 -25.027  0.00  0.00    -0.019 SA
ATOM      5  N   UNL d   1      29.718  17.136 -23.795  0.00  0.00    -0.147 NA
ATOM      6  N   UNL d   1      28.741  15.726 -25.023  0.00  0.00    -0.121 NA
ATOM      7  C   UNL d   1      30.205  17.186 -24.457  0.00  0.00     0.163 A 
ATOM      8  N   UNL d   1      28.110  15.452 -24.573  0.00  0.00    -0.141 NA
ATOM      9  C   UNL d   1      27.992  15.747 -23.812  0.00  0.00     0.161 A 
ATOM     10  O   UNL d   1      28.385  16.610 -22.739  0.00  0.00    -0.263 OA
ATOM     11  C   UNL d   1      27.362  15.476 -23.357  0.00  0.00     0.028 C 
ENDROOT
BRANCH   7  12
ATOM     12  S   UNL d   1      30.866  17.673 -24.538  0.00  0.00    -0.059 SA
BRANCH  12  13
ATOM     13  C   UNL d   1      31.551  17.518 -24.114  0.00  0.00     0.037 C 
BRANCH  13  14
ATOM     14  C   UNL d   1      32.115  18.115 -24.013  0.00  0.00     0.006 A 
ATOM     15  C   UNL d   1      32.373  18.312 -23.254  0.00  0.00     0.001 A 
ATOM     16  C   UNL d   1      32.931  18.902 -23.145  0.00  0.00     0.000 A 
ATOM     17  C   UNL d   1      33.186  19.097 -22.393  0.00  0.00     0.000 C 
ATOM     18  C   UNL d   1      33.239  19.305 -23.798  0.00  0.00     0.000 A 
ATOM     19  C   UNL d   1      32.984  19.111 -24.558  0.00  0.00     0.000 A 
ATOM     20  C   UNL d   1      32.423  18.517 -24.667  0.00  0.00     0.001 A 
ENDBRANCH  13  14
ENDBRANCH  12  13
ENDBRANCH   7  12
TORSDOF 3
ENDMDL
