MODEL 1
REMARK VINA RESULT:      -9.6      0.000      0.000
REMARK  4 active torsions:
REMARK  status: ('A' for Active; 'I' for Inactive)
REMARK    1  A    between atoms: C_5  and  C_1 
REMARK    2  A    between atoms: C_4  and  C_2 
REMARK    3  A    between atoms: C_12  and  C_4 
REMARK    4  A    between atoms: C_13  and  C_5 
ROOT
ATOM      1  C   UNL d   1      53.123  33.085  53.247  0.00  0.00     0.039 A 
ATOM      2  C   UNL d   1      53.641  31.695  53.438  0.00  0.00     0.039 A 
ATOM      3  C   UNL d   1      53.249  32.290  52.943  0.00  0.00     0.196 A 
ATOM      4  C   UNL d   1      53.385  33.293  54.047  0.00  0.00     0.003 A 
ATOM      5  C   UNL d   1      53.904  31.902  54.237  0.00  0.00     0.003 A 
ATOM      6  O   UNL d   1      52.999  32.092  52.181  0.00  0.00    -0.287 OA
ATOM      7  C   UNL d   1      53.775  32.705  54.541  0.00  0.00     0.000 A 
ATOM      8  C   UNL d   1      54.025  32.903  55.303  0.00  0.00     0.000 C 
ENDROOT
BRANCH   1   9
ATOM      9  C   UNL d   1      52.750  33.657  52.780  0.00  0.00     0.005 C 
BRANCH   9  10
ATOM     10  C   UNL d   1      52.034  33.984  53.012  0.00  0.00     0.019 A 
ATOM     11  C   UNL d   1      52.025  34.721  53.380  0.00  0.00     0.099 A 
ATOM     12  N   UNL d   1      51.310  35.052  53.614  0.00  0.00    -0.242 NA
ATOM     13  C   UNL d   1      50.599  34.648  53.482  0.00  0.00     0.099 A 
ATOM     14  C   UNL d   1      50.611  33.907  53.112  0.00  0.00     0.021 A 
ATOM     15  C   UNL d   1      51.328  33.580  52.879  0.00  0.00     0.003 A 
ENDBRANCH   9  10
ENDBRANCH   1   9
BRANCH   2  16
ATOM     16  C   UNL d   1      53.766  30.931  53.154  0.00  0.00     0.005 C 
BRANCH  16  17
ATOM     17  C   UNL d   1      53.412  30.283  53.520  0.00  0.00     0.019 A 
ATOM     18  C   UNL d   1      52.638  30.078  53.327  0.00  0.00     0.099 A 
ATOM     19  N   UNL d   1      52.279  29.434  53.688  0.00  0.00    -0.242 NA
ATOM     20  C   UNL d   1      52.698  28.986  54.249  0.00  0.00     0.099 A 
ATOM     21  C   UNL d   1      53.473  29.195  54.438  0.00  0.00     0.021 A 
ATOM     22  C   UNL d   1      53.826  29.843  54.072  0.00  0.00     0.003 A 
ENDBRANCH  16  17
ENDBRANCH   2  16
TORSDOF 4
ENDMDL
MODEL 2
REMARK VINA RESULT:      -9.5      0.021      3.977
REMARK  4 active torsions:
REMARK  status: ('A' for Active; 'I' for Inactive)
REMARK    1  A    between atoms: C_5  and  C_1 
REMARK    2  A    between atoms: C_4  and  C_2 
REMARK    3  A    between atoms: C_12  and  C_4 
REMARK    4  A    between atoms: C_13  and  C_5 
ROOT
ATOM      1  C   UNL d   1      53.640  31.691  53.436  0.00  0.00     0.039 A 
ATOM      2  C   UNL d   1      53.110  33.076  53.239  0.00  0.00     0.039 A 
ATOM      3  C   UNL d   1      53.245  32.273  52.940  0.00  0.00     0.196 A 
ATOM      4  C   UNL d   1      53.903  31.906  54.234  0.00  0.00     0.003 A 
ATOM      5  C   UNL d   1      53.373  33.291  54.037  0.00  0.00     0.003 A 
ATOM      6  O   UNL d   1      52.994  32.069  52.180  0.00  0.00    -0.287 OA
ATOM      7  C   UNL d   1      53.771  32.702  54.535  0.00  0.00     0.000 A 
ATOM      8  C   UNL d   1      54.022  32.906  55.295  0.00  0.00     0.000 C 
ENDROOT
BRANCH   1   9
ATOM      9  C   UNL d   1      53.772  30.924  53.157  0.00  0.00     0.005 C 
BRANCH   9  10
ATOM     10  C   UNL d   1      53.415  30.281  53.520  0.00  0.00     0.019 A 
ATOM     11  C   UNL d   1      52.643  30.078  53.320  0.00  0.00     0.099 A 
ATOM     12  N   UNL d   1      52.283  29.433  53.682  0.00  0.00    -0.242 NA
ATOM     13  C   UNL d   1      52.694  28.987  54.246  0.00  0.00     0.099 A 
ATOM     14  C   UNL d   1      53.470  29.193  54.445  0.00  0.00     0.021 A 
ATOM     15  C   UNL d   1      53.827  29.839  54.081  0.00  0.00     0.003 A 
ENDBRANCH   9  10
ENDBRANCH   1   9
BRANCH   2  16
ATOM     16  C   UNL d   1      52.732  33.640  52.770  0.00  0.00     0.005 C 
BRANCH  16  17
ATOM     17  C   UNL d   1      52.013  33.968  53.004  0.00  0.00     0.019 A 
ATOM     18  C   UNL d   1      51.998  34.714  53.351  0.00  0.00     0.099 A 
ATOM     19  N   UNL d   1      51.285  35.046  53.586  0.00  0.00    -0.242 NA
ATOM     20  C   UNL d   1      50.575  34.628  53.473  0.00  0.00     0.099 A 
ATOM     21  C   UNL d   1      50.595  33.881  53.124  0.00  0.00     0.021 A 
ATOM     22  C   UNL d   1      51.315  33.555  52.892  0.00  0.00     0.003 A 
ENDBRANCH  16  17
ENDBRANCH   2  16
TORSDOF 4
ENDMDL
MODEL 3
REMARK VINA RESULT:      -9.1      1.165      1.822
REMARK  4 active torsions:
REMARK  status: ('A' for Active; 'I' for Inactive)
REMARK    1  A    between atoms: C_5  and  C_1 
REMARK    2  A    between atoms: C_4  and  C_2 
REMARK    3  A    between atoms: C_12  and  C_4 
REMARK    4  A    between atoms: C_13  and  C_5 
ROOT
ATOM      1  C   UNL d   1      53.282  33.239  53.341  0.00  0.00     0.039 A 
ATOM      2  C   UNL d   1      53.206  31.772  53.058  0.00  0.00     0.039 A 
ATOM      3  C   UNL d   1      53.675  32.483  53.226  0.00  0.00     0.196 A 
ATOM      4  C   UNL d   1      52.418  33.294  53.290  0.00  0.00     0.003 A 
ATOM      5  C   UNL d   1      52.342  31.827  53.006  0.00  0.00     0.003 A 
ATOM      6  O   UNL d   1      54.498  32.431  53.275  0.00  0.00    -0.287 OA
ATOM      7  C   UNL d   1      51.949  32.592  53.123  0.00  0.00     0.000 A 
ATOM      8  C   UNL d   1      51.126  32.644  53.074  0.00  0.00     0.000 C 
ENDROOT
BRANCH   1   9
ATOM      9  C   UNL d   1      53.724  33.920  53.502  0.00  0.00     0.005 C 
BRANCH   9  10
ATOM     10  C   UNL d   1      53.480  34.450  54.078  0.00  0.00     0.019 A 
ATOM     11  C   UNL d   1      53.628  34.286  54.870  0.00  0.00     0.099 A 
ATOM     12  N   UNL d   1      53.385  34.815  55.450  0.00  0.00    -0.242 NA
ATOM     13  C   UNL d   1      52.991  35.513  55.241  0.00  0.00     0.099 A 
ATOM     14  C   UNL d   1      52.843  35.676  54.443  0.00  0.00     0.021 A 
ATOM     15  C   UNL d   1      53.088  35.144  53.866  0.00  0.00     0.003 A 
ENDBRANCH   9  10
ENDBRANCH   1   9
BRANCH   2  16
ATOM     16  C   UNL d   1      53.575  31.044  52.946  0.00  0.00     0.005 C 
BRANCH  16  17
ATOM     17  C   UNL d   1      53.326  30.378  53.364  0.00  0.00     0.019 A 
ATOM     18  C   UNL d   1      52.785  29.860  53.022  0.00  0.00     0.099 A 
ATOM     19  N   UNL d   1      52.534  29.195  53.433  0.00  0.00    -0.242 NA
ATOM     20  C   UNL d   1      52.825  29.044  54.196  0.00  0.00     0.099 A 
ATOM     21  C   UNL d   1      53.367  29.566  54.534  0.00  0.00     0.021 A 
ATOM     22  C   UNL d   1      53.614  30.231  54.116  0.00  0.00     0.003 A 
ENDBRANCH  16  17
ENDBRANCH   2  16
TORSDOF 4
ENDMDL
MODEL 4
REMARK VINA RESULT:      -7.3      2.198      3.215
REMARK  4 active torsions:
REMARK  status: ('A' for Active; 'I' for Inactive)
REMARK    1  A    between atoms: C_5  and  C_1 
REMARK    2  A    between atoms: C_4  and  C_2 
REMARK    3  A    between atoms: C_12  and  C_4 
REMARK    4  A    between atoms: C_13  and  C_5 
ROOT
ATOM      1  C   UNL d   1      51.861  34.069  52.792  0.00  0.00     0.039 A 
ATOM      2  C   UNL d   1      52.621  33.790  54.050  0.00  0.00     0.039 A 
ATOM      3  C   UNL d   1      52.213  34.349  53.526  0.00  0.00     0.196 A 
ATOM      4  C   UNL d   1      51.913  33.231  52.575  0.00  0.00     0.003 A 
ATOM      5  C   UNL d   1      52.674  32.953  53.833  0.00  0.00     0.003 A 
ATOM      6  O   UNL d   1      52.163  35.147  53.733  0.00  0.00    -0.287 OA
ATOM      7  C   UNL d   1      52.317  32.674  53.092  0.00  0.00     0.000 A 
ATOM      8  C   UNL d   1      52.367  31.876  52.885  0.00  0.00     0.000 C 
ENDROOT
BRANCH   1   9
ATOM      9  C   UNL d   1      51.471  34.596  52.288  0.00  0.00     0.005 C 
BRANCH   9  10
ATOM     10  C   UNL d   1      50.671  34.506  52.128  0.00  0.00     0.019 A 
ATOM     11  C   UNL d   1      50.434  34.247  51.384  0.00  0.00     0.099 A 
ATOM     12  N   UNL d   1      49.633  34.156  51.219  0.00  0.00    -0.242 NA
ATOM     13  C   UNL d   1      49.065  34.323  51.799  0.00  0.00     0.099 A 
ATOM     14  C   UNL d   1      49.307  34.584  52.546  0.00  0.00     0.021 A 
ATOM     15  C   UNL d   1      50.109  34.674  52.707  0.00  0.00     0.003 A 
ENDBRANCH   9  10
ENDBRANCH   1   9
BRANCH   2  16
ATOM     16  C   UNL d   1      52.961  34.050  54.755  0.00  0.00     0.005 C 
BRANCH  16  17
ATOM     17  C   UNL d   1      53.762  33.927  54.906  0.00  0.00     0.019 A 
ATOM     18  C   UNL d   1      54.315  34.484  54.659  0.00  0.00     0.099 A 
ATOM     19  N   UNL d   1      55.114  34.368  54.806  0.00  0.00    -0.242 NA
ATOM     20  C   UNL d   1      55.367  33.685  55.206  0.00  0.00     0.099 A 
ATOM     21  C   UNL d   1      54.809  33.129  55.453  0.00  0.00     0.021 A 
ATOM     22  C   UNL d   1      54.009  33.254  55.301  0.00  0.00     0.003 A 
ENDBRANCH  16  17
ENDBRANCH   2  16
TORSDOF 4
ENDMDL
MODEL 5
REMARK VINA RESULT:      -7.1      2.253      4.373
REMARK  4 active torsions:
REMARK  status: ('A' for Active; 'I' for Inactive)
REMARK    1  A    between atoms: C_5  and  C_1 
REMARK    2  A    between atoms: C_4  and  C_2 
REMARK    3  A    between atoms: C_12  and  C_4 
REMARK    4  A    between atoms: C_13  and  C_5 
ROOT
ATOM      1  C   UNL d   1      52.537  33.788  53.261  0.00  0.00     0.039 A 
ATOM      2  C   UNL d   1      51.096  34.117  53.029  0.00  0.00     0.039 A 
ATOM      3  C   UNL d   1      51.920  34.372  53.121  0.00  0.00     0.196 A 
ATOM      4  C   UNL d   1      52.336  32.946  53.310  0.00  0.00     0.003 A 
ATOM      5  C   UNL d   1      50.895  33.275  53.079  0.00  0.00     0.003 A 
ATOM      6  O   UNL d   1      52.111  35.174  53.074  0.00  0.00    -0.287 OA
ATOM      7  C   UNL d   1      51.520  32.689  53.220  0.00  0.00     0.000 A 
ATOM      8  C   UNL d   1      51.329  31.887  53.267  0.00  0.00     0.000 C 
ENDROOT
BRANCH   1   9
ATOM      9  C   UNL d   1      53.324  34.025  53.350  0.00  0.00     0.005 C 
BRANCH   9  10
ATOM     10  C   UNL d   1      53.755  33.803  54.011  0.00  0.00     0.019 A 
ATOM     11  C   UNL d   1      53.663  34.220  54.715  0.00  0.00     0.099 A 
ATOM     12  N   UNL d   1      54.093  34.000  55.380  0.00  0.00    -0.242 NA
ATOM     13  C   UNL d   1      54.620  33.361  55.345  0.00  0.00     0.099 A 
ATOM     14  C   UNL d   1      54.711  32.944  54.636  0.00  0.00     0.021 A 
ATOM     15  C   UNL d   1      54.278  33.167  53.973  0.00  0.00     0.003 A 
ENDBRANCH   9  10
ENDBRANCH   1   9
BRANCH   2  16
ATOM     16  C   UNL d   1      50.499  34.670  52.895  0.00  0.00     0.005 C 
BRANCH  16  17
ATOM     17  C   UNL d   1      49.982  34.585  52.258  0.00  0.00     0.019 A 
ATOM     18  C   UNL d   1      50.283  34.470  51.501  0.00  0.00     0.099 A 
ATOM     19  N   UNL d   1      49.773  34.385  50.863  0.00  0.00    -0.242 NA
ATOM     20  C   UNL d   1      48.951  34.414  50.981  0.00  0.00     0.099 A 
ATOM     21  C   UNL d   1      48.655  34.529  51.742  0.00  0.00     0.021 A 
ATOM     22  C   UNL d   1      49.173  34.614  52.377  0.00  0.00     0.003 A 
ENDBRANCH  16  17
ENDBRANCH   2  16
TORSDOF 4
ENDMDL
