MODEL 1
REMARK VINA RESULT:      37.8      0.000      0.000
REMARK  3 active torsions:
REMARK  status: ('A' for Active; 'I' for Inactive)
REMARK       I    between atoms: C_6  and  N_1 
REMARK    1  A    between atoms: C_7  and  C_3 
REMARK    2  A    between atoms: C_8  and  C_4 
REMARK    3  A    between atoms: C_20  and  C_18 
ROOT
ATOM      1  N   UNL d   1     -54.853-101.475 -43.588  0.00  0.00    -0.193 N 
ATOM      2  N   UNL d   1     -54.814-101.976 -42.945  0.00  0.00    -0.163 NA
ATOM      3  C   UNL d   1     -54.913-100.699 -43.312  0.00  0.00     0.110 A 
ATOM      4  C   UNL d   1     -54.850-101.507 -42.268  0.00  0.00     0.103 A 
ATOM      5  C   UNL d   1     -54.910-100.733 -42.498  0.00  0.00     0.042 A 
ATOM      6  C   UNL d   1     -54.835-101.709 -44.406  0.00  0.00     0.281 C 
ATOM      7  O   UNL d   1     -54.878-101.155 -44.987  0.00  0.00    -0.265 OA
ATOM      8  C   UNL d   1     -54.772-102.512 -44.588  0.00  0.00     0.068 C 
ENDROOT
BRANCH   4   9
ATOM      9  C   UNL d   1     -54.828-101.783 -41.493  0.00  0.00     0.019 A 
ATOM     10  C   UNL d   1     -54.735-101.255 -40.864  0.00  0.00     0.002 A 
ATOM     11  C   UNL d   1     -54.713-101.531 -40.089  0.00  0.00     0.000 A 
ATOM     12  C   UNL d   1     -54.786-102.343 -39.937  0.00  0.00     0.000 A 
ATOM     13  C   UNL d   1     -54.879-102.871 -40.562  0.00  0.00     0.000 A 
ATOM     14  C   UNL d   1     -54.901-102.594 -41.341  0.00  0.00     0.002 A 
BRANCH  12  15
ATOM     15  C   UNL d   1     -54.764-102.619 -39.159  0.00  0.00     0.000 C 
ATOM     16  C   UNL d   1     -55.461-102.833 -38.775  0.00  0.00     0.000 C 
ENDBRANCH  12  15
ENDBRANCH   4   9
BRANCH   3  17
ATOM     17  C   UNL d   1     -54.966-100.021 -43.788  0.00  0.00     0.118 A 
ATOM     18  O   UNL d   1     -54.712 -99.960 -44.565  0.00  0.00    -0.304 OA
ATOM     19  C   UNL d   1     -54.866 -99.184 -44.842  0.00  0.00     0.123 A 
ATOM     20  C   UNL d   1     -55.220 -98.768 -44.221  0.00  0.00     0.029 A 
ATOM     21  C   UNL d   1     -55.276 -99.302 -43.572  0.00  0.00     0.028 A 
ENDBRANCH   3  17
TORSDOF 3
ENDMDL
