MODEL 1
REMARK VINA RESULT:      49.5      0.000      0.000
REMARK  2 active torsions:
REMARK  status: ('A' for Active; 'I' for Inactive)
REMARK    1  A    between atoms: C_4  and  N_2 
REMARK    2  A    between atoms: C_7  and  C_4 
REMARK       I    between atoms: N_8  and  C_7 
ROOT
ATOM      1  S   UNL d   1      58.474  49.670  49.672  0.00  0.00     0.274 S 
ATOM      2  N   UNL d   1      58.928  49.683  50.348  0.00  0.00    -0.192 N 
ATOM      3  C   UNL d   1      58.439  49.686  51.009  0.00  0.00     0.275 A 
ATOM      4  C   UNL d   1      57.649  49.675  50.739  0.00  0.00     0.069 A 
ATOM      5  C   UNL d   1      57.671  49.666  49.902  0.00  0.00     0.109 A 
ATOM      6  O   UNL d   1      59.266  49.675  49.436  0.00  0.00    -0.200 OA
ATOM      7  O   UNL d   1      58.194  49.659  48.890  0.00  0.00    -0.200 OA
ATOM      8  O   UNL d   1      58.692  49.698  51.810  0.00  0.00    -0.266 OA
ATOM      9  C   UNL d   1      56.939  49.673  51.127  0.00  0.00     0.005 A 
ATOM     10  C   UNL d   1      56.983  49.654  49.479  0.00  0.00     0.013 A 
ATOM     11  C   UNL d   1      56.225  49.661  50.685  0.00  0.00     0.000 A 
ATOM     12  C   UNL d   1      56.246  49.652  49.864  0.00  0.00     0.001 A 
ENDROOT
BRANCH   2  13
ATOM     13  C   UNL d   1      59.749  49.690  50.355  0.00  0.00     0.156 C 
BRANCH  13  14
ATOM     14  C   UNL d   1      60.162  49.007  50.567  0.00  0.00     0.283 C 
ATOM     15  N   UNL d   1      60.669  49.025  51.210  0.00  0.00    -0.271 N 
ATOM     16  C   UNL d   1      60.781  49.705  51.653  0.00  0.00     0.083 A 
ATOM     17  C   UNL d   1      61.083  48.332  51.419  0.00  0.00     0.083 A 
ATOM     18  C   UNL d   1      61.292  49.708  52.296  0.00  0.00     0.019 A 
ATOM     19  C   UNL d   1      61.705  49.031  52.510  0.00  0.00     0.003 A 
ATOM     20  C   UNL d   1      61.592  48.345  52.063  0.00  0.00     0.019 A 
ATOM     21  C   UNL d   1      62.226  49.034  53.163  0.00  0.00     0.000 C 
ATOM     22  O   UNL d   1      60.053  48.310  50.120  0.00  0.00    -0.265 OA
ENDBRANCH  13  14
ENDBRANCH   2  13
TORSDOF 2
ENDMDL
MODEL 2
REMARK VINA RESULT:      50.5      0.839      1.309
REMARK  2 active torsions:
REMARK  status: ('A' for Active; 'I' for Inactive)
REMARK    1  A    between atoms: C_4  and  N_2 
REMARK    2  A    between atoms: C_7  and  C_4 
REMARK       I    between atoms: N_8  and  C_7 
ROOT
ATOM      1  S   UNL d   1      58.240  49.696  49.920  0.00  0.00     0.274 S 
ATOM      2  N   UNL d   1      58.749  49.701  50.556  0.00  0.00    -0.192 N 
ATOM      3  C   UNL d   1      58.317  49.702  51.256  0.00  0.00     0.275 A 
ATOM      4  C   UNL d   1      57.507  49.697  51.053  0.00  0.00     0.069 A 
ATOM      5  C   UNL d   1      57.459  49.694  50.216  0.00  0.00     0.109 A 
ATOM      6  O   UNL d   1      59.010  49.699  49.620  0.00  0.00    -0.200 OA
ATOM      7  O   UNL d   1      57.896  49.692  49.164  0.00  0.00    -0.200 OA
ATOM      8  O   UNL d   1      58.635  49.707  52.033  0.00  0.00    -0.266 OA
ATOM      9  C   UNL d   1      56.832  49.696  51.498  0.00  0.00     0.005 A 
ATOM     10  C   UNL d   1      56.738  49.689  49.852  0.00  0.00     0.013 A 
ATOM     11  C   UNL d   1      56.083  49.690  51.117  0.00  0.00     0.000 A 
ATOM     12  C   UNL d   1      56.036  49.687  50.297  0.00  0.00     0.001 A 
ENDROOT
BRANCH   2  13
ATOM     13  C   UNL d   1      59.568  49.705  50.495  0.00  0.00     0.156 C 
BRANCH  13  14
ATOM     14  C   UNL d   1      60.024  49.385  51.105  0.00  0.00     0.283 C 
ATOM     15  N   UNL d   1      60.546  48.775  50.940  0.00  0.00    -0.271 N 
ATOM     16  C   UNL d   1      60.631  48.471  50.184  0.00  0.00     0.083 A 
ATOM     17  C   UNL d   1      61.003  48.455  51.559  0.00  0.00     0.083 A 
ATOM     18  C   UNL d   1      61.158  47.860  50.034  0.00  0.00     0.019 A 
ATOM     19  C   UNL d   1      61.614  47.537  50.636  0.00  0.00     0.003 A 
ATOM     20  C   UNL d   1      61.528  47.844  51.399  0.00  0.00     0.019 A 
ATOM     21  C   UNL d   1      62.150  46.916  50.483  0.00  0.00     0.000 C 
ATOM     22  O   UNL d   1      59.943  49.689  51.878  0.00  0.00    -0.265 OA
ENDBRANCH  13  14
ENDBRANCH   2  13
TORSDOF 2
ENDMDL
