MODEL 1
REMARK VINA RESULT:      11.4      0.000      0.000
REMARK  2 active torsions:
REMARK  status: ('A' for Active; 'I' for Inactive)
REMARK    1  A    between atoms: C_6  and  N_1 
REMARK    2  A    between atoms: C_7  and  C_6 
ROOT
ATOM      1  N   UNL d   1      14.374  12.430  -2.363  0.00  0.00    -0.287 N 
ATOM      2  N   UNL d   1      15.379  12.412  -1.459  0.00  0.00    -0.224 NA
ATOM      3  C   UNL d   1      15.184  12.564  -2.271  0.00  0.00     0.183 A 
ATOM      4  C   UNL d   1      14.066  12.204  -1.652  0.00  0.00     0.083 A 
ATOM      5  C   UNL d   1      14.700  12.193  -1.080  0.00  0.00     0.099 A 
ATOM      6  C   UNL d   1      13.300  12.003  -1.421  0.00  0.00     0.019 A 
ATOM      7  C   UNL d   1      14.506  11.972  -0.297  0.00  0.00     0.021 A 
ATOM      8  C   UNL d   1      13.147  11.790  -0.639  0.00  0.00     0.002 A 
ATOM      9  C   UNL d   1      13.760  11.779  -0.087  0.00  0.00     0.002 A 
ENDROOT
BRANCH   1  10
ATOM     10  C   UNL d   1      13.607  12.320  -2.524  0.00  0.00     0.082 C 
BRANCH  10  11
ATOM     11  C   UNL d   1      13.343  12.438  -3.295  0.00  0.00     0.018 A 
ATOM     12  C   UNL d   1      13.216  13.204  -3.576  0.00  0.00     0.002 A 
ATOM     13  C   UNL d   1      12.951  13.326  -4.351  0.00  0.00     0.000 A 
ATOM     14  C   UNL d   1      12.814  12.679  -4.844  0.00  0.00     0.000 A 
ATOM     15  C   UNL d   1      12.941  11.910  -4.562  0.00  0.00     0.000 A 
ATOM     16  C   UNL d   1      13.205  11.791  -3.788  0.00  0.00     0.002 A 
ENDBRANCH  10  11
ENDBRANCH   1  10
TORSDOF 2
ENDMDL
