MODEL 1
REMARK VINA RESULT:      48.2      0.000      0.000
REMARK  4 active torsions:
REMARK  status: ('A' for Active; 'I' for Inactive)
REMARK    1  A    between atoms: C_7  and  N_2 
REMARK    2  A    between atoms: C_15  and  C_7 
REMARK    3  A    between atoms: C_8  and  O_14 
REMARK    4  A    between atoms: O_14  and  C_15 
ROOT
ATOM      1  C   UNL d   1      59.305  49.680  51.830  0.00  0.00     0.296 A 
ATOM      2  N   UNL d   1      59.392  49.654  51.013  0.00  0.00    -0.266 N 
ATOM      3  S   UNL d   1      58.484  49.704  51.997  0.00  0.00    -0.025 SA
ATOM      4  C   UNL d   1      58.637  49.661  50.671  0.00  0.00     0.074 A 
ATOM      5  C   UNL d   1      58.080  49.692  51.274  0.00  0.00     0.050 A 
ATOM      6  O   UNL d   1      59.908  49.682  52.386  0.00  0.00    -0.259 OA
ATOM      7  C   UNL d   1      58.395  49.643  49.880  0.00  0.00     0.018 A 
ATOM      8  C   UNL d   1      57.269  49.705  51.100  0.00  0.00     0.008 A 
ATOM      9  C   UNL d   1      57.587  49.657  49.703  0.00  0.00     0.002 A 
ATOM     10  C   UNL d   1      57.031  49.687  50.305  0.00  0.00     0.001 A 
ENDROOT
BRANCH   2  11
ATOM     11  C   UNL d   1      60.107  49.625  50.602  0.00  0.00     0.110 C 
BRANCH  11  12
ATOM     12  C   UNL d   1      60.683  49.074  50.807  0.00  0.00     0.142 C 
BRANCH  12  13
ATOM     13  O   UNL d   1      61.245  48.819  50.256  0.00  0.00    -0.304 OA
BRANCH  13  14
ATOM     14  C   UNL d   1      61.398  48.014  50.158  0.00  0.00     0.100 A 
ATOM     15  C   UNL d   1      61.791  47.749  49.483  0.00  0.00     0.025 A 
ATOM     16  C   UNL d   1      61.943  46.949  49.387  0.00  0.00     0.002 A 
ATOM     17  C   UNL d   1      61.701  46.413  49.966  0.00  0.00     0.000 A 
ATOM     18  C   UNL d   1      61.307  46.683  50.642  0.00  0.00     0.002 A 
ATOM     19  C   UNL d   1      61.856  45.604  49.866  0.00  0.00     0.000 C 
ATOM     20  C   UNL d   1      61.159  47.487  50.731  0.00  0.00     0.025 A 
ENDBRANCH  13  14
ENDBRANCH  12  13
ENDBRANCH  11  12
ENDBRANCH   2  11
TORSDOF 4
ENDMDL
