MODEL 1
REMARK VINA RESULT:      34.3      0.000      0.000
REMARK  1 active torsions:
REMARK  status: ('A' for Active; 'I' for Inactive)
REMARK    1  A    between atoms: N_14  and  C_8 
ROOT
ATOM      1  C   UNL d   1      46.193 -17.900  44.112  0.00  0.00     0.056 A 
ATOM      2  C   UNL d   1      45.752 -15.463  44.232  0.00  0.00     0.074 A 
ATOM      3  C   UNL d   1      46.377 -18.251  43.388  0.00  0.00    -0.012 A 
ATOM      4  C   UNL d   1      46.047 -17.090  44.151  0.00  0.00    -0.016 A 
ATOM      5  C   UNL d   1      45.937 -15.817  43.504  0.00  0.00    -0.014 A 
ATOM      6  C   UNL d   1      46.083 -16.625  43.464  0.00  0.00    -0.007 A 
ATOM      7  C   UNL d   1      46.413 -17.792  42.708  0.00  0.00    -0.004 A 
ATOM      8  C   UNL d   1      45.636 -14.656  44.095  0.00  0.00     0.089 A 
ATOM      9  C   UNL d   1      45.716 -15.928  44.918  0.00  0.00    -0.017 A 
ATOM     10  C   UNL d   1      46.266 -16.977  42.741  0.00  0.00    -0.001 A 
ATOM     11  C   UNL d   1      45.863 -16.736  44.879  0.00  0.00    -0.008 A 
ATOM     12  C   UNL d   1      46.157 -18.357  44.794  0.00  0.00    -0.015 A 
ATOM     13  C   UNL d   1      45.934 -15.226  42.922  0.00  0.00    -0.002 A 
ATOM     14  C   UNL d   1      46.522 -19.059  43.351  0.00  0.00     0.038 A 
ATOM     15  C   UNL d   1      45.747 -14.513  43.297  0.00  0.00     0.017 A 
ATOM     16  C   UNL d   1      46.303 -19.170  44.757  0.00  0.00     0.038 A 
ATOM     17  C   UNL d   1      46.487 -19.522  44.034  0.00  0.00     0.195 A 
ATOM     18  C   UNL d   1      46.009 -17.546  44.839  0.00  0.00     0.013 C 
ATOM     19  C   UNL d   1      45.569 -15.111  44.954  0.00  0.00     0.015 C 
ATOM     20  O   UNL d   1      46.632 -20.329  43.996  0.00  0.00    -0.287 OA
ENDROOT
BRANCH   8  21
ATOM     21  N   UNL d   1      45.442 -14.098  44.672  0.00  0.00    -0.131 NA
ATOM     22  N   UNL d   1      45.556 -13.283  44.571  0.00  0.00    -0.023 N 
ENDBRANCH   8  21
TORSDOF 1
ENDMDL
