MODEL 1
REMARK VINA RESULT:      -9.9      0.000      0.000
REMARK  4 active torsions:
REMARK  status: ('A' for Active; 'I' for Inactive)
REMARK    1  A    between atoms: C_2  and  C_1 
REMARK    2  A    between atoms: N_8  and  C_3 
REMARK    3  A    between atoms: C_15  and  N_8 
REMARK    4  A    between atoms: O_18  and  C_16 
ROOT
ATOM      1  C   UNL d   1      52.812  32.105  53.519  0.00  0.00     0.077 A 
ATOM      2  C   UNL d   1      53.382  32.672  53.703  0.00  0.00     0.185 A 
ATOM      3  C   UNL d   1      52.097  32.332  53.186  0.00  0.00     0.009 A 
ATOM      4  O   UNL d   1      53.237  33.467  53.555  0.00  0.00    -0.289 OA
ATOM      5  C   UNL d   1      51.947  33.132  53.035  0.00  0.00     0.025 A 
ATOM      6  C   UNL d   1      52.517  33.699  53.220  0.00  0.00     0.102 A 
ATOM      7  C   UNL d   1      51.246  33.343  52.710  0.00  0.00     0.026 A 
ATOM      8  C   UNL d   1      52.386  34.477  53.080  0.00  0.00     0.027 A 
ATOM      9  C   UNL d   1      51.093  34.145  52.558  0.00  0.00     0.094 A 
ATOM     10  C   UNL d   1      51.663  34.713  52.742  0.00  0.00     0.026 A 
ENDROOT
BRANCH   1  11
ATOM     11  C   UNL d   1      52.959  31.318  53.667  0.00  0.00     0.166 A 
ATOM     12  N   UNL d   1      53.207  30.793  53.125  0.00  0.00    -0.225 NA
ATOM     13  C   UNL d   1      53.293  30.078  53.461  0.00  0.00     0.101 A 
ATOM     14  C   UNL d   1      53.530  29.328  53.190  0.00  0.00     0.021 A 
ATOM     15  C   UNL d   1      53.083  30.174  54.264  0.00  0.00     0.101 A 
ATOM     16  C   UNL d   1      53.549  28.689  53.737  0.00  0.00     0.002 A 
ATOM     17  C   UNL d   1      53.337  28.797  54.537  0.00  0.00     0.002 A 
ATOM     18  C   UNL d   1      53.113  29.499  54.805  0.00  0.00     0.021 A 
ATOM     19  N   UNL d   1      52.873  30.971  54.375  0.00  0.00    -0.225 NA
ENDBRANCH   1  11
BRANCH   2  20
ATOM     20  N   UNL d   1      54.101  32.441  54.039  0.00  0.00    -0.222 NA
BRANCH  20  21
ATOM     21  C   UNL d   1      54.560  32.985  54.432  0.00  0.00     0.084 A 
ATOM     22  C   UNL d   1      54.401  33.145  55.214  0.00  0.00     0.019 A 
ATOM     23  C   UNL d   1      54.856  33.686  55.605  0.00  0.00     0.002 A 
ATOM     24  C   UNL d   1      55.471  34.075  55.236  0.00  0.00     0.000 A 
ATOM     25  C   UNL d   1      55.617  33.903  54.453  0.00  0.00     0.002 A 
ATOM     26  C   UNL d   1      55.159  33.353  54.043  0.00  0.00     0.019 A 
ENDBRANCH  20  21
ENDBRANCH   2  20
BRANCH   9  27
ATOM     27  O   UNL d   1      50.392  34.365  52.232  0.00  0.00    -0.328 OA
ATOM     28  C   UNL d   1      49.798  34.614  52.691  0.00  0.00     0.181 C 
ENDBRANCH   9  27
TORSDOF 4
ENDMDL
MODEL 2
REMARK VINA RESULT:      -9.3      1.366      3.944
REMARK  4 active torsions:
REMARK  status: ('A' for Active; 'I' for Inactive)
REMARK    1  A    between atoms: C_2  and  C_1 
REMARK    2  A    between atoms: N_8  and  C_3 
REMARK    3  A    between atoms: C_15  and  N_8 
REMARK    4  A    between atoms: O_18  and  C_16 
ROOT
ATOM      1  C   UNL d   1      52.499  32.181  53.284  0.00  0.00     0.077 A 
ATOM      2  C   UNL d   1      53.224  32.398  53.613  0.00  0.00     0.185 A 
ATOM      3  C   UNL d   1      52.297  31.388  53.217  0.00  0.00     0.009 A 
ATOM      4  O   UNL d   1      53.747  31.821  53.875  0.00  0.00    -0.289 OA
ATOM      5  C   UNL d   1      52.821  30.805  53.479  0.00  0.00     0.025 A 
ATOM      6  C   UNL d   1      53.546  31.021  53.808  0.00  0.00     0.102 A 
ATOM      7  C   UNL d   1      52.614  30.034  53.409  0.00  0.00     0.026 A 
ATOM      8  C   UNL d   1      54.064  30.467  54.067  0.00  0.00     0.027 A 
ATOM      9  C   UNL d   1      53.139  29.446  53.672  0.00  0.00     0.094 A 
ATOM     10  C   UNL d   1      53.864  29.662  54.001  0.00  0.00     0.026 A 
ENDROOT
BRANCH   1  11
ATOM     11  C   UNL d   1      51.983  32.755  53.026  0.00  0.00     0.166 A 
ATOM     12  N   UNL d   1      51.373  33.039  53.447  0.00  0.00    -0.225 NA
ATOM     13  C   UNL d   1      50.987  33.592  53.026  0.00  0.00     0.101 A 
ATOM     14  C   UNL d   1      50.324  34.075  53.161  0.00  0.00     0.021 A 
ATOM     15  C   UNL d   1      51.391  33.649  52.297  0.00  0.00     0.101 A 
ATOM     16  C   UNL d   1      50.082  34.607  52.555  0.00  0.00     0.002 A 
ATOM     17  C   UNL d   1      50.493  34.655  51.831  0.00  0.00     0.002 A 
ATOM     18  C   UNL d   1      51.120  34.204  51.692  0.00  0.00     0.021 A 
ATOM     19  N   UNL d   1      52.022  33.108  52.316  0.00  0.00    -0.225 NA
ENDBRANCH   1  11
BRANCH   2  20
ATOM     20  N   UNL d   1      53.425  33.197  53.680  0.00  0.00    -0.222 NA
BRANCH  20  21
ATOM     21  C   UNL d   1      54.032  33.423  54.172  0.00  0.00     0.084 A 
ATOM     22  C   UNL d   1      53.870  33.586  54.952  0.00  0.00     0.019 A 
ATOM     23  C   UNL d   1      54.473  33.811  55.440  0.00  0.00     0.002 A 
ATOM     24  C   UNL d   1      55.240  33.879  55.172  0.00  0.00     0.000 A 
ATOM     25  C   UNL d   1      55.386  33.711  54.387  0.00  0.00     0.002 A 
ATOM     26  C   UNL d   1      54.778  33.480  53.879  0.00  0.00     0.019 A 
ENDBRANCH  20  21
ENDBRANCH   2  20
BRANCH   9  27
ATOM     27  O   UNL d   1      52.939  28.671  53.605  0.00  0.00    -0.328 OA
ATOM     28  C   UNL d   1      53.153  28.153  54.163  0.00  0.00     0.181 C 
ENDBRANCH   9  27
TORSDOF 4
ENDMDL
MODEL 3
REMARK VINA RESULT:      -8.7      1.341      4.409
REMARK  4 active torsions:
REMARK  status: ('A' for Active; 'I' for Inactive)
REMARK    1  A    between atoms: C_2  and  C_1 
REMARK    2  A    between atoms: N_8  and  C_3 
REMARK    3  A    between atoms: C_15  and  N_8 
REMARK    4  A    between atoms: O_18  and  C_16 
ROOT
ATOM      1  C   UNL d   1      52.466  33.376  53.490  0.00  0.00     0.077 A 
ATOM      2  C   UNL d   1      52.665  32.575  53.483  0.00  0.00     0.185 A 
ATOM      3  C   UNL d   1      52.926  33.912  53.907  0.00  0.00     0.009 A 
ATOM      4  O   UNL d   1      53.325  32.311  53.894  0.00  0.00    -0.289 OA
ATOM      5  C   UNL d   1      53.591  33.650  54.323  0.00  0.00     0.025 A 
ATOM      6  C   UNL d   1      53.791  32.849  54.316  0.00  0.00     0.102 A 
ATOM      7  C   UNL d   1      54.034  34.181  54.727  0.00  0.00     0.026 A 
ATOM      8  C   UNL d   1      54.433  32.580  54.714  0.00  0.00     0.027 A 
ATOM      9  C   UNL d   1      54.703  33.920  55.145  0.00  0.00     0.094 A 
ATOM     10  C   UNL d   1      54.903  33.120  55.138  0.00  0.00     0.026 A 
ENDROOT
BRANCH   1  11
ATOM     11  C   UNL d   1      51.811  33.634  53.081  0.00  0.00     0.166 A 
ATOM     12  N   UNL d   1      51.106  33.794  53.409  0.00  0.00    -0.225 NA
ATOM     13  C   UNL d   1      50.595  34.033  52.849  0.00  0.00     0.101 A 
ATOM     14  C   UNL d   1      49.798  34.271  52.846  0.00  0.00     0.021 A 
ATOM     15  C   UNL d   1      51.019  34.018  52.129  0.00  0.00     0.101 A 
ATOM     16  C   UNL d   1      49.445  34.490  52.113  0.00  0.00     0.002 A 
ATOM     17  C   UNL d   1      49.879  34.471  51.401  0.00  0.00     0.002 A 
ATOM     18  C   UNL d   1      50.631  34.248  51.391  0.00  0.00     0.021 A 
ATOM     19  N   UNL d   1      51.792  33.761  52.298  0.00  0.00    -0.225 NA
ENDBRANCH   1  11
BRANCH   2  20
ATOM     20  N   UNL d   1      52.200  32.037  53.062  0.00  0.00    -0.222 NA
BRANCH  20  21
ATOM     21  C   UNL d   1      52.394  31.247  53.060  0.00  0.00     0.084 A 
ATOM     22  C   UNL d   1      52.026  30.748  53.588  0.00  0.00     0.019 A 
ATOM     23  C   UNL d   1      52.218  29.964  53.586  0.00  0.00     0.002 A 
ATOM     24  C   UNL d   1      52.771  29.658  53.070  0.00  0.00     0.000 A 
ATOM     25  C   UNL d   1      53.130  30.172  52.547  0.00  0.00     0.002 A 
ATOM     26  C   UNL d   1      52.942  30.975  52.540  0.00  0.00     0.019 A 
ENDBRANCH  20  21
ENDBRANCH   2  20
BRANCH   9  27
ATOM     27  O   UNL d   1      55.152  34.447  55.553  0.00  0.00    -0.328 OA
ATOM     28  C   UNL d   1      55.939  34.446  55.476  0.00  0.00     0.181 C 
ENDBRANCH   9  27
TORSDOF 4
ENDMDL
MODEL 4
REMARK VINA RESULT:      -7.9      1.232      4.287
REMARK  4 active torsions:
REMARK  status: ('A' for Active; 'I' for Inactive)
REMARK    1  A    between atoms: C_2  and  C_1 
REMARK    2  A    between atoms: N_8  and  C_3 
REMARK    3  A    between atoms: C_15  and  N_8 
REMARK    4  A    between atoms: O_18  and  C_16 
ROOT
ATOM      1  C   UNL d   1      53.628  32.082  53.914  0.00  0.00     0.077 A 
ATOM      2  C   UNL d   1      53.011  32.322  53.422  0.00  0.00     0.185 A 
ATOM      3  C   UNL d   1      53.749  31.284  54.063  0.00  0.00     0.009 A 
ATOM      4  O   UNL d   1      52.515  31.764  53.079  0.00  0.00    -0.289 OA
ATOM      5  C   UNL d   1      53.252  30.719  53.720  0.00  0.00     0.025 A 
ATOM      6  C   UNL d   1      52.635  30.959  53.228  0.00  0.00     0.102 A 
ATOM      7  C   UNL d   1      53.379  29.943  53.873  0.00  0.00     0.026 A 
ATOM      8  C   UNL d   1      52.144  30.423  52.889  0.00  0.00     0.027 A 
ATOM      9  C   UNL d   1      52.880  29.373  53.530  0.00  0.00     0.094 A 
ATOM     10  C   UNL d   1      52.263  29.614  53.038  0.00  0.00     0.026 A 
ENDROOT
BRANCH   1  11
ATOM     11  C   UNL d   1      54.118  32.637  54.251  0.00  0.00     0.166 A 
ATOM     12  N   UNL d   1      54.039  32.923  54.987  0.00  0.00    -0.225 NA
ATOM     13  C   UNL d   1      54.613  33.455  55.134  0.00  0.00     0.101 A 
ATOM     14  C   UNL d   1      54.818  33.930  55.785  0.00  0.00     0.021 A 
ATOM     15  C   UNL d   1      55.073  33.494  54.438  0.00  0.00     0.101 A 
ATOM     16  C   UNL d   1      55.487  34.437  55.718  0.00  0.00     0.002 A 
ATOM     17  C   UNL d   1      55.939  34.468  55.018  0.00  0.00     0.002 A 
ATOM     18  C   UNL d   1      55.755  34.025  54.397  0.00  0.00     0.021 A 
ATOM     19  N   UNL d   1      54.742  32.966  53.887  0.00  0.00    -0.225 NA
ENDBRANCH   1  11
BRANCH   2  20
ATOM     20  N   UNL d   1      52.891  33.126  53.272  0.00  0.00    -0.222 NA
BRANCH  20  21
ATOM     21  C   UNL d   1      52.161  33.390  53.033  0.00  0.00     0.084 A 
ATOM     22  C   UNL d   1      52.070  33.671  52.275  0.00  0.00     0.019 A 
ATOM     23  C   UNL d   1      51.344  33.934  52.037  0.00  0.00     0.002 A 
ATOM     24  C   UNL d   1      50.699  33.924  52.537  0.00  0.00     0.000 A 
ATOM     25  C   UNL d   1      50.807  33.640  53.294  0.00  0.00     0.002 A 
ATOM     26  C   UNL d   1      51.544  33.369  53.547  0.00  0.00     0.019 A 
ENDBRANCH  20  21
ENDBRANCH   2  20
BRANCH   9  27
ATOM     27  O   UNL d   1      53.001  28.593  53.678  0.00  0.00    -0.328 OA
ATOM     28  C   UNL d   1      53.358  28.364  54.345  0.00  0.00     0.181 C 
ENDBRANCH   9  27
TORSDOF 4
ENDMDL
MODEL 5
REMARK VINA RESULT:      -7.4      0.945      3.357
REMARK  4 active torsions:
REMARK  status: ('A' for Active; 'I' for Inactive)
REMARK    1  A    between atoms: C_2  and  C_1 
REMARK    2  A    between atoms: N_8  and  C_3 
REMARK    3  A    between atoms: C_15  and  N_8 
REMARK    4  A    between atoms: O_18  and  C_16 
ROOT
ATOM      1  C   UNL d   1      52.785  33.377  53.755  0.00  0.00     0.077 A 
ATOM      2  C   UNL d   1      52.640  32.636  53.422  0.00  0.00     0.185 A 
ATOM      3  C   UNL d   1      52.229  33.977  53.682  0.00  0.00     0.009 A 
ATOM      4  O   UNL d   1      51.940  32.495  53.016  0.00  0.00    -0.289 OA
ATOM      5  C   UNL d   1      51.523  33.839  53.274  0.00  0.00     0.025 A 
ATOM      6  C   UNL d   1      51.378  33.098  52.942  0.00  0.00     0.102 A 
ATOM      7  C   UNL d   1      50.988  34.432  53.209  0.00  0.00     0.026 A 
ATOM      8  C   UNL d   1      50.698  32.950  52.544  0.00  0.00     0.027 A 
ATOM      9  C   UNL d   1      50.277  34.296  52.800  0.00  0.00     0.094 A 
ATOM     10  C   UNL d   1      50.133  33.555  52.467  0.00  0.00     0.026 A 
ENDROOT
BRANCH   1  11
ATOM     11  C   UNL d   1      53.479  33.513  54.156  0.00  0.00     0.166 A 
ATOM     12  N   UNL d   1      53.566  33.461  54.944  0.00  0.00    -0.225 NA
ATOM     13  C   UNL d   1      54.316  33.629  55.145  0.00  0.00     0.101 A 
ATOM     14  C   UNL d   1      54.736  33.667  55.863  0.00  0.00     0.021 A 
ATOM     15  C   UNL d   1      54.715  33.796  54.430  0.00  0.00     0.101 A 
ATOM     16  C   UNL d   1      55.552  33.873  55.842  0.00  0.00     0.002 A 
ATOM     17  C   UNL d   1      55.939  34.037  55.121  0.00  0.00     0.002 A 
ATOM     18  C   UNL d   1      55.554  34.004  54.439  0.00  0.00     0.021 A 
ATOM     19  N   UNL d   1      54.165  33.716  53.811  0.00  0.00    -0.225 NA
ENDBRANCH   1  11
BRANCH   2  20
ATOM     20  N   UNL d   1      53.200  32.033  53.496  0.00  0.00    -0.222 NA
BRANCH  20  21
ATOM     21  C   UNL d   1      53.002  31.268  53.307  0.00  0.00     0.084 A 
ATOM     22  C   UNL d   1      52.709  30.779  53.888  0.00  0.00     0.019 A 
ATOM     23  C   UNL d   1      52.512  30.018  53.699  0.00  0.00     0.002 A 
ATOM     24  C   UNL d   1      52.598  29.728  52.941  0.00  0.00     0.000 A 
ATOM     25  C   UNL d   1      52.892  30.231  52.371  0.00  0.00     0.002 A 
ATOM     26  C   UNL d   1      53.097  31.009  52.552  0.00  0.00     0.019 A 
ENDBRANCH  20  21
ENDBRANCH   2  20
BRANCH   9  27
ATOM     27  O   UNL d   1      49.736  34.885  52.731  0.00  0.00    -0.328 OA
ATOM     28  C   UNL d   1      49.210  34.877  52.140  0.00  0.00     0.181 C 
ENDBRANCH   9  27
TORSDOF 4
ENDMDL
