MODEL 1
REMARK VINA RESULT:      59.9      0.000      0.000
REMARK  4 active torsions:
REMARK  status: ('A' for Active; 'I' for Inactive)
REMARK    1  A    between atoms: N_2  and  S_1 
REMARK    2  A    between atoms: C_8  and  S_1 
REMARK       I    between atoms: C_3  and  N_2 
REMARK    3  A    between atoms: C_11  and  N_2 
REMARK       I    between atoms: N_4  and  C_3 
REMARK       I    between atoms: C_5  and  N_4 
REMARK       I    between atoms: N_9  and  C_5 
REMARK    4  A    between atoms: C_13  and  N_9 
ROOT
ATOM      1  N   UNL d   1      14.085  13.166  -2.912  0.00  0.00    -0.182 N 
ATOM      2  C   UNL d   1      14.101  12.699  -2.242  0.00  0.00     0.367 C 
ATOM      3  N   UNL d   1      14.311  13.050  -1.522  0.00  0.00    -0.135 NA
ATOM      4  C   UNL d   1      14.337  12.606  -0.827  0.00  0.00     0.373 C 
ATOM      5  N   UNL d   1      14.545  12.955  -0.110  0.00  0.00    -0.191 NA
ATOM      6  O   UNL d   1      13.919  11.905  -2.264  0.00  0.00    -0.243 OA
ATOM      7  O   UNL d   1      14.142  11.779  -0.878  0.00  0.00    -0.242 OA
ENDROOT
BRANCH   1   8
ATOM      8  S   UNL d   1      13.874  12.828  -3.653  0.00  0.00     0.275 S 
ATOM      9  O   UNL d   1      13.083  12.963  -3.485  0.00  0.00    -0.199 OA
ATOM     10  O   UNL d   1      14.672  12.704  -3.799  0.00  0.00    -0.199 OA
BRANCH   8  11
ATOM     11  C   UNL d   1      13.685  12.496  -4.379  0.00  0.00     0.104 A 
ATOM     12  C   UNL d   1      12.965  12.120  -4.493  0.00  0.00     0.013 A 
ATOM     13  C   UNL d   1      12.769  11.781  -5.228  0.00  0.00     0.001 A 
ATOM     14  C   UNL d   1      13.294  11.819  -5.850  0.00  0.00     0.000 A 
ATOM     15  C   UNL d   1      14.028  12.200  -5.741  0.00  0.00     0.001 A 
ATOM     16  C   UNL d   1      14.223  12.538  -5.005  0.00  0.00     0.013 A 
ENDBRANCH   8  11
ENDBRANCH   1   8
BRANCH   1  17
ATOM     17  C   UNL d   1      14.274  13.957  -2.847  0.00  0.00     0.079 A 
ATOM     18  C   UNL d   1      15.038  14.181  -2.687  0.00  0.00     0.018 A 
ATOM     19  C   UNL d   1      15.234  14.984  -2.620  0.00  0.00     0.002 A 
ATOM     20  C   UNL d   1      14.652  15.561  -2.715  0.00  0.00     0.000 A 
ATOM     21  C   UNL d   1      13.879  15.328  -2.877  0.00  0.00     0.002 A 
ATOM     22  C   UNL d   1      13.695  14.530  -2.941  0.00  0.00     0.018 A 
ENDBRANCH   1  17
BRANCH   5  23
ATOM     23  C   UNL d   1      14.731  13.761  -0.085  0.00  0.00     0.086 A 
ATOM     24  C   UNL d   1      14.128  14.340  -0.040  0.00  0.00     0.019 A 
ATOM     25  C   UNL d   1      14.317  15.133  -0.015  0.00  0.00     0.002 A 
ATOM     26  C   UNL d   1      15.114  15.374  -0.035  0.00  0.00     0.000 A 
ATOM     27  C   UNL d   1      15.728  14.802  -0.081  0.00  0.00     0.002 A 
ATOM     28  C   UNL d   1      15.263  16.020  -0.015  0.00  0.00     0.000 C 
ATOM     29  C   UNL d   1      15.515  13.998  -0.105  0.00  0.00     0.019 A 
ENDBRANCH   5  23
TORSDOF 4
ENDMDL
