MODEL 1
REMARK VINA RESULT:      64.0      0.000      0.000
REMARK  8 active torsions:
REMARK  status: ('A' for Active; 'I' for Inactive)
REMARK    1  A    between atoms: O_8  and  C_1 
REMARK    2  A    between atoms: C_10  and  C_5 
REMARK    3  A    between atoms: C_12  and  O_8 
REMARK    4  A    between atoms: N_9  and  C_10 
REMARK    5  A    between atoms: C_25  and  N_14 
REMARK    6  A    between atoms: O_24  and  C_17 
REMARK    7  A    between atoms: C_30  and  O_24 
REMARK    8  A    between atoms: C_29  and  C_25 
ROOT
ATOM      1  C   UNL d   1      13.882  12.599  -2.836  0.00  0.00     0.161 A 
ATOM      2  C   UNL d   1      13.500  13.959  -3.710  0.00  0.00     0.108 A 
ATOM      3  C   UNL d   1      13.347  13.206  -4.030  0.00  0.00     0.064 A 
ATOM      4  C   UNL d   1      13.538  12.530  -3.593  0.00  0.00     0.222 A 
ATOM      5  C   UNL d   1      13.309  14.635  -4.147  0.00  0.00     0.079 A 
ATOM      6  O   UNL d   1      13.841  14.046  -2.959  0.00  0.00    -0.305 OA
ATOM      7  C   UNL d   1      14.033  13.355  -2.520  0.00  0.00     0.126 A 
ATOM      8  C   UNL d   1      13.009  13.138  -4.773  0.00  0.00     0.009 A 
ATOM      9  C   UNL d   1      12.969  14.560  -4.893  0.00  0.00     0.199 A 
ATOM     10  O   UNL d   1      13.388  11.781  -3.906  0.00  0.00    -0.284 OA
ATOM     11  C   UNL d   1      12.819  13.812  -5.206  0.00  0.00     0.042 A 
ATOM     12  O   UNL d   1      12.779  15.234  -5.327  0.00  0.00    -0.286 OA
ATOM     13  C   UNL d   1      14.373  13.430  -1.773  0.00  0.00     0.029 C 
ENDROOT
BRANCH   1  14
ATOM     14  O   UNL d   1      14.071  11.921  -2.404  0.00  0.00    -0.300 OA
BRANCH  14  15
ATOM     15  C   UNL d   1      13.862  11.875  -1.609  0.00  0.00     0.123 A 
ATOM     16  C   UNL d   1      14.449  11.826  -1.034  0.00  0.00     0.123 A 
ATOM     17  C   UNL d   1      14.248  11.780  -0.241  0.00  0.00     0.027 A 
ATOM     18  C   UNL d   1      13.455  11.781  -0.014  0.00  0.00     0.002 A 
ATOM     19  C   UNL d   1      12.859  11.830  -0.595  0.00  0.00     0.002 A 
ATOM     20  C   UNL d   1      13.067  11.877  -1.390  0.00  0.00     0.027 A 
BRANCH  16  21
ATOM     21  O   UNL d   1      15.243  11.824  -1.257  0.00  0.00    -0.303 OA
BRANCH  21  22
ATOM     22  C   UNL d   1      15.796  12.234  -0.805  0.00  0.00     0.123 C 
ATOM     23  C   UNL d   1      16.592  12.228  -1.012  0.00  0.00     0.029 C 
ENDBRANCH  21  22
ENDBRANCH  16  21
ENDBRANCH  14  15
ENDBRANCH   1  14
BRANCH   5  24
ATOM     24  C   UNL d   1      13.456  15.387  -3.841  0.00  0.00     0.086 C 
BRANCH  24  25
ATOM     25  N   UNL d   1      14.074  15.840  -4.158  0.00  0.00    -0.300 N 
ATOM     26  C   UNL d   1      14.640  15.489  -4.647  0.00  0.00     0.100 A 
ATOM     27  C   UNL d   1      15.249  15.941  -4.959  0.00  0.00     0.100 A 
ATOM     28  N   UNL d   1      15.302  16.747  -4.788  0.00  0.00    -0.297 N 
ATOM     29  C   UNL d   1      14.735  17.099  -4.298  0.00  0.00     0.100 A 
ATOM     30  C   UNL d   1      14.116  16.645  -3.980  0.00  0.00     0.100 A 
BRANCH  28  31
ATOM     31  C   UNL d   1      15.913  17.200  -5.101  0.00  0.00     0.126 C 
BRANCH  31  32
ATOM     32  C   UNL d   1      16.044  17.962  -4.817  0.00  0.00     0.253 C 
ATOM     33  O   UNL d   1      15.470  18.543  -4.921  0.00  0.00    -0.281 OA
ENDBRANCH  31  32
ENDBRANCH  28  31
ENDBRANCH  24  25
ENDBRANCH   5  24
TORSDOF 8
ENDMDL
MODEL 2
REMARK VINA RESULT:      64.8      1.614      5.267
REMARK  8 active torsions:
REMARK  status: ('A' for Active; 'I' for Inactive)
REMARK    1  A    between atoms: O_8  and  C_1 
REMARK    2  A    between atoms: C_10  and  C_5 
REMARK    3  A    between atoms: C_12  and  O_8 
REMARK    4  A    between atoms: N_9  and  C_10 
REMARK    5  A    between atoms: C_25  and  N_14 
REMARK    6  A    between atoms: O_24  and  C_17 
REMARK    7  A    between atoms: C_30  and  O_24 
REMARK    8  A    between atoms: C_29  and  C_25 
ROOT
ATOM      1  C   UNL d   1      14.219  15.490  -4.972  0.00  0.00     0.161 A 
ATOM      2  C   UNL d   1      13.606  14.023  -4.493  0.00  0.00     0.108 A 
ATOM      3  C   UNL d   1      13.946  14.102  -5.249  0.00  0.00     0.064 A 
ATOM      4  C   UNL d   1      14.251  14.834  -5.484  0.00  0.00     0.222 A 
ATOM      5  C   UNL d   1      13.300  13.292  -4.256  0.00  0.00     0.079 A 
ATOM      6  O   UNL d   1      13.566  14.666  -3.970  0.00  0.00    -0.305 OA
ATOM      7  C   UNL d   1      13.878  15.407  -4.216  0.00  0.00     0.126 A 
ATOM      8  C   UNL d   1      13.977  13.457  -5.752  0.00  0.00     0.009 A 
ATOM      9  C   UNL d   1      13.335  12.647  -4.767  0.00  0.00     0.199 A 
ATOM     10  O   UNL d   1      14.589  14.916  -6.233  0.00  0.00    -0.284 OA
ATOM     11  C   UNL d   1      13.673  12.730  -5.515  0.00  0.00     0.042 A 
ATOM     12  O   UNL d   1      13.030  11.919  -4.530  0.00  0.00    -0.286 OA
ATOM     13  C   UNL d   1      13.844  16.052  -3.705  0.00  0.00     0.029 C 
ENDROOT
BRANCH   1  14
ATOM     14  O   UNL d   1      14.526  16.219  -5.213  0.00  0.00    -0.300 OA
BRANCH  14  15
ATOM     15  C   UNL d   1      14.039  16.754  -5.605  0.00  0.00     0.123 A 
ATOM     16  C   UNL d   1      14.243  17.552  -5.628  0.00  0.00     0.123 A 
ATOM     17  C   UNL d   1      13.762  18.090  -6.017  0.00  0.00     0.027 A 
ATOM     18  C   UNL d   1      13.072  17.836  -6.388  0.00  0.00     0.002 A 
ATOM     19  C   UNL d   1      12.863  17.029  -6.366  0.00  0.00     0.002 A 
ATOM     20  C   UNL d   1      13.349  16.493  -5.974  0.00  0.00     0.027 A 
BRANCH  16  21
ATOM     21  O   UNL d   1      14.933  17.810  -5.258  0.00  0.00    -0.303 OA
BRANCH  21  22
ATOM     22  C   UNL d   1      14.974  18.574  -4.955  0.00  0.00     0.123 C 
ATOM     23  C   UNL d   1      14.938  19.225  -5.457  0.00  0.00     0.029 C 
ENDBRANCH  21  22
ENDBRANCH  16  21
ENDBRANCH  14  15
ENDBRANCH   1  14
BRANCH   5  24
ATOM     24  C   UNL d   1      12.961  13.201  -3.509  0.00  0.00     0.086 C 
BRANCH  24  25
ATOM     25  N   UNL d   1      13.420  12.898  -2.889  0.00  0.00    -0.300 N 
ATOM     26  C   UNL d   1      13.734  13.404  -2.315  0.00  0.00     0.100 A 
ATOM     27  C   UNL d   1      14.188  13.099  -1.704  0.00  0.00     0.100 A 
ATOM     28  N   UNL d   1      14.335  12.289  -1.657  0.00  0.00    -0.297 N 
ATOM     29  C   UNL d   1      14.022  11.782  -2.231  0.00  0.00     0.100 A 
ATOM     30  C   UNL d   1      13.561  12.086  -2.852  0.00  0.00     0.100 A 
BRANCH  28  31
ATOM     31  C   UNL d   1      14.791  11.984  -1.043  0.00  0.00     0.126 C 
BRANCH  31  32
ATOM     32  C   UNL d   1      15.185  12.496  -0.532  0.00  0.00     0.253 C 
ATOM     33  O   UNL d   1      15.924  12.792  -0.740  0.00  0.00    -0.281 OA
ENDBRANCH  31  32
ENDBRANCH  28  31
ENDBRANCH  24  25
ENDBRANCH   5  24
TORSDOF 8
ENDMDL
MODEL 3
REMARK VINA RESULT:      66.7      1.473      2.152
REMARK  8 active torsions:
REMARK  status: ('A' for Active; 'I' for Inactive)
REMARK    1  A    between atoms: O_8  and  C_1 
REMARK    2  A    between atoms: C_10  and  C_5 
REMARK    3  A    between atoms: C_12  and  O_8 
REMARK    4  A    between atoms: N_9  and  C_10 
REMARK    5  A    between atoms: C_25  and  N_14 
REMARK    6  A    between atoms: O_24  and  C_17 
REMARK    7  A    between atoms: C_30  and  O_24 
REMARK    8  A    between atoms: C_29  and  C_25 
ROOT
ATOM      1  C   UNL d   1      13.803  13.209  -1.988  0.00  0.00     0.161 A 
ATOM      2  C   UNL d   1      13.369  13.207  -3.591  0.00  0.00     0.108 A 
ATOM      3  C   UNL d   1      13.419  12.487  -3.175  0.00  0.00     0.064 A 
ATOM      4  C   UNL d   1      13.636  12.491  -2.377  0.00  0.00     0.222 A 
ATOM      5  C   UNL d   1      13.152  13.204  -4.389  0.00  0.00     0.079 A 
ATOM      6  O   UNL d   1      13.532  13.930  -3.218  0.00  0.00    -0.305 OA
ATOM      7  C   UNL d   1      13.751  13.927  -2.407  0.00  0.00     0.126 A 
ATOM      8  C   UNL d   1      13.255  11.782  -3.558  0.00  0.00     0.009 A 
ATOM      9  C   UNL d   1      12.988  12.491  -4.768  0.00  0.00     0.199 A 
ATOM     10  O   UNL d   1      13.688  11.779  -1.961  0.00  0.00    -0.284 OA
ATOM     11  C   UNL d   1      13.039  11.781  -4.352  0.00  0.00     0.042 A 
ATOM     12  O   UNL d   1      12.772  12.490  -5.563  0.00  0.00    -0.286 OA
ATOM     13  C   UNL d   1      13.916  14.640  -2.028  0.00  0.00     0.029 C 
ENDROOT
BRANCH   1  14
ATOM     14  O   UNL d   1      14.019  13.207  -1.191  0.00  0.00    -0.300 OA
BRANCH  14  15
ATOM     15  C   UNL d   1      14.769  12.945  -0.974  0.00  0.00     0.123 A 
ATOM     16  C   UNL d   1      15.270  13.443  -0.549  0.00  0.00     0.123 A 
ATOM     17  C   UNL d   1      16.017  13.189  -0.330  0.00  0.00     0.027 A 
ATOM     18  C   UNL d   1      16.273  12.433  -0.533  0.00  0.00     0.002 A 
ATOM     19  C   UNL d   1      15.769  11.926  -0.963  0.00  0.00     0.002 A 
ATOM     20  C   UNL d   1      15.019  12.187  -1.181  0.00  0.00     0.027 A 
BRANCH  16  21
ATOM     21  O   UNL d   1      15.017  14.201  -0.344  0.00  0.00    -0.303 OA
BRANCH  21  22
ATOM     22  C   UNL d   1      15.549  14.734  -0.014  0.00  0.00     0.123 C 
ATOM     23  C   UNL d   1      15.522  15.532  -0.216  0.00  0.00     0.029 C 
ENDBRANCH  21  22
ENDBRANCH  16  21
ENDBRANCH  14  15
ENDBRANCH   1  14
BRANCH   5  24
ATOM     24  C   UNL d   1      13.098  13.911  -4.811  0.00  0.00     0.086 C 
BRANCH  24  25
ATOM     25  N   UNL d   1      13.775  14.213  -5.183  0.00  0.00    -0.300 N 
ATOM     26  C   UNL d   1      14.282  14.725  -4.777  0.00  0.00     0.100 A 
ATOM     27  C   UNL d   1      14.950  15.021  -5.149  0.00  0.00     0.100 A 
ATOM     28  N   UNL d   1      15.122  14.811  -5.928  0.00  0.00    -0.297 N 
ATOM     29  C   UNL d   1      14.615  14.298  -6.336  0.00  0.00     0.100 A 
ATOM     30  C   UNL d   1      13.937  13.996  -5.963  0.00  0.00     0.100 A 
BRANCH  28  31
ATOM     31  C   UNL d   1      15.792  15.108  -6.302  0.00  0.00     0.126 C 
BRANCH  31  32
ATOM     32  C   UNL d   1      16.055  15.869  -6.127  0.00  0.00     0.253 C 
ATOM     33  O   UNL d   1      16.862  16.032  -6.121  0.00  0.00    -0.281 OA
ENDBRANCH  31  32
ENDBRANCH  28  31
ENDBRANCH  24  25
ENDBRANCH   5  24
TORSDOF 8
ENDMDL
