MODEL 1
REMARK VINA RESULT:      -4.5      0.000      0.000
REMARK  4 active torsions:
REMARK  status: ('A' for Active; 'I' for Inactive)
REMARK    1  A    between atoms: N_3  and  C_1 
REMARK       I    between atoms: C_7  and  N_3 
REMARK    2  A    between atoms: C_12  and  N_3 
REMARK    3  A    between atoms: C_17  and  C_12 
REMARK    4  A    between atoms: N_18  and  C_17 
ROOT
ATOM      1  C   UNL d   1      57.876  -0.256  30.471  0.00  0.00     0.182 A 
ATOM      2  N   UNL d   1      57.401  -0.896  30.722  0.00  0.00    -0.222 NA
ATOM      3  S   UNL d   1      57.807   0.350  31.035  0.00  0.00    -0.048 SA
ATOM      4  C   UNL d   1      57.043  -0.684  31.435  0.00  0.00     0.092 A 
ATOM      5  C   UNL d   1      57.291   0.079  31.627  0.00  0.00     0.052 A 
ATOM      6  C   UNL d   1      56.528  -1.090  31.923  0.00  0.00     0.046 A 
ATOM      7  C   UNL d   1      57.016   0.433  32.318  0.00  0.00     0.034 A 
ATOM      8  C   UNL d   1      56.260  -0.732  32.607  0.00  0.00     0.121 A 
ATOM      9  C   UNL d   1      56.500   0.022  32.805  0.00  0.00     0.120 A 
ATOM     10  O   UNL d   1      56.138   0.230  33.522  0.00  0.00    -0.300 OA
ATOM     11  O   UNL d   1      55.745  -1.000  33.202  0.00  0.00    -0.299 OA
ATOM     12  C   UNL d   1      55.668  -0.405  33.769  0.00  0.00     0.304 A 
ENDROOT
BRANCH   1  13
ATOM     13  N   UNL d   1      58.333  -0.238  29.779  0.00  0.00    -0.251 N 
ATOM     14  C   UNL d   1      58.083   0.238  29.147  0.00  0.00     0.267 C 
ATOM     15  O   UNL d   1      57.398   0.681  29.205  0.00  0.00    -0.267 OA
ATOM     16  C   UNL d   1      58.540   0.256  28.455  0.00  0.00     0.066 C 
BRANCH  13  17
ATOM     17  C   UNL d   1      59.025  -0.686  29.721  0.00  0.00     0.104 C 
BRANCH  17  18
ATOM     18  C   UNL d   1      59.053  -1.339  29.218  0.00  0.00     0.100 C 
BRANCH  18  19
ATOM     19  N   UNL d   1      59.724  -1.823  29.205  0.00  0.00    -0.299 N 
ATOM     20  C   UNL d   1      59.640  -2.643  29.178  0.00  0.00     0.100 C 
ATOM     21  C   UNL d   1      60.477  -1.487  29.219  0.00  0.00     0.100 C 
ENDBRANCH  18  19
ENDBRANCH  17  18
ENDBRANCH  13  17
ENDBRANCH   1  13
TORSDOF 4
ENDMDL
MODEL 2
REMARK VINA RESULT:      -3.4      0.966      1.212
REMARK  4 active torsions:
REMARK  status: ('A' for Active; 'I' for Inactive)
REMARK    1  A    between atoms: N_3  and  C_1 
REMARK       I    between atoms: C_7  and  N_3 
REMARK    2  A    between atoms: C_12  and  N_3 
REMARK    3  A    between atoms: C_17  and  C_12 
REMARK    4  A    between atoms: N_18  and  C_17 
ROOT
ATOM      1  C   UNL d   1      57.947   0.077  30.449  0.00  0.00     0.182 A 
ATOM      2  N   UNL d   1      57.617  -0.645  30.711  0.00  0.00    -0.222 NA
ATOM      3  S   UNL d   1      57.660   0.682  30.940  0.00  0.00    -0.048 SA
ATOM      4  C   UNL d   1      57.132  -0.483  31.358  0.00  0.00     0.092 A 
ATOM      5  C   UNL d   1      57.157   0.329  31.500  0.00  0.00     0.052 A 
ATOM      6  C   UNL d   1      56.677  -0.974  31.829  0.00  0.00     0.046 A 
ATOM      7  C   UNL d   1      56.719   0.646  32.121  0.00  0.00     0.034 A 
ATOM      8  C   UNL d   1      56.245  -0.651  32.443  0.00  0.00     0.121 A 
ATOM      9  C   UNL d   1      56.265   0.151  32.589  0.00  0.00     0.120 A 
ATOM     10  O   UNL d   1      55.775   0.308  33.241  0.00  0.00    -0.300 OA
ATOM     11  O   UNL d   1      55.742  -1.000  33.004  0.00  0.00    -0.299 OA
ATOM     12  C   UNL d   1      55.450  -0.409  33.499  0.00  0.00     0.304 A 
ENDROOT
BRANCH   1  13
ATOM     13  N   UNL d   1      58.468   0.164  29.809  0.00  0.00    -0.251 N 
ATOM     14  C   UNL d   1      58.177   0.470  29.095  0.00  0.00     0.267 C 
ATOM     15  O   UNL d   1      57.390   0.682  29.023  0.00  0.00    -0.267 OA
ATOM     16  C   UNL d   1      58.698   0.558  28.456  0.00  0.00     0.066 C 
BRANCH  13  17
ATOM     17  C   UNL d   1      59.263  -0.050  29.882  0.00  0.00     0.104 C 
BRANCH  17  18
ATOM     18  C   UNL d   1      59.835   0.528  30.021  0.00  0.00     0.100 C 
BRANCH  18  19
ATOM     19  N   UNL d   1      60.610   0.308  30.209  0.00  0.00    -0.299 N 
ATOM     20  C   UNL d   1      60.999   0.668  30.841  0.00  0.00     0.100 C 
ATOM     21  C   UNL d   1      60.993  -0.273  29.766  0.00  0.00     0.100 C 
ENDBRANCH  18  19
ENDBRANCH  17  18
ENDBRANCH  13  17
ENDBRANCH   1  13
TORSDOF 4
ENDMDL
MODEL 3
REMARK VINA RESULT:      -1.6      2.038      4.433
REMARK  4 active torsions:
REMARK  status: ('A' for Active; 'I' for Inactive)
REMARK    1  A    between atoms: N_3  and  C_1 
REMARK       I    between atoms: C_7  and  N_3 
REMARK    2  A    between atoms: C_12  and  N_3 
REMARK    3  A    between atoms: C_17  and  C_12 
REMARK    4  A    between atoms: N_18  and  C_17 
ROOT
ATOM      1  C   UNL d   1      58.445  -1.300  29.798  0.00  0.00     0.182 A 
ATOM      2  N   UNL d   1      58.159  -2.018  29.480  0.00  0.00    -0.222 NA
ATOM      3  S   UNL d   1      59.275  -1.332  29.797  0.00  0.00    -0.048 SA
ATOM      4  C   UNL d   1      58.809  -2.487  29.286  0.00  0.00     0.092 A 
ATOM      5  C   UNL d   1      59.493  -2.069  29.479  0.00  0.00     0.052 A 
ATOM      6  C   UNL d   1      58.857  -3.236  28.960  0.00  0.00     0.046 A 
ATOM      7  C   UNL d   1      60.230  -2.410  29.342  0.00  0.00     0.034 A 
ATOM      8  C   UNL d   1      59.592  -3.567  28.828  0.00  0.00     0.121 A 
ATOM      9  C   UNL d   1      60.273  -3.160  29.016  0.00  0.00     0.120 A 
ATOM     10  O   UNL d   1      60.924  -3.636  28.819  0.00  0.00    -0.300 OA
ATOM     11  O   UNL d   1      59.815  -4.302  28.511  0.00  0.00    -0.299 OA
ATOM     12  C   UNL d   1      60.638  -4.347  28.504  0.00  0.00     0.304 A 
ENDROOT
BRANCH   1  13
ATOM     13  N   UNL d   1      57.975  -0.671  30.065  0.00  0.00    -0.251 N 
ATOM     14  C   UNL d   1      57.998   0.048  29.652  0.00  0.00     0.267 C 
ATOM     15  O   UNL d   1      58.475   0.136  28.994  0.00  0.00    -0.267 OA
ATOM     16  C   UNL d   1      57.528   0.678  29.919  0.00  0.00     0.066 C 
BRANCH  13  17
ATOM     17  C   UNL d   1      57.492  -0.759  30.731  0.00  0.00     0.104 C 
BRANCH  17  18
ATOM     18  C   UNL d   1      57.531  -0.210  31.345  0.00  0.00     0.100 C 
BRANCH  18  19
ATOM     19  N   UNL d   1      57.113  -0.342  32.046  0.00  0.00    -0.299 N 
ATOM     20  C   UNL d   1      56.576  -0.966  32.095  0.00  0.00     0.100 C 
ATOM     21  C   UNL d   1      57.232   0.150  32.697  0.00  0.00     0.100 C 
ENDBRANCH  18  19
ENDBRANCH  17  18
ENDBRANCH  13  17
ENDBRANCH   1  13
TORSDOF 4
ENDMDL
