MODEL 1
REMARK VINA RESULT:      -1.7      0.000      0.000
REMARK  3 active torsions:
REMARK  status: ('A' for Active; 'I' for Inactive)
REMARK    1  A    between atoms: C_8  and  C_1 
REMARK    2  A    between atoms: C_9  and  C_4 
REMARK    3  A    between atoms: O_20  and  C_8 
ROOT
ATOM      1  C   UNL d   1      30.767  16.908 -24.391  0.00  0.00     0.107 A 
ATOM      2  C   UNL d   1      30.325  17.513 -24.757  0.00  0.00     0.208 A 
ATOM      3  C   UNL d   1      31.930  17.761 -24.384  0.00  0.00     0.062 A 
ATOM      4  C   UNL d   1      31.579  17.048 -24.208  0.00  0.00     0.020 A 
ATOM      5  C   UNL d   1      31.488  18.366 -24.750  0.00  0.00     0.101 A 
ATOM      6  O   UNL d   1      30.696  18.257 -24.939  0.00  0.00    -0.288 OA
ATOM      7  C   UNL d   1      32.717  17.883 -24.201  0.00  0.00     0.194 A 
ATOM      8  C   UNL d   1      31.834  19.092 -24.932  0.00  0.00     0.002 A 
ATOM      9  C   UNL d   1      32.632  19.206 -24.743  0.00  0.00     0.042 A 
ATOM     10  C   UNL d   1      33.074  18.601 -24.377  0.00  0.00     0.019 A 
ATOM     11  O   UNL d   1      33.161  17.275 -23.833  0.00  0.00    -0.287 OA
ATOM     12  N   UNL d   1      29.510  17.386 -24.946  0.00  0.00    -0.121 N 
ATOM     13  C   UNL d   1      33.241  19.742 -24.774  0.00  0.00     0.009 C 
ATOM     14  C   UNL d   1      32.345  19.896 -25.097  0.00  0.00     0.009 C 
ENDROOT
BRANCH   4  15
ATOM     15  C   UNL d   1      32.018  16.464 -23.851  0.00  0.00     0.030 A 
ATOM     16  S   UNL d   1      32.207  16.232 -22.950  0.00  0.00    -0.086 SA
ATOM     17  C   UNL d   1      32.778  15.453 -23.221  0.00  0.00     0.035 A 
ATOM     18  C   UNL d   1      32.744  15.479 -23.932  0.00  0.00     0.007 A 
ATOM     19  C   UNL d   1      32.360  15.991 -24.246  0.00  0.00     0.007 A 
ENDBRANCH   4  15
BRANCH   1  20
ATOM     20  C   UNL d   1      30.393  16.177 -24.215  0.00  0.00     0.299 C 
ATOM     21  O   UNL d   1      30.444  15.528 -24.742  0.00  0.00    -0.259 OA
BRANCH  20  22
ATOM     22  O   UNL d   1      29.965  16.077 -23.519  0.00  0.00    -0.296 OA
ATOM     23  C   UNL d   1      29.273  15.592 -23.497  0.00  0.00     0.185 C 
ENDBRANCH  20  22
ENDBRANCH   1  20
TORSDOF 3
ENDMDL
MODEL 2
REMARK VINA RESULT:      -0.8      1.321      2.962
REMARK  3 active torsions:
REMARK  status: ('A' for Active; 'I' for Inactive)
REMARK    1  A    between atoms: C_8  and  C_1 
REMARK    2  A    between atoms: C_9  and  C_4 
REMARK    3  A    between atoms: O_20  and  C_8 
ROOT
ATOM      1  C   UNL d   1      31.656  16.521 -23.474  0.00  0.00     0.107 A 
ATOM      2  C   UNL d   1      31.030  16.084 -23.140  0.00  0.00     0.208 A 
ATOM      3  C   UNL d   1      30.706  17.319 -24.210  0.00  0.00     0.062 A 
ATOM      4  C   UNL d   1      31.477  17.144 -24.014  0.00  0.00     0.020 A 
ATOM      5  C   UNL d   1      30.080  16.881 -23.876  0.00  0.00     0.101 A 
ATOM      6  O   UNL d   1      30.226  16.269 -23.348  0.00  0.00    -0.288 OA
ATOM      7  C   UNL d   1      30.547  17.925 -24.735  0.00  0.00     0.194 A 
ATOM      8  C   UNL d   1      29.296  17.050 -24.069  0.00  0.00     0.002 A 
ATOM      9  C   UNL d   1      29.146  17.665 -24.601  0.00  0.00     0.042 A 
ATOM     10  C   UNL d   1      29.772  18.103 -24.935  0.00  0.00     0.019 A 
ATOM     11  O   UNL d   1      31.177  18.365 -25.071  0.00  0.00    -0.287 OA
ATOM     12  N   UNL d   1      31.195  15.456 -22.596  0.00  0.00    -0.121 N 
ATOM     13  C   UNL d   1      28.553  18.070 -24.982  0.00  0.00     0.009 C 
ATOM     14  C   UNL d   1      28.423  17.338 -24.368  0.00  0.00     0.009 C 
ENDROOT
BRANCH   4  15
ATOM     15  C   UNL d   1      32.081  17.577 -24.345  0.00  0.00     0.030 A 
ATOM     16  S   UNL d   1      32.751  17.394 -24.991  0.00  0.00    -0.086 SA
ATOM     17  C   UNL d   1      33.134  18.320 -24.925  0.00  0.00     0.035 A 
ATOM     18  C   UNL d   1      32.712  18.624 -24.438  0.00  0.00     0.007 A 
ATOM     19  C   UNL d   1      32.182  18.246 -24.147  0.00  0.00     0.007 A 
ENDBRANCH   4  15
BRANCH   1  20
ATOM     20  C   UNL d   1      32.446  16.331 -23.263  0.00  0.00     0.299 C 
ATOM     21  O   UNL d   1      32.939  15.896 -23.784  0.00  0.00    -0.259 OA
BRANCH  20  22
ATOM     22  O   UNL d   1      32.760  16.566 -22.540  0.00  0.00    -0.296 OA
ATOM     23  C   UNL d   1      33.213  16.032 -22.065  0.00  0.00     0.185 C 
ENDBRANCH  20  22
ENDBRANCH   1  20
TORSDOF 3
ENDMDL
MODEL 3
REMARK VINA RESULT:      -0.3      1.543      2.760
REMARK  3 active torsions:
REMARK  status: ('A' for Active; 'I' for Inactive)
REMARK    1  A    between atoms: C_8  and  C_1 
REMARK    2  A    between atoms: C_9  and  C_4 
REMARK    3  A    between atoms: O_20  and  C_8 
ROOT
ATOM      1  C   UNL d   1      29.930  17.577 -24.431  0.00  0.00     0.107 A 
ATOM      2  C   UNL d   1      30.529  18.101 -24.682  0.00  0.00     0.208 A 
ATOM      3  C   UNL d   1      30.931  16.705 -23.867  0.00  0.00     0.062 A 
ATOM      4  C   UNL d   1      30.149  16.874 -24.019  0.00  0.00     0.020 A 
ATOM      5  C   UNL d   1      31.529  17.229 -24.118  0.00  0.00     0.101 A 
ATOM      6  O   UNL d   1      31.344  17.921 -24.521  0.00  0.00    -0.288 OA
ATOM      7  C   UNL d   1      31.129  16.020 -23.466  0.00  0.00     0.194 A 
ATOM      8  C   UNL d   1      32.324  17.067 -23.968  0.00  0.00     0.002 A 
ATOM      9  C   UNL d   1      32.514  16.371 -23.562  0.00  0.00     0.042 A 
ATOM     10  C   UNL d   1      31.915  15.847 -23.311  0.00  0.00     0.019 A 
ATOM     11  O   UNL d   1      30.527  15.494 -23.214  0.00  0.00    -0.287 OA
ATOM     12  N   UNL d   1      30.324  18.810 -25.096  0.00  0.00    -0.121 N 
ATOM     13  C   UNL d   1      33.131  15.933 -23.270  0.00  0.00     0.009 C 
ATOM     14  C   UNL d   1      33.215  16.773 -23.737  0.00  0.00     0.009 C 
ENDROOT
BRANCH   4  15
ATOM     15  C   UNL d   1      29.573  16.357 -23.770  0.00  0.00     0.030 A 
ATOM     16  S   UNL d   1      29.126  15.620 -24.167  0.00  0.00    -0.086 SA
ATOM     17  C   UNL d   1      28.572  15.454 -23.347  0.00  0.00     0.035 A 
ATOM     18  C   UNL d   1      28.798  15.964 -22.905  0.00  0.00     0.007 A 
ATOM     19  C   UNL d   1      29.303  16.418 -23.122  0.00  0.00     0.007 A 
ENDBRANCH   4  15
BRANCH   1  20
ATOM     20  C   UNL d   1      29.128  17.763 -24.595  0.00  0.00     0.299 C 
ATOM     21  O   UNL d   1      28.666  17.276 -25.097  0.00  0.00    -0.259 OA
BRANCH  20  22
ATOM     22  O   UNL d   1      28.772  18.429 -24.268  0.00  0.00    -0.296 OA
ATOM     23  C   UNL d   1      28.013  18.694 -24.530  0.00  0.00     0.185 C 
ENDBRANCH  20  22
ENDBRANCH   1  20
TORSDOF 3
ENDMDL
MODEL 4
REMARK VINA RESULT:       0.9      4.964      6.374
REMARK  3 active torsions:
REMARK  status: ('A' for Active; 'I' for Inactive)
REMARK    1  A    between atoms: C_8  and  C_1 
REMARK    2  A    between atoms: C_9  and  C_4 
REMARK    3  A    between atoms: O_20  and  C_8 
ROOT
ATOM      1  C   UNL d   1      32.941  21.260 -21.854  0.00  0.00     0.107 A 
ATOM      2  C   UNL d   1      33.090  20.740 -21.219  0.00  0.00     0.208 A 
ATOM      3  C   UNL d   1      32.944  22.376 -20.940  0.00  0.00     0.062 A 
ATOM      4  C   UNL d   1      32.869  22.086 -21.697  0.00  0.00     0.020 A 
ATOM      5  C   UNL d   1      33.093  21.856 -20.305  0.00  0.00     0.101 A 
ATOM      6  O   UNL d   1      33.167  21.047 -20.429  0.00  0.00    -0.288 OA
ATOM      7  C   UNL d   1      32.872  23.179 -20.803  0.00  0.00     0.194 A 
ATOM      8  C   UNL d   1      33.170  22.140 -19.535  0.00  0.00     0.002 A 
ATOM      9  C   UNL d   1      33.095  22.954 -19.407  0.00  0.00     0.042 A 
ATOM     10  C   UNL d   1      32.946  23.474 -20.041  0.00  0.00     0.019 A 
ATOM     11  O   UNL d   1      32.722  23.701 -21.441  0.00  0.00    -0.287 OA
ATOM     12  N   UNL d   1      33.165  19.909 -21.361  0.00  0.00    -0.121 N 
ATOM     13  C   UNL d   1      33.111  23.529 -18.834  0.00  0.00     0.009 C 
ATOM     14  C   UNL d   1      33.240  22.586 -18.680  0.00  0.00     0.009 C 
ENDROOT
BRANCH   4  15
ATOM     15  C   UNL d   1      32.723  22.601 -22.310  0.00  0.00     0.030 A 
ATOM     16  S   UNL d   1      33.238  22.932 -23.035  0.00  0.00    -0.086 SA
ATOM     17  C   UNL d   1      32.480  23.494 -23.378  0.00  0.00     0.035 A 
ATOM     18  C   UNL d   1      31.963  23.354 -22.908  0.00  0.00     0.007 A 
ATOM     19  C   UNL d   1      32.089  22.903 -22.371  0.00  0.00     0.007 A 
ENDBRANCH   4  15
BRANCH   1  20
ATOM     20  C   UNL d   1      32.866  20.948 -22.629  0.00  0.00     0.299 C 
ATOM     21  O   UNL d   1      33.235  21.322 -23.283  0.00  0.00    -0.259 OA
BRANCH  20  22
ATOM     22  O   UNL d   1      32.429  20.265 -22.771  0.00  0.00    -0.296 OA
ATOM     23  C   UNL d   1      32.533  19.818 -23.481  0.00  0.00     0.185 C 
ENDBRANCH  20  22
ENDBRANCH   1  20
TORSDOF 3
ENDMDL
