MODEL 1
REMARK VINA RESULT:      28.6      0.000      0.000
REMARK  2 active torsions:
REMARK  status: ('A' for Active; 'I' for Inactive)
REMARK    1  A    between atoms: C_3  and  C_1 
REMARK       I    between atoms: N_2  and  C_3 
REMARK    2  A    between atoms: O_16  and  C_15 
ROOT
ATOM      1  C   UNL d   1      46.002 -17.132  44.379  0.00  0.00     0.121 A 
ATOM      2  C   UNL d   1      45.241 -17.015  44.683  0.00  0.00     0.305 A 
ATOM      3  O   UNL d   1      44.945 -16.239  44.772  0.00  0.00    -0.271 OA
ATOM      4  C   UNL d   1      46.475 -16.479  44.161  0.00  0.00     0.012 A 
ATOM      5  C   UNL d   1      45.406 -15.596  44.560  0.00  0.00     0.125 A 
ATOM      6  C   UNL d   1      46.174 -15.715  44.253  0.00  0.00     0.025 A 
ATOM      7  O   UNL d   1      44.776 -17.657  44.897  0.00  0.00    -0.259 OA
ATOM      8  C   UNL d   1      45.121 -14.822  44.645  0.00  0.00     0.117 A 
ATOM      9  C   UNL d   1      46.640 -15.065  44.039  0.00  0.00     0.002 A 
ATOM     10  C   UNL d   1      46.341 -14.301  44.130  0.00  0.00     0.002 A 
ATOM     11  C   UNL d   1      45.586 -14.181  44.431  0.00  0.00     0.026 A 
ENDROOT
BRANCH   1  12
ATOM     12  C   UNL d   1      46.292 -17.896  44.292  0.00  0.00     0.285 C 
ATOM     13  N   UNL d   1      46.366 -18.230  43.547  0.00  0.00    -0.193 N 
ATOM     14  N   UNL d   1      46.170 -17.864  42.837  0.00  0.00    -0.163 NA
ATOM     15  C   UNL d   1      46.646 -18.983  43.378  0.00  0.00     0.105 A 
ATOM     16  C   UNL d   1      46.331 -18.394  42.229  0.00  0.00     0.103 A 
ATOM     17  C   UNL d   1      46.215 -18.253  41.421  0.00  0.00     0.022 C 
ATOM     18  C   UNL d   1      46.622 -19.080  42.563  0.00  0.00     0.042 A 
ATOM     19  O   UNL d   1      46.511 -18.331  44.954  0.00  0.00    -0.265 OA
ENDBRANCH   1  12
BRANCH   8  20
ATOM     20  O   UNL d   1      44.364 -14.710  44.947  0.00  0.00    -0.326 OA
ATOM     21  C   UNL d   1      43.927 -14.045  44.746  0.00  0.00     0.181 C 
ENDBRANCH   8  20
TORSDOF 2
ENDMDL
