MODEL 1
REMARK VINA RESULT:      57.4      0.000      0.000
REMARK  2 active torsions:
REMARK  status: ('A' for Active; 'I' for Inactive)
REMARK    1  A    between atoms: N_2  and  S_1 
REMARK    2  A    between atoms: C_4  and  S_1 
ROOT
ATOM      1  S   UNL d   1     -51.375  25.938  33.815  0.00  0.00     0.273 S 
ATOM      2  O   UNL d   1     -51.080  25.195  34.015  0.00  0.00    -0.200 OA
ATOM      3  O   UNL d   1     -52.128  26.002  33.485  0.00  0.00    -0.200 OA
ENDROOT
BRANCH   1   4
ATOM      4  N   UNL d   1     -50.919  26.612  33.945  0.00  0.00    -0.212 N 
ATOM      5  C   UNL d   1     -50.762  27.132  33.312  0.00  0.00     0.193 A 
ATOM      6  N   UNL d   1     -50.301  27.813  33.444  0.00  0.00    -0.223 NA
ATOM      7  C   UNL d   1     -50.158  27.450  34.827  0.00  0.00     0.100 A 
ATOM      8  C   UNL d   1     -50.614  26.774  34.709  0.00  0.00     0.094 A 
ATOM      9  C   UNL d   1     -49.856  27.609  35.589  0.00  0.00     0.021 A 
ATOM     10  C   UNL d   1     -50.772  26.256  35.329  0.00  0.00     0.020 A 
ATOM     11  C   UNL d   1     -50.472  26.413  36.084  0.00  0.00     0.002 A 
ATOM     12  C   UNL d   1     -50.014  27.090  36.215  0.00  0.00     0.002 A 
ENDBRANCH   1   4
BRANCH   1  13
ATOM     13  C   UNL d   1     -51.818  25.263  33.691  0.00  0.00     0.104 A 
ATOM     14  C   UNL d   1     -51.444  24.569  33.443  0.00  0.00     0.012 A 
ATOM     15  C   UNL d   1     -51.879  23.889  33.317  0.00  0.00     0.001 A 
ATOM     16  C   UNL d   1     -50.630  24.569  33.325  0.00  0.00     0.001 C 
ATOM     17  C   UNL d   1     -52.700  23.893  33.438  0.00  0.00     0.000 A 
ATOM     18  C   UNL d   1     -53.076  24.585  33.686  0.00  0.00     0.001 A 
ATOM     19  C   UNL d   1     -53.138  23.211  33.312  0.00  0.00     0.000 C 
ATOM     20  C   UNL d   1     -52.630  25.267  33.811  0.00  0.00     0.013 A 
ENDBRANCH   1  13
TORSDOF 2
ENDMDL
MODEL 2
REMARK VINA RESULT:      57.7      1.829      3.421
REMARK  2 active torsions:
REMARK  status: ('A' for Active; 'I' for Inactive)
REMARK    1  A    between atoms: N_2  and  S_1 
REMARK    2  A    between atoms: C_4  and  S_1 
ROOT
ATOM      1  S   UNL d   1     -52.572  25.147  33.808  0.00  0.00     0.273 S 
ATOM      2  O   UNL d   1     -51.782  25.095  34.034  0.00  0.00    -0.200 OA
ATOM      3  O   UNL d   1     -52.850  25.838  33.453  0.00  0.00    -0.200 OA
ENDROOT
BRANCH   1   4
ATOM      4  N   UNL d   1     -53.081  24.511  33.937  0.00  0.00    -0.212 N 
ATOM      5  C   UNL d   1     -53.535  24.212  33.306  0.00  0.00     0.193 A 
ATOM      6  N   UNL d   1     -54.049  23.570  33.436  0.00  0.00    -0.223 NA
ATOM      7  C   UNL d   1     -53.653  23.533  34.817  0.00  0.00     0.100 A 
ATOM      8  C   UNL d   1     -53.141  24.168  34.700  0.00  0.00     0.094 A 
ATOM      9  C   UNL d   1     -53.711  23.193  35.578  0.00  0.00     0.021 A 
ATOM     10  C   UNL d   1     -52.690  24.468  35.319  0.00  0.00     0.020 A 
ATOM     11  C   UNL d   1     -52.747  24.131  36.073  0.00  0.00     0.002 A 
ATOM     12  C   UNL d   1     -53.259  23.493  36.202  0.00  0.00     0.002 A 
ENDBRANCH   1   4
BRANCH   1  13
ATOM     13  C   UNL d   1     -52.058  25.770  33.686  0.00  0.00     0.104 A 
ATOM     14  C   UNL d   1     -51.278  25.617  33.459  0.00  0.00     0.012 A 
ATOM     15  C   UNL d   1     -50.758  26.235  33.334  0.00  0.00     0.001 A 
ATOM     16  C   UNL d   1     -51.031  24.839  33.359  0.00  0.00     0.001 C 
ATOM     17  C   UNL d   1     -51.010  27.018  33.436  0.00  0.00     0.000 A 
ATOM     18  C   UNL d   1     -51.789  27.174  33.663  0.00  0.00     0.001 A 
ATOM     19  C   UNL d   1     -50.489  27.638  33.311  0.00  0.00     0.000 C 
ATOM     20  C   UNL d   1     -52.308  26.545  33.786  0.00  0.00     0.013 A 
ENDBRANCH   1  13
TORSDOF 2
ENDMDL
MODEL 3
REMARK VINA RESULT:      60.3      5.782      7.176
REMARK  2 active torsions:
REMARK  status: ('A' for Active; 'I' for Inactive)
REMARK    1  A    between atoms: N_2  and  S_1 
REMARK    2  A    between atoms: C_4  and  S_1 
ROOT
ATOM      1  S   UNL d   1     -47.326  31.384  34.695  0.00  0.00     0.273 S 
ATOM      2  O   UNL d   1     -47.218  31.438  35.510  0.00  0.00    -0.200 OA
ATOM      3  O   UNL d   1     -47.565  30.668  34.362  0.00  0.00    -0.200 OA
ENDROOT
BRANCH   1   4
ATOM      4  N   UNL d   1     -47.195  32.043  34.216  0.00  0.00    -0.212 N 
ATOM      5  C   UNL d   1     -46.424  32.212  33.949  0.00  0.00     0.193 A 
ATOM      6  N   UNL d   1     -46.292  32.877  33.466  0.00  0.00    -0.223 NA
ATOM      7  C   UNL d   1     -47.693  33.195  33.521  0.00  0.00     0.100 A 
ATOM      8  C   UNL d   1     -47.835  32.539  34.000  0.00  0.00     0.094 A 
ATOM      9  C   UNL d   1     -48.332  33.688  33.307  0.00  0.00     0.021 A 
ATOM     10  C   UNL d   1     -48.594  32.367  34.267  0.00  0.00     0.020 A 
ATOM     11  C   UNL d   1     -49.227  32.855  34.054  0.00  0.00     0.002 A 
ATOM     12  C   UNL d   1     -49.096  33.517  33.574  0.00  0.00     0.002 A 
ENDBRANCH   1   4
BRANCH   1  13
ATOM     13  C   UNL d   1     -47.452  30.739  35.179  0.00  0.00     0.104 A 
ATOM     14  C   UNL d   1     -47.155  30.743  35.951  0.00  0.00     0.012 A 
ATOM     15  C   UNL d   1     -47.276  30.102  36.442  0.00  0.00     0.001 A 
ATOM     16  C   UNL d   1     -46.735  31.398  36.219  0.00  0.00     0.001 C 
ATOM     17  C   UNL d   1     -47.699  29.443  36.168  0.00  0.00     0.000 A 
ATOM     18  C   UNL d   1     -47.998  29.436  35.398  0.00  0.00     0.001 A 
ATOM     19  C   UNL d   1     -47.822  28.799  36.661  0.00  0.00     0.000 C 
ATOM     20  C   UNL d   1     -47.870  30.087  34.909  0.00  0.00     0.013 A 
ENDBRANCH   1  13
TORSDOF 2
ENDMDL
