MODEL 1
REMARK VINA RESULT:      53.4      0.000      0.000
REMARK  3 active torsions:
REMARK  status: ('A' for Active; 'I' for Inactive)
REMARK    1  A    between atoms: C_9  and  C_4 
REMARK    2  A    between atoms: C_10  and  C_7 
REMARK    3  A    between atoms: C_17  and  C_10 
ROOT
ATOM      1  C   UNL d   1     -50.209  26.361  33.571  0.00  0.00     0.179 A 
ATOM      2  N   UNL d   1     -50.843  26.894  33.498  0.00  0.00    -0.282 N 
ATOM      3  N   UNL d   1     -50.515  25.594  33.555  0.00  0.00    -0.221 NA
ATOM      4  C   UNL d   1     -51.341  25.650  33.472  0.00  0.00     0.101 A 
ATOM      5  S   UNL d   1     -49.513  26.799  33.633  0.00  0.00    -0.048 SA
ATOM      6  C   UNL d   1     -51.534  26.448  33.437  0.00  0.00     0.101 A 
ATOM      7  C   UNL d   1     -49.720  27.600  33.597  0.00  0.00     0.050 A 
ATOM      8  C   UNL d   1     -50.527  27.652  33.515  0.00  0.00     0.089 A 
ENDROOT
BRANCH   4   9
ATOM      9  C   UNL d   1     -51.856  25.018  33.432  0.00  0.00     0.019 A 
ATOM     10  C   UNL d   1     -51.559  24.249  33.444  0.00  0.00     0.004 A 
ATOM     11  C   UNL d   1     -52.069  23.601  33.405  0.00  0.00     0.030 A 
ATOM     12  C   UNL d   1     -52.885  23.732  33.353  0.00  0.00     0.140 A 
ATOM     13  C   UNL d   1     -53.185  24.495  33.340  0.00  0.00     0.030 A 
ATOM     14  F   UNL d   1     -53.525  23.207  33.306  0.00  0.00    -0.204 F 
ATOM     15  C   UNL d   1     -52.675  25.140  33.379  0.00  0.00     0.004 A 
ENDBRANCH   4   9
BRANCH   7  16
ATOM     16  C   UNL d   1     -49.186  28.228  33.638  0.00  0.00     0.008 C 
BRANCH  16  17
ATOM     17  C   UNL d   1     -48.764  28.378  34.329  0.00  0.00     0.001 A 
ATOM     18  C   UNL d   1     -48.747  27.828  34.939  0.00  0.00     0.000 A 
ATOM     19  C   UNL d   1     -48.320  27.982  35.634  0.00  0.00     0.000 A 
ATOM     20  C   UNL d   1     -47.909  28.694  35.712  0.00  0.00     0.000 A 
ATOM     21  C   UNL d   1     -47.923  29.249  35.103  0.00  0.00     0.000 A 
ATOM     22  C   UNL d   1     -48.349  29.095  34.408  0.00  0.00     0.000 A 
ENDBRANCH  16  17
ENDBRANCH   7  16
TORSDOF 3
ENDMDL
MODEL 2
REMARK VINA RESULT:      54.5      1.986      5.208
REMARK  3 active torsions:
REMARK  status: ('A' for Active; 'I' for Inactive)
REMARK    1  A    between atoms: C_9  and  C_4 
REMARK    2  A    between atoms: C_10  and  C_7 
REMARK    3  A    between atoms: C_17  and  C_10 
ROOT
ATOM      1  C   UNL d   1     -51.237  25.808  33.427  0.00  0.00     0.179 A 
ATOM      2  N   UNL d   1     -50.541  25.376  33.563  0.00  0.00    -0.282 N 
ATOM      3  N   UNL d   1     -51.049  26.613  33.454  0.00  0.00    -0.221 NA
ATOM      4  C   UNL d   1     -50.234  26.680  33.607  0.00  0.00     0.101 A 
ATOM      5  S   UNL d   1     -51.853  25.273  33.316  0.00  0.00    -0.048 SA
ATOM      6  C   UNL d   1     -49.930  25.919  33.672  0.00  0.00     0.101 A 
ATOM      7  C   UNL d   1     -51.535  24.511  33.384  0.00  0.00     0.050 A 
ATOM      8  C   UNL d   1     -50.739  24.579  33.534  0.00  0.00     0.089 A 
ENDROOT
BRANCH   4   9
ATOM      9  C   UNL d   1     -49.822  27.381  33.678  0.00  0.00     0.019 A 
ATOM     10  C   UNL d   1     -50.128  28.068  33.340  0.00  0.00     0.004 A 
ATOM     11  C   UNL d   1     -49.721  28.784  33.404  0.00  0.00     0.030 A 
ATOM     12  C   UNL d   1     -49.001  28.804  33.811  0.00  0.00     0.140 A 
ATOM     13  C   UNL d   1     -48.693  28.123  34.149  0.00  0.00     0.030 A 
ATOM     14  F   UNL d   1     -48.473  29.425  33.967  0.00  0.00    -0.204 F 
ATOM     15  C   UNL d   1     -49.099  27.410  34.084  0.00  0.00     0.004 A 
ENDBRANCH   4   9
BRANCH   7  16
ATOM     16  C   UNL d   1     -51.966  23.811  33.310  0.00  0.00     0.008 C 
BRANCH  16  17
ATOM     17  C   UNL d   1     -52.700  23.727  33.672  0.00  0.00     0.001 A 
ATOM     18  C   UNL d   1     -52.784  23.273  34.352  0.00  0.00     0.000 A 
ATOM     19  C   UNL d   1     -53.526  23.189  34.716  0.00  0.00     0.000 A 
ATOM     20  C   UNL d   1     -54.185  23.567  34.390  0.00  0.00     0.000 A 
ATOM     21  C   UNL d   1     -54.106  24.024  33.709  0.00  0.00     0.000 A 
ATOM     22  C   UNL d   1     -53.365  24.107  33.346  0.00  0.00     0.000 A 
ENDBRANCH  16  17
ENDBRANCH   7  16
TORSDOF 3
ENDMDL
