MODEL 1
REMARK VINA RESULT:      -2.0      0.000      0.000
REMARK  4 active torsions:
REMARK  status: ('A' for Active; 'I' for Inactive)
REMARK    1  A    between atoms: C_11  and  C_3 
REMARK    2  A    between atoms: N_10  and  C_4 
REMARK    3  A    between atoms: C_12  and  N_10 
REMARK    4  A    between atoms: C_13  and  C_12 
ROOT
ATOM      1  C   UNL d   1      57.168   0.270  32.240  0.00  0.00     0.167 A 
ATOM      2  N   UNL d   1      57.542   0.331  31.509  0.00  0.00    -0.195 N 
ATOM      3  C   UNL d   1      56.381   0.092  32.105  0.00  0.00     0.057 A 
ATOM      4  C   UNL d   1      58.345   0.508  31.470  0.00  0.00     0.167 A 
ATOM      5  N   UNL d   1      56.983   0.191  30.929  0.00  0.00    -0.161 NA
ATOM      6  N   UNL d   1      57.596   0.385  32.933  0.00  0.00    -0.227 NA
ATOM      7  C   UNL d   1      58.774   0.623  32.170  0.00  0.00     0.058 A 
ATOM      8  C   UNL d   1      56.272   0.044  31.288  0.00  0.00     0.124 A 
ATOM      9  C   UNL d   1      58.404   0.563  32.893  0.00  0.00     0.086 A 
ATOM     10  C   UNL d   1      58.852   0.682  33.576  0.00  0.00     0.021 C 
ENDROOT
BRANCH   4  11
ATOM     11  N   UNL d   1      58.720   0.569  30.739  0.00  0.00    -0.225 NA
BRANCH  11  12
ATOM     12  C   UNL d   1      59.540   0.536  30.693  0.00  0.00     0.101 C 
BRANCH  12  13
ATOM     13  C   UNL d   1      59.916   0.549  29.950  0.00  0.00     0.019 A 
ATOM     14  C   UNL d   1      59.468   0.624  29.257  0.00  0.00     0.002 A 
ATOM     15  C   UNL d   1      59.838   0.637  28.526  0.00  0.00     0.000 A 
ATOM     16  C   UNL d   1      60.663   0.575  28.476  0.00  0.00     0.000 A 
ATOM     17  C   UNL d   1      61.107   0.501  29.167  0.00  0.00     0.000 A 
ATOM     18  C   UNL d   1      60.733   0.488  29.906  0.00  0.00     0.002 A 
ENDBRANCH  12  13
ENDBRANCH  11  12
ENDBRANCH   4  11
BRANCH   3  19
ATOM     19  C   UNL d   1      55.855  -0.006  32.736  0.00  0.00     0.004 A 
ATOM     20  C   UNL d   1      55.454   0.654  33.034  0.00  0.00     0.000 A 
ATOM     21  C   UNL d   1      54.931   0.564  33.660  0.00  0.00     0.000 A 
ATOM     22  C   UNL d   1      54.804  -0.187  33.995  0.00  0.00     0.000 A 
ATOM     23  C   UNL d   1      55.208  -0.838  33.691  0.00  0.00     0.000 A 
ATOM     24  C   UNL d   1      55.734  -0.745  33.061  0.00  0.00     0.000 A 
ENDBRANCH   3  19
TORSDOF 4
ENDMDL
MODEL 2
REMARK VINA RESULT:      -1.8      1.980      2.197
REMARK  4 active torsions:
REMARK  status: ('A' for Active; 'I' for Inactive)
REMARK    1  A    between atoms: C_11  and  C_3 
REMARK    2  A    between atoms: N_10  and  C_4 
REMARK    3  A    between atoms: C_12  and  N_10 
REMARK    4  A    between atoms: C_13  and  C_12 
ROOT
ATOM      1  C   UNL d   1      56.860  -0.522  32.192  0.00  0.00     0.167 A 
ATOM      2  N   UNL d   1      56.956  -1.068  31.583  0.00  0.00    -0.195 N 
ATOM      3  C   UNL d   1      56.161  -0.698  32.579  0.00  0.00     0.057 A 
ATOM      4  C   UNL d   1      57.616  -1.029  31.094  0.00  0.00     0.167 A 
ATOM      5  N   UNL d   1      56.315  -1.576  31.599  0.00  0.00    -0.161 NA
ATOM      6  N   UNL d   1      57.425   0.063  32.313  0.00  0.00    -0.227 NA
ATOM      7  C   UNL d   1      58.184  -0.438  31.217  0.00  0.00     0.058 A 
ATOM      8  C   UNL d   1      55.827  -1.354  32.206  0.00  0.00     0.124 A 
ATOM      9  C   UNL d   1      58.090   0.102  31.821  0.00  0.00     0.086 A 
ATOM     10  C   UNL d   1      58.669   0.682  31.925  0.00  0.00     0.021 C 
ENDROOT
BRANCH   4  11
ATOM     11  N   UNL d   1      57.712  -1.575  30.484  0.00  0.00    -0.225 NA
BRANCH  11  12
ATOM     12  C   UNL d   1      58.153  -1.376  29.820  0.00  0.00     0.101 C 
BRANCH  12  13
ATOM     13  C   UNL d   1      58.563  -1.967  29.399  0.00  0.00     0.019 A 
ATOM     14  C   UNL d   1      59.325  -1.821  29.110  0.00  0.00     0.002 A 
ATOM     15  C   UNL d   1      59.727  -2.402  28.696  0.00  0.00     0.000 A 
ATOM     16  C   UNL d   1      59.374  -3.141  28.565  0.00  0.00     0.000 A 
ATOM     17  C   UNL d   1      58.615  -3.284  28.854  0.00  0.00     0.000 A 
ATOM     18  C   UNL d   1      58.208  -2.696  29.272  0.00  0.00     0.002 A 
ENDBRANCH  12  13
ENDBRANCH  11  12
ENDBRANCH   4  11
BRANCH   3  19
ATOM     19  C   UNL d   1      55.909  -0.245  33.223  0.00  0.00     0.004 A 
ATOM     20  C   UNL d   1      55.216   0.202  33.157  0.00  0.00     0.000 A 
ATOM     21  C   UNL d   1      54.960   0.655  33.792  0.00  0.00     0.000 A 
ATOM     22  C   UNL d   1      55.395   0.664  34.501  0.00  0.00     0.000 A 
ATOM     23  C   UNL d   1      56.084   0.216  34.558  0.00  0.00     0.000 A 
ATOM     24  C   UNL d   1      56.340  -0.239  33.918  0.00  0.00     0.000 A 
ENDBRANCH   3  19
TORSDOF 4
ENDMDL
MODEL 3
REMARK VINA RESULT:      -1.6      0.957      4.835
REMARK  4 active torsions:
REMARK  status: ('A' for Active; 'I' for Inactive)
REMARK    1  A    between atoms: C_11  and  C_3 
REMARK    2  A    between atoms: N_10  and  C_4 
REMARK    3  A    between atoms: C_12  and  N_10 
REMARK    4  A    between atoms: C_13  and  C_12 
ROOT
ATOM      1  C   UNL d   1      58.335   0.278  30.845  0.00  0.00     0.167 A 
ATOM      2  N   UNL d   1      57.616   0.380  31.236  0.00  0.00    -0.195 N 
ATOM      3  C   UNL d   1      58.172   0.084  30.067  0.00  0.00     0.057 A 
ATOM      4  C   UNL d   1      57.606   0.580  32.034  0.00  0.00     0.167 A 
ATOM      5  N   UNL d   1      57.017   0.247  30.695  0.00  0.00    -0.161 NA
ATOM      6  N   UNL d   1      59.043   0.376  31.252  0.00  0.00    -0.227 NA
ATOM      7  C   UNL d   1      58.320   0.679  32.442  0.00  0.00     0.058 A 
ATOM      8  C   UNL d   1      57.351   0.066  29.980  0.00  0.00     0.124 A 
ATOM      9  C   UNL d   1      59.031   0.578  32.055  0.00  0.00     0.086 A 
ATOM     10  C   UNL d   1      59.730   0.682  32.483  0.00  0.00     0.021 C 
ENDROOT
BRANCH   4  11
ATOM     11  N   UNL d   1      56.887   0.682  32.424  0.00  0.00    -0.225 NA
BRANCH  11  12
ATOM     12  C   UNL d   1      56.554   0.056  32.840  0.00  0.00     0.101 C 
BRANCH  12  13
ATOM     13  C   UNL d   1      55.985   0.205  33.431  0.00  0.00     0.019 A 
ATOM     14  C   UNL d   1      55.180   0.092  33.272  0.00  0.00     0.002 A 
ATOM     15  C   UNL d   1      54.621   0.238  33.853  0.00  0.00     0.000 A 
ATOM     16  C   UNL d   1      54.858   0.500  34.603  0.00  0.00     0.000 A 
ATOM     17  C   UNL d   1      55.660   0.612  34.758  0.00  0.00     0.000 A 
ATOM     18  C   UNL d   1      56.225   0.464  34.171  0.00  0.00     0.002 A 
ENDBRANCH  12  13
ENDBRANCH  11  12
ENDBRANCH   4  11
BRANCH   3  19
ATOM     19  C   UNL d   1      58.784  -0.054  29.529  0.00  0.00     0.004 A 
ATOM     20  C   UNL d   1      59.087  -0.821  29.449  0.00  0.00     0.000 A 
ATOM     21  C   UNL d   1      59.695  -0.965  28.917  0.00  0.00     0.000 A 
ATOM     22  C   UNL d   1      60.007  -0.344  28.460  0.00  0.00     0.000 A 
ATOM     23  C   UNL d   1      59.699   0.416  28.546  0.00  0.00     0.000 A 
ATOM     24  C   UNL d   1      59.088   0.558  29.082  0.00  0.00     0.000 A 
ENDBRANCH   3  19
TORSDOF 4
ENDMDL
MODEL 4
REMARK VINA RESULT:      -0.8      2.199      4.936
REMARK  4 active torsions:
REMARK  status: ('A' for Active; 'I' for Inactive)
REMARK    1  A    between atoms: C_11  and  C_3 
REMARK    2  A    between atoms: N_10  and  C_4 
REMARK    3  A    between atoms: C_12  and  N_10 
REMARK    4  A    between atoms: C_13  and  C_12 
ROOT
ATOM      1  C   UNL d   1      58.835  -1.218  29.669  0.00  0.00     0.167 A 
ATOM      2  N   UNL d   1      58.175  -0.942  30.079  0.00  0.00    -0.195 N 
ATOM      3  C   UNL d   1      58.812  -2.036  29.679  0.00  0.00     0.057 A 
ATOM      4  C   UNL d   1      58.049  -0.134  30.160  0.00  0.00     0.167 A 
ATOM      5  N   UNL d   1      57.752  -1.593  30.338  0.00  0.00    -0.161 NA
ATOM      6  N   UNL d   1      59.368  -0.685  29.341  0.00  0.00    -0.227 NA
ATOM      7  C   UNL d   1      58.588   0.401  29.829  0.00  0.00     0.058 A 
ATOM      8  C   UNL d   1      58.137  -2.263  30.097  0.00  0.00     0.124 A 
ATOM      9  C   UNL d   1      59.240   0.129  29.424  0.00  0.00     0.086 A 
ATOM     10  C   UNL d   1      59.764   0.681  29.102  0.00  0.00     0.021 C 
ENDROOT
BRANCH   4  11
ATOM     11  N   UNL d   1      57.390   0.142  30.570  0.00  0.00    -0.225 NA
BRANCH  11  12
ATOM     12  C   UNL d   1      57.483   0.682  31.183  0.00  0.00     0.101 C 
BRANCH  12  13
ATOM     13  C   UNL d   1      57.060   0.582  31.894  0.00  0.00     0.019 A 
ATOM     14  C   UNL d   1      57.443   0.671  32.623  0.00  0.00     0.002 A 
ATOM     15  C   UNL d   1      57.027   0.572  33.322  0.00  0.00     0.000 A 
ATOM     16  C   UNL d   1      56.221   0.383  33.304  0.00  0.00     0.000 A 
ATOM     17  C   UNL d   1      55.841   0.295  32.577  0.00  0.00     0.000 A 
ATOM     18  C   UNL d   1      56.261   0.395  31.870  0.00  0.00     0.002 A 
ENDBRANCH  12  13
ENDBRANCH  11  12
ENDBRANCH   4  11
BRANCH   3  19
ATOM     19  C   UNL d   1      59.405  -2.480  29.311  0.00  0.00     0.004 A 
ATOM     20  C   UNL d   1      59.192  -3.115  28.825  0.00  0.00     0.000 A 
ATOM     21  C   UNL d   1      59.774  -3.560  28.455  0.00  0.00     0.000 A 
ATOM     22  C   UNL d   1      60.577  -3.373  28.568  0.00  0.00     0.000 A 
ATOM     23  C   UNL d   1      60.780  -2.738  29.054  0.00  0.00     0.000 A 
ATOM     24  C   UNL d   1      60.192  -2.293  29.424  0.00  0.00     0.000 A 
ENDBRANCH   3  19
TORSDOF 4
ENDMDL
MODEL 5
REMARK VINA RESULT:       0.5      1.370      1.886
REMARK  4 active torsions:
REMARK  status: ('A' for Active; 'I' for Inactive)
REMARK    1  A    between atoms: C_11  and  C_3 
REMARK    2  A    between atoms: N_10  and  C_4 
REMARK    3  A    between atoms: C_12  and  N_10 
REMARK    4  A    between atoms: C_13  and  C_12 
ROOT
ATOM      1  C   UNL d   1      56.306   0.420  33.349  0.00  0.00     0.167 A 
ATOM      2  N   UNL d   1      56.402   0.300  32.539  0.00  0.00    -0.195 N 
ATOM      3  C   UNL d   1      55.506   0.383  33.515  0.00  0.00     0.057 A 
ATOM      4  C   UNL d   1      57.155   0.308  32.208  0.00  0.00     0.167 A 
ATOM      5  N   UNL d   1      55.660   0.190  32.213  0.00  0.00    -0.161 NA
ATOM      6  N   UNL d   1      56.963   0.548  33.827  0.00  0.00    -0.227 NA
ATOM      7  C   UNL d   1      57.815   0.437  32.691  0.00  0.00     0.058 A 
ATOM      8  C   UNL d   1      55.110   0.240  32.805  0.00  0.00     0.124 A 
ATOM      9  C   UNL d   1      57.721   0.555  33.492  0.00  0.00     0.086 A 
ATOM     10  C   UNL d   1      58.394   0.682  33.954  0.00  0.00     0.021 C 
ENDROOT
BRANCH   4  11
ATOM     11  N   UNL d   1      57.251   0.188  31.398  0.00  0.00    -0.225 NA
BRANCH  11  12
ATOM     12  C   UNL d   1      57.950   0.413  31.029  0.00  0.00     0.101 C 
BRANCH  12  13
ATOM     13  C   UNL d   1      58.135   0.118  30.273  0.00  0.00     0.019 A 
ATOM     14  C   UNL d   1      58.449  -0.644  30.187  0.00  0.00     0.002 A 
ATOM     15  C   UNL d   1      58.631  -0.934  29.443  0.00  0.00     0.000 A 
ATOM     16  C   UNL d   1      58.503  -0.466  28.771  0.00  0.00     0.000 A 
ATOM     17  C   UNL d   1      58.191   0.293  28.858  0.00  0.00     0.000 A 
ATOM     18  C   UNL d   1      58.007   0.585  29.610  0.00  0.00     0.002 A 
ENDBRANCH  12  13
ENDBRANCH  11  12
ENDBRANCH   4  11
BRANCH   3  19
ATOM     19  C   UNL d   1      55.230   0.483  34.288  0.00  0.00     0.004 A 
ATOM     20  C   UNL d   1      55.771   0.481  34.914  0.00  0.00     0.000 A 
ATOM     21  C   UNL d   1      55.504   0.580  35.684  0.00  0.00     0.000 A 
ATOM     22  C   UNL d   1      54.693   0.682  35.836  0.00  0.00     0.000 A 
ATOM     23  C   UNL d   1      54.161   0.682  35.206  0.00  0.00     0.000 A 
ATOM     24  C   UNL d   1      54.432   0.582  34.432  0.00  0.00     0.000 A 
ENDBRANCH   3  19
TORSDOF 4
ENDMDL
