MODEL 1
REMARK VINA RESULT:      40.7      0.000      0.000
REMARK  5 active torsions:
REMARK  status: ('A' for Active; 'I' for Inactive)
REMARK    1  A    between atoms: N_2  and  S_1 
REMARK    2  A    between atoms: C_3  and  S_1 
REMARK    3  A    between atoms: C_15  and  C_11 
REMARK    4  A    between atoms: O_17  and  C_12 
REMARK    5  A    between atoms: C_21  and  O_17 
ROOT
ATOM      1  C   UNL d   1     -57.775 -99.275 -44.710  0.00  0.00     0.128 A 
ATOM      2  C   UNL d   1     -58.072 -99.208 -45.474  0.00  0.00     0.015 A 
ATOM      3  C   UNL d   1     -58.846 -98.948 -45.595  0.00  0.00     0.001 A 
ATOM      4  C   UNL d   1     -58.250 -99.084 -44.066  0.00  0.00     0.112 A 
ATOM      5  C   UNL d   1     -59.322 -98.757 -44.951  0.00  0.00     0.002 A 
ATOM      6  C   UNL d   1     -59.024 -98.824 -44.187  0.00  0.00     0.025 A 
ENDROOT
BRANCH   1   7
ATOM      7  S   UNL d   1     -57.001 -99.534 -44.589  0.00  0.00     0.288 S 
ATOM      8  O   UNL d   1     -57.269-100.313 -44.541  0.00  0.00    -0.198 OA
ATOM      9  O   UNL d   1     -56.732 -98.755 -44.637  0.00  0.00    -0.198 OA
BRANCH   7  10
ATOM     10  N   UNL d   1     -56.227 -99.793 -44.468  0.00  0.00    -0.152 N 
ATOM     11  N   UNL d   1     -55.996-100.454 -44.036  0.00  0.00    -0.155 NA
ATOM     12  C   UNL d   1     -55.175-100.509 -44.058  0.00  0.00     0.104 A 
ATOM     13  C   UNL d   1     -54.716-101.092 -43.695  0.00  0.00     0.022 C 
ATOM     14  C   UNL d   1     -54.894 -99.877 -44.507  0.00  0.00     0.041 A 
ATOM     15  C   UNL d   1     -55.543 -99.436 -44.760  0.00  0.00     0.096 A 
ATOM     16  C   UNL d   1     -55.513 -98.755 -45.223  0.00  0.00     0.022 C 
ENDBRANCH   7  10
ENDBRANCH   1   7
BRANCH   4  17
ATOM     17  O   UNL d   1     -57.953 -99.151 -43.297  0.00  0.00    -0.304 OA
BRANCH  17  18
ATOM     18  C   UNL d   1     -58.338 -98.777 -42.672  0.00  0.00     0.123 C 
ATOM     19  C   UNL d   1     -59.162 -98.833 -42.596  0.00  0.00     0.029 C 
ENDBRANCH  17  18
ENDBRANCH   4  17
BRANCH   3  20
ATOM     20  C   UNL d   1     -59.144 -98.881 -46.359  0.00  0.00     0.000 C 
ATOM     21  C   UNL d   1     -58.626 -98.853 -47.008  0.00  0.00     0.000 C 
ATOM     22  C   UNL d   1     -59.959 -98.840 -46.483  0.00  0.00     0.000 C 
ENDBRANCH   3  20
TORSDOF 5
ENDMDL
