MODEL 1
REMARK VINA RESULT:      -6.2      0.000      0.000
REMARK  5 active torsions:
REMARK  status: ('A' for Active; 'I' for Inactive)
REMARK    1  A    between atoms: N_6  and  C_1 
REMARK    2  A    between atoms: S_10  and  C_4 
REMARK       I    between atoms: C_7  and  N_6 
REMARK       I    between atoms: N_8  and  C_7 
REMARK    3  A    between atoms: C_11  and  N_8 
REMARK    4  A    between atoms: C_18  and  S_10 
REMARK    5  A    between atoms: C_19  and  C_18 
ROOT
ATOM      1  N   UNL d   1     -41.858-122.443 -51.651  0.00  0.00    -0.321 NA
ATOM      2  C   UNL d   1     -41.538-122.237 -52.247  0.00  0.00     0.422 C 
ATOM      3  N   UNL d   1     -41.123-121.972 -52.970  0.00  0.00    -0.180 NA
ATOM      4  O   UNL d   1     -42.048-122.511 -52.639  0.00  0.00    -0.228 OA
ENDROOT
BRANCH   1   5
ATOM      5  C   UNL d   1     -42.115-122.621 -50.838  0.00  0.00     0.271 A 
ATOM      6  S   UNL d   1     -41.887-123.022 -50.304  0.00  0.00    -0.006 SA
ATOM      7  C   UNL d   1     -42.259-123.027 -49.696  0.00  0.00     0.166 A 
ATOM      8  N   UNL d   1     -42.844-122.636 -49.631  0.00  0.00    -0.132 NA
ATOM      9  N   UNL d   1     -42.701-122.230 -50.773  0.00  0.00    -0.107 NA
BRANCH   7  10
ATOM     10  S   UNL d   1     -42.137-123.388 -49.080  0.00  0.00    -0.059 SA
BRANCH  10  11
ATOM     11  C   UNL d   1     -42.214-123.005 -48.358  0.00  0.00     0.037 C 
BRANCH  11  12
ATOM     12  C   UNL d   1     -42.135-123.430 -47.660  0.00  0.00     0.007 C 
ATOM     13  C   UNL d   1     -41.906-123.053 -46.969  0.00  0.00     0.001 C 
ENDBRANCH  11  12
ENDBRANCH  10  11
ENDBRANCH   7  10
ENDBRANCH   1   5
BRANCH   3  14
ATOM     14  C   UNL d   1     -41.456-122.132 -53.714  0.00  0.00     0.087 A 
ATOM     15  C   UNL d   1     -41.238-122.817 -54.122  0.00  0.00     0.022 A 
ATOM     16  C   UNL d   1     -41.575-122.966 -54.860  0.00  0.00     0.031 A 
ATOM     17  C   UNL d   1     -42.120-122.443 -55.192  0.00  0.00     0.140 A 
ATOM     18  C   UNL d   1     -42.333-121.761 -54.779  0.00  0.00     0.031 A 
ATOM     19  F   UNL d   1     -42.453-122.603 -55.936  0.00  0.00    -0.204 F 
ATOM     20  C   UNL d   1     -42.001-121.605 -54.040  0.00  0.00     0.022 A 
ENDBRANCH   3  14
TORSDOF 5
ENDMDL
MODEL 2
REMARK VINA RESULT:      -5.7      2.417      5.294
REMARK  5 active torsions:
REMARK  status: ('A' for Active; 'I' for Inactive)
REMARK    1  A    between atoms: N_6  and  C_1 
REMARK    2  A    between atoms: S_10  and  C_4 
REMARK       I    between atoms: C_7  and  N_6 
REMARK       I    between atoms: N_8  and  C_7 
REMARK    3  A    between atoms: C_11  and  N_8 
REMARK    4  A    between atoms: C_18  and  S_10 
REMARK    5  A    between atoms: C_19  and  C_18 
ROOT
ATOM      1  N   UNL d   1     -41.497-123.013 -51.499  0.00  0.00    -0.321 NA
ATOM      2  C   UNL d   1     -41.405-122.841 -50.820  0.00  0.00     0.422 C 
ATOM      3  N   UNL d   1     -41.272-122.614 -49.985  0.00  0.00    -0.180 NA
ATOM      4  O   UNL d   1     -41.953-123.232 -50.627  0.00  0.00    -0.228 OA
ENDROOT
BRANCH   1   5
ATOM      5  C   UNL d   1     -41.470-123.122 -52.363  0.00  0.00     0.271 A 
ATOM      6  S   UNL d   1     -41.354-122.715 -52.929  0.00  0.00    -0.006 SA
ATOM      7  C   UNL d   1     -41.379-123.012 -53.575  0.00  0.00     0.166 A 
ATOM      8  N   UNL d   1     -41.516-123.702 -53.648  0.00  0.00    -0.132 NA
ATOM      9  N   UNL d   1     -41.608-123.811 -52.435  0.00  0.00    -0.107 NA
BRANCH   7  10
ATOM     10  S   UNL d   1     -41.280-122.714 -54.228  0.00  0.00    -0.059 SA
BRANCH  10  11
ATOM     11  C   UNL d   1     -41.927-122.551 -54.706  0.00  0.00     0.037 C 
BRANCH  11  12
ATOM     12  C   UNL d   1     -41.824-122.129 -55.402  0.00  0.00     0.007 C 
ATOM     13  C   UNL d   1     -42.473-121.895 -55.845  0.00  0.00     0.001 C 
ENDBRANCH  11  12
ENDBRANCH  10  11
ENDBRANCH   7  10
ENDBRANCH   1   5
BRANCH   3  14
ATOM     14  C   UNL d   1     -41.775-122.912 -49.395  0.00  0.00     0.087 A 
ATOM     15  C   UNL d   1     -42.542-122.613 -49.322  0.00  0.00     0.022 A 
ATOM     16  C   UNL d   1     -43.034-122.915 -48.732  0.00  0.00     0.031 A 
ATOM     17  C   UNL d   1     -42.770-123.507 -48.221  0.00  0.00     0.140 A 
ATOM     18  C   UNL d   1     -42.003-123.801 -48.300  0.00  0.00     0.031 A 
ATOM     19  F   UNL d   1     -43.274-123.804 -47.631  0.00  0.00    -0.204 F 
ATOM     20  C   UNL d   1     -41.506-123.503 -48.887  0.00  0.00     0.022 A 
ENDBRANCH   3  14
TORSDOF 5
ENDMDL
