MODEL 1
REMARK VINA RESULT:      -9.0      0.000      0.000
REMARK  5 active torsions:
REMARK  status: ('A' for Active; 'I' for Inactive)
REMARK    1  A    between atoms: C_5  and  C_1 
REMARK       I    between atoms: N_7  and  C_5 
REMARK    2  A    between atoms: C_10  and  N_7 
REMARK    3  A    between atoms: S_15  and  C_14 
REMARK    4  A    between atoms: C_20  and  S_15 
REMARK    5  A    between atoms: C_16  and  C_20 
ROOT
ATOM      1  N   UNL d   1      49.078  34.964  52.552  0.00  0.00    -0.191 NA
ATOM      2  C   UNL d   1      49.817  34.577  52.551  0.00  0.00     0.102 C 
ATOM      3  C   UNL d   1      50.551  34.200  52.554  0.00  0.00     0.085 C 
ENDROOT
BRANCH   3   4
ATOM      4  C   UNL d   1      51.158  34.477  53.031  0.00  0.00     0.046 C 
BRANCH   4   5
ATOM      5  S   UNL d   1      51.821  33.998  53.178  0.00  0.00    -0.084 SA
BRANCH   5   6
ATOM      6  C   UNL d   1      52.435  34.280  53.659  0.00  0.00     0.047 A 
ATOM      7  C   UNL d   1      52.943  33.748  54.026  0.00  0.00     0.091 A 
ATOM      8  C   UNL d   1      53.558  34.022  54.507  0.00  0.00     0.020 A 
ATOM      9  C   UNL d   1      53.663  34.830  54.620  0.00  0.00     0.002 A 
ATOM     10  C   UNL d   1      53.151  35.369  54.250  0.00  0.00     0.001 A 
ATOM     11  C   UNL d   1      52.540  35.088  53.772  0.00  0.00     0.008 A 
BRANCH   7  12
ATOM     12  N   UNL d   1      52.839  32.937  53.914  0.00  0.00    -0.206 NA
ATOM     13  C   UNL d   1      53.494  32.451  53.842  0.00  0.00     0.302 C 
ATOM     14  O   UNL d   1      54.254  32.763  53.880  0.00  0.00    -0.263 OA
BRANCH  13  15
ATOM     15  C   UNL d   1      53.393  31.631  53.729  0.00  0.00     0.161 A 
ATOM     16  C   UNL d   1      53.230  31.331  52.987  0.00  0.00     0.072 A 
ATOM     17  C   UNL d   1      53.132  30.515  52.885  0.00  0.00     0.200 A 
ATOM     18  O   UNL d   1      52.967  30.204  52.135  0.00  0.00    -0.286 OA
ATOM     19  C   UNL d   1      53.198  30.013  53.531  0.00  0.00     0.062 A 
ATOM     20  C   UNL d   1      53.361  30.309  54.277  0.00  0.00     0.103 A 
ATOM     21  C   UNL d   1      53.100  29.194  53.433  0.00  0.00     0.005 A 
ATOM     22  O   UNL d   1      53.459  31.129  54.375  0.00  0.00    -0.302 OA
ATOM     23  C   UNL d   1      53.428  29.810  54.932  0.00  0.00     0.025 A 
ATOM     24  C   UNL d   1      53.330  28.996  54.829  0.00  0.00     0.002 A 
ATOM     25  C   UNL d   1      53.166  28.692  54.080  0.00  0.00     0.000 A 
ENDBRANCH  13  15
ENDBRANCH   7  12
ENDBRANCH   5   6
ENDBRANCH   4   5
ENDBRANCH   3   4
TORSDOF 5
ENDMDL
MODEL 2
REMARK VINA RESULT:      -8.0      2.256      4.001
REMARK  5 active torsions:
REMARK  status: ('A' for Active; 'I' for Inactive)
REMARK    1  A    between atoms: C_5  and  C_1 
REMARK       I    between atoms: N_7  and  C_5 
REMARK    2  A    between atoms: C_10  and  N_7 
REMARK    3  A    between atoms: S_15  and  C_14 
REMARK    4  A    between atoms: C_20  and  S_15 
REMARK    5  A    between atoms: C_16  and  C_20 
ROOT
ATOM      1  N   UNL d   1      46.875  36.479  54.583  0.00  0.00    -0.191 NA
ATOM      2  C   UNL d   1      47.628  36.288  54.277  0.00  0.00     0.102 C 
ATOM      3  C   UNL d   1      48.368  36.095  53.970  0.00  0.00     0.085 C 
ENDROOT
BRANCH   3   4
ATOM      4  C   UNL d   1      48.430  35.631  53.296  0.00  0.00     0.046 C 
BRANCH   4   5
ATOM      5  S   UNL d   1      49.150  35.259  53.114  0.00  0.00    -0.084 SA
BRANCH   5   6
ATOM      6  C   UNL d   1      49.253  34.899  52.374  0.00  0.00     0.047 A 
ATOM      7  C   UNL d   1      49.957  34.510  52.204  0.00  0.00     0.091 A 
ATOM      8  C   UNL d   1      50.067  34.149  51.468  0.00  0.00     0.020 A 
ATOM      9  C   UNL d   1      49.471  34.179  50.902  0.00  0.00     0.002 A 
ATOM     10  C   UNL d   1      48.759  34.571  51.072  0.00  0.00     0.001 A 
ATOM     11  C   UNL d   1      48.656  34.928  51.808  0.00  0.00     0.008 A 
BRANCH   7  12
ATOM     12  N   UNL d   1      50.557  34.479  52.770  0.00  0.00    -0.206 NA
ATOM     13  C   UNL d   1      51.323  34.307  52.539  0.00  0.00     0.302 C 
ATOM     14  O   UNL d   1      51.501  34.165  51.749  0.00  0.00    -0.263 OA
BRANCH  13  15
ATOM     15  C   UNL d   1      51.932  34.275  53.109  0.00  0.00     0.161 A 
ATOM     16  C   UNL d   1      52.203  34.959  53.466  0.00  0.00     0.072 A 
ATOM     17  C   UNL d   1      52.807  34.916  54.029  0.00  0.00     0.200 A 
ATOM     18  O   UNL d   1      53.087  35.606  54.395  0.00  0.00    -0.286 OA
ATOM     19  C   UNL d   1      53.131  34.188  54.226  0.00  0.00     0.062 A 
ATOM     20  C   UNL d   1      52.862  33.501  53.871  0.00  0.00     0.103 A 
ATOM     21  C   UNL d   1      53.738  34.142  54.792  0.00  0.00     0.005 A 
ATOM     22  O   UNL d   1      52.255  33.547  53.306  0.00  0.00    -0.302 OA
ATOM     23  C   UNL d   1      53.183  32.764  54.065  0.00  0.00     0.025 A 
ATOM     24  C   UNL d   1      53.786  32.723  54.627  0.00  0.00     0.002 A 
ATOM     25  C   UNL d   1      54.061  33.413  54.989  0.00  0.00     0.000 A 
ENDBRANCH  13  15
ENDBRANCH   7  12
ENDBRANCH   5   6
ENDBRANCH   4   5
ENDBRANCH   3   4
TORSDOF 5
ENDMDL
MODEL 3
REMARK VINA RESULT:      -7.2      1.306      2.503
REMARK  5 active torsions:
REMARK  status: ('A' for Active; 'I' for Inactive)
REMARK    1  A    between atoms: C_5  and  C_1 
REMARK       I    between atoms: N_7  and  C_5 
REMARK    2  A    between atoms: C_10  and  N_7 
REMARK    3  A    between atoms: S_15  and  C_14 
REMARK    4  A    between atoms: C_20  and  S_15 
REMARK    5  A    between atoms: C_16  and  C_20 
ROOT
ATOM      1  N   UNL d   1      55.785  34.036  55.208  0.00  0.00    -0.191 NA
ATOM      2  C   UNL d   1      54.951  34.054  55.254  0.00  0.00     0.102 C 
ATOM      3  C   UNL d   1      54.128  34.074  55.291  0.00  0.00     0.085 C 
ENDROOT
BRANCH   3   4
ATOM      4  C   UNL d   1      53.684  34.213  54.615  0.00  0.00     0.046 C 
BRANCH   4   5
ATOM      5  S   UNL d   1      53.068  33.696  54.410  0.00  0.00    -0.084 SA
BRANCH   5   6
ATOM      6  C   UNL d   1      52.618  33.839  53.727  0.00  0.00     0.047 A 
ATOM      7  C   UNL d   1      52.310  33.207  53.302  0.00  0.00     0.091 A 
ATOM      8  C   UNL d   1      51.861  33.342  52.621  0.00  0.00     0.020 A 
ATOM      9  C   UNL d   1      51.722  34.112  52.366  0.00  0.00     0.002 A 
ATOM     10  C   UNL d   1      52.033  34.752  52.795  0.00  0.00     0.001 A 
ATOM     11  C   UNL d   1      52.479  34.609  53.473  0.00  0.00     0.008 A 
BRANCH   7  12
ATOM     12  N   UNL d   1      52.448  32.434  53.556  0.00  0.00    -0.206 NA
ATOM     13  C   UNL d   1      52.601  31.848  53.005  0.00  0.00     0.302 C 
ATOM     14  O   UNL d   1      52.618  32.022  52.201  0.00  0.00    -0.263 OA
BRANCH  13  15
ATOM     15  C   UNL d   1      52.741  31.066  53.258  0.00  0.00     0.161 A 
ATOM     16  C   UNL d   1      52.614  30.437  52.752  0.00  0.00     0.072 A 
ATOM     17  C   UNL d   1      52.756  29.664  53.013  0.00  0.00     0.200 A 
ATOM     18  O   UNL d   1      52.629  29.022  52.504  0.00  0.00    -0.286 OA
ATOM     19  C   UNL d   1      53.023  29.534  53.778  0.00  0.00     0.062 A 
ATOM     20  C   UNL d   1      53.152  30.162  54.288  0.00  0.00     0.103 A 
ATOM     21  C   UNL d   1      53.167  28.760  54.043  0.00  0.00     0.005 A 
ATOM     22  O   UNL d   1      53.008  30.936  54.023  0.00  0.00    -0.302 OA
ATOM     23  C   UNL d   1      53.421  30.039  55.060  0.00  0.00     0.025 A 
ATOM     24  C   UNL d   1      53.562  29.267  55.318  0.00  0.00     0.002 A 
ATOM     25  C   UNL d   1      53.434  28.631  54.808  0.00  0.00     0.000 A 
ENDBRANCH  13  15
ENDBRANCH   7  12
ENDBRANCH   5   6
ENDBRANCH   4   5
ENDBRANCH   3   4
TORSDOF 5
ENDMDL
MODEL 4
REMARK VINA RESULT:      -6.0      1.838      4.948
REMARK  5 active torsions:
REMARK  status: ('A' for Active; 'I' for Inactive)
REMARK    1  A    between atoms: C_5  and  C_1 
REMARK       I    between atoms: N_7  and  C_5 
REMARK    2  A    between atoms: C_10  and  N_7 
REMARK    3  A    between atoms: S_15  and  C_14 
REMARK    4  A    between atoms: C_20  and  S_15 
REMARK    5  A    between atoms: C_16  and  C_20 
ROOT
ATOM      1  N   UNL d   1      55.550  34.090  55.605  0.00  0.00    -0.191 NA
ATOM      2  C   UNL d   1      54.878  33.939  55.135  0.00  0.00     0.102 C 
ATOM      3  C   UNL d   1      54.216  33.783  54.668  0.00  0.00     0.085 C 
ENDROOT
BRANCH   3   4
ATOM      4  C   UNL d   1      54.162  33.083  54.244  0.00  0.00     0.046 C 
BRANCH   4   5
ATOM      5  S   UNL d   1      53.555  32.981  53.687  0.00  0.00    -0.084 SA
BRANCH   5   6
ATOM      6  C   UNL d   1      53.322  32.216  53.465  0.00  0.00     0.047 A 
ATOM      7  C   UNL d   1      52.601  32.103  53.089  0.00  0.00     0.091 A 
ATOM      8  C   UNL d   1      52.361  31.344  52.865  0.00  0.00     0.020 A 
ATOM      9  C   UNL d   1      52.846  30.698  53.019  0.00  0.00     0.002 A 
ATOM     10  C   UNL d   1      53.575  30.810  53.400  0.00  0.00     0.001 A 
ATOM     11  C   UNL d   1      53.807  31.570  53.620  0.00  0.00     0.008 A 
BRANCH   7  12
ATOM     12  N   UNL d   1      52.112  32.750  52.932  0.00  0.00    -0.206 NA
ATOM     13  C   UNL d   1      51.305  32.689  53.057  0.00  0.00     0.302 C 
ATOM     14  O   UNL d   1      50.977  31.988  53.337  0.00  0.00    -0.263 OA
BRANCH  13  15
ATOM     15  C   UNL d   1      50.809  33.340  52.900  0.00  0.00     0.161 A 
ATOM     16  C   UNL d   1      50.745  33.953  53.438  0.00  0.00     0.072 A 
ATOM     17  C   UNL d   1      50.250  34.595  53.273  0.00  0.00     0.200 A 
ATOM     18  O   UNL d   1      50.180  35.219  53.814  0.00  0.00    -0.286 OA
ATOM     19  C   UNL d   1      49.826  34.613  52.570  0.00  0.00     0.062 A 
ATOM     20  C   UNL d   1      49.887  34.001  52.029  0.00  0.00     0.103 A 
ATOM     21  C   UNL d   1      49.327  35.256  52.401  0.00  0.00     0.005 A 
ATOM     22  O   UNL d   1      50.385  33.358  52.198  0.00  0.00    -0.302 OA
ATOM     23  C   UNL d   1      49.463  34.012  51.319  0.00  0.00     0.025 A 
ATOM     24  C   UNL d   1      48.969  34.654  51.156  0.00  0.00     0.002 A 
ATOM     25  C   UNL d   1      48.903  35.273  51.698  0.00  0.00     0.000 A 
ENDBRANCH  13  15
ENDBRANCH   7  12
ENDBRANCH   5   6
ENDBRANCH   4   5
ENDBRANCH   3   4
TORSDOF 5
ENDMDL
