MODEL 1
REMARK VINA RESULT:      51.7      0.000      0.000
REMARK  3 active torsions:
REMARK  status: ('A' for Active; 'I' for Inactive)
REMARK       I    between atoms: C_3  and  N_1 
REMARK       I    between atoms: C_2  and  N_7 
REMARK    1  A    between atoms: C_4  and  C_2 
REMARK    2  A    between atoms: C_6  and  C_3 
REMARK    3  A    between atoms: N_7  and  C_15 
ROOT
ATOM      1  N   UNL d   1      46.290 -18.426  42.030  0.00  0.00    -0.273 N 
ATOM      2  C   UNL d   1      46.268 -18.373  41.204  0.00  0.00     0.271 C 
ATOM      3  C   UNL d   1      46.154 -17.760  42.497  0.00  0.00     0.067 A 
ATOM      4  C   UNL d   1      46.177 -17.820  43.317  0.00  0.00     0.018 A 
ATOM      5  C   UNL d   1      45.997 -17.038  42.134  0.00  0.00     0.019 A 
ATOM      6  O   UNL d   1      46.111 -17.650  40.832  0.00  0.00    -0.266 OA
ATOM      7  C   UNL d   1      45.883 -16.419  43.420  0.00  0.00     0.085 A 
ATOM      8  C   UNL d   1      46.042 -17.151  43.780  0.00  0.00     0.021 A 
ATOM      9  C   UNL d   1      46.447 -19.150  42.401  0.00  0.00     0.083 A 
ATOM     10  C   UNL d   1      45.862 -16.370  42.592  0.00  0.00     0.021 A 
ATOM     11  C   UNL d   1      46.333 -18.536  43.678  0.00  0.00     0.003 A 
ATOM     12  C   UNL d   1      46.469 -19.207  43.218  0.00  0.00     0.019 A 
ENDROOT
BRANCH   7  13
ATOM     13  N   UNL d   1      45.749 -15.760  43.882  0.00  0.00    -0.208 NA
ATOM     14  C   UNL d   1      45.611 -15.030  43.529  0.00  0.00     0.282 C 
ATOM     15  O   UNL d   1      45.606 -14.956  42.709  0.00  0.00    -0.265 OA
BRANCH  14  16
ATOM     16  C   UNL d   1      45.477 -14.367  43.987  0.00  0.00     0.096 A 
ATOM     17  C   UNL d   1      45.992 -13.713  43.942  0.00  0.00     0.065 A 
ATOM     18 CL   UNL d   1      46.637 -13.743  43.431  0.00  0.00    -0.082 Cl
ATOM     19  C   UNL d   1      45.858 -13.047  44.402  0.00  0.00     0.012 A 
ATOM     20  C   UNL d   1      45.207 -13.027  44.912  0.00  0.00     0.003 A 
ATOM     21  C   UNL d   1      44.696 -13.679  44.954  0.00  0.00     0.030 A 
ATOM     22  C   UNL d   1      44.834 -14.347  44.490  0.00  0.00     0.146 A 
ATOM     23  F   UNL d   1      44.314 -14.992  44.543  0.00  0.00    -0.204 F 
ENDBRANCH  14  16
ENDBRANCH   7  13
BRANCH   2  24
ATOM     24  C   UNL d   1      46.405 -19.050  40.745  0.00  0.00     0.086 A 
ATOM     25  S   UNL d   1      46.536 -19.058  39.918  0.00  0.00    -0.082 SA
ATOM     26  C   UNL d   1      46.647 -19.847  39.700  0.00  0.00     0.036 A 
ATOM     27  C   UNL d   1      46.588 -20.327  40.368  0.00  0.00     0.008 A 
ATOM     28  C   UNL d   1      46.439 -19.832  41.015  0.00  0.00     0.012 A 
ENDBRANCH   2  24
TORSDOF 3
ENDMDL
