MODEL 1
REMARK VINA RESULT:      35.4      0.000      0.000
REMARK  3 active torsions:
REMARK  status: ('A' for Active; 'I' for Inactive)
REMARK    1  A    between atoms: N_3  and  C_1 
REMARK    2  A    between atoms: C_8  and  N_2 
REMARK       I    between atoms: C_4  and  N_3 
REMARK    3  A    between atoms: C_7  and  C_4 
ROOT
ATOM      1  C   UNL d   1      58.160  49.649  51.547  0.00  0.00     0.185 A 
ATOM      2  N   UNL d   1      57.365  49.664  51.282  0.00  0.00    -0.254 N 
ATOM      3  S   UNL d   1      58.148  49.657  52.365  0.00  0.00    -0.044 SA
ATOM      4  C   UNL d   1      56.888  49.681  51.940  0.00  0.00     0.273 A 
ATOM      5  C   UNL d   1      57.367  49.676  52.610  0.00  0.00     0.099 A 
ATOM      6  O   UNL d   1      56.062  49.700  51.932  0.00  0.00    -0.266 OA
ENDROOT
BRANCH   1   7
ATOM      7  N   UNL d   1      58.836  49.629  51.067  0.00  0.00    -0.182 NA
ATOM      8  C   UNL d   1      59.562  49.422  51.385  0.00  0.00     0.304 C 
ATOM      9  O   UNL d   1      59.623  49.230  52.190  0.00  0.00    -0.263 OA
BRANCH   8  10
ATOM     10  C   UNL d   1      60.240  49.401  50.909  0.00  0.00     0.158 A 
ATOM     11  O   UNL d   1      60.262  49.576  50.108  0.00  0.00    -0.300 OA
ATOM     12  C   UNL d   1      61.045  49.485  49.858  0.00  0.00     0.123 A 
ATOM     13  C   UNL d   1      61.494  49.255  50.505  0.00  0.00     0.029 A 
ATOM     14  C   UNL d   1      61.010  49.200  51.156  0.00  0.00     0.032 A 
ENDBRANCH   8  10
ENDBRANCH   1   7
BRANCH   2  15
ATOM     15  C   UNL d   1      57.121  49.663  50.491  0.00  0.00     0.069 A 
ATOM     16  C   UNL d   1      56.314  49.679  50.325  0.00  0.00     0.018 A 
ATOM     17  C   UNL d   1      56.062  49.678  49.533  0.00  0.00     0.002 A 
ATOM     18  C   UNL d   1      56.623  49.660  48.921  0.00  0.00     0.000 A 
ATOM     19  C   UNL d   1      57.429  49.643  49.096  0.00  0.00     0.002 A 
ATOM     20  C   UNL d   1      57.676  49.644  49.880  0.00  0.00     0.018 A 
ENDBRANCH   2  15
TORSDOF 3
ENDMDL
MODEL 2
REMARK VINA RESULT:      36.7      1.004      2.139
REMARK  3 active torsions:
REMARK  status: ('A' for Active; 'I' for Inactive)
REMARK    1  A    between atoms: N_3  and  C_1 
REMARK    2  A    between atoms: C_8  and  N_2 
REMARK       I    between atoms: C_4  and  N_3 
REMARK    3  A    between atoms: C_7  and  C_4 
ROOT
ATOM      1  C   UNL d   1      58.301  49.590  50.492  0.00  0.00     0.185 A 
ATOM      2  N   UNL d   1      57.487  49.601  50.693  0.00  0.00    -0.254 N 
ATOM      3  S   UNL d   1      58.355  49.558  49.676  0.00  0.00    -0.044 SA
ATOM      4  C   UNL d   1      57.065  49.575  49.999  0.00  0.00     0.273 A 
ATOM      5  C   UNL d   1      57.596  49.549  49.370  0.00  0.00     0.099 A 
ATOM      6  O   UNL d   1      56.240  49.576  49.940  0.00  0.00    -0.266 OA
ENDROOT
BRANCH   1   7
ATOM      7  N   UNL d   1      58.936  49.608  51.025  0.00  0.00    -0.182 NA
ATOM      8  C   UNL d   1      59.705  49.530  50.752  0.00  0.00     0.304 C 
ATOM      9  O   UNL d   1      59.850  49.432  49.941  0.00  0.00    -0.263 OA
BRANCH   8  10
ATOM     10  C   UNL d   1      60.343  49.547  51.282  0.00  0.00     0.158 A 
ATOM     11  O   UNL d   1      60.294  49.408  52.088  0.00  0.00    -0.300 OA
ATOM     12  C   UNL d   1      61.057  49.482  52.397  0.00  0.00     0.123 A 
ATOM     13  C   UNL d   1      61.566  49.664  51.780  0.00  0.00     0.029 A 
ATOM     14  C   UNL d   1      61.138  49.707  51.090  0.00  0.00     0.032 A 
ENDBRANCH   8  10
ENDBRANCH   1   7
BRANCH   2  15
ATOM     15  C   UNL d   1      57.181  49.631  51.461  0.00  0.00     0.069 A 
ATOM     16  C   UNL d   1      56.363  49.615  51.562  0.00  0.00     0.018 A 
ATOM     17  C   UNL d   1      56.048  49.646  52.331  0.00  0.00     0.002 A 
ATOM     18  C   UNL d   1      56.558  49.692  52.985  0.00  0.00     0.000 A 
ATOM     19  C   UNL d   1      57.375  49.708  52.874  0.00  0.00     0.002 A 
ATOM     20  C   UNL d   1      57.685  49.678  52.113  0.00  0.00     0.018 A 
ENDBRANCH   2  15
TORSDOF 3
ENDMDL
