MODEL 1
REMARK VINA RESULT:      -5.4      0.000      0.000
REMARK  7 active torsions:
REMARK  status: ('A' for Active; 'I' for Inactive)
REMARK    1  A    between atoms: N_9  and  C_1 
REMARK    2  A    between atoms: C_10  and  C_2 
REMARK    3  A    between atoms: C_5  and  S_14 
REMARK       I    between atoms: C_13  and  N_9 
REMARK    4  A    between atoms: O_18  and  C_10 
REMARK    5  A    between atoms: C_17  and  C_13 
REMARK    6  A    between atoms: S_14  and  C_17 
REMARK    7  A    between atoms: C_23  and  O_18 
ROOT
ATOM      1  N   UNL d   1     -47.162  11.996  23.449  0.00  0.00    -0.201 NA
ATOM      2  C   UNL d   1     -47.806  11.472  23.466  0.00  0.00     0.286 C 
ATOM      3  O   UNL d   1     -47.666  10.651  23.416  0.00  0.00    -0.265 OA
ENDROOT
BRANCH   1   4
ATOM      4  C   UNL d   1     -46.391  11.709  23.384  0.00  0.00     0.119 A 
ATOM      5  C   UNL d   1     -45.770  12.087  22.996  0.00  0.00     0.088 A 
ATOM      6  C   UNL d   1     -45.104  11.605  23.069  0.00  0.00     0.013 A 
ATOM      7  C   UNL d   1     -44.356  11.769  22.762  0.00  0.00     0.001 C 
ATOM      8  C   UNL d   1     -45.314  10.933  23.500  0.00  0.00     0.031 A 
ATOM      9  S   UNL d   1     -46.116  11.001  23.694  0.00  0.00    -0.068 SA
ATOM     10  C   UNL d   1     -44.819  10.314  23.698  0.00  0.00     0.007 C 
BRANCH   5  11
ATOM     11  C   UNL d   1     -45.803  12.816  22.604  0.00  0.00     0.302 C 
ATOM     12  O   UNL d   1     -45.710  12.846  21.793  0.00  0.00    -0.259 OA
BRANCH  11  13
ATOM     13  O   UNL d   1     -45.931  13.503  23.042  0.00  0.00    -0.271 OA
BRANCH  13  14
ATOM     14  C   UNL d   1     -45.972  14.235  22.670  0.00  0.00     0.126 C 
ATOM     15  C   UNL d   1     -46.430  14.846  22.995  0.00  0.00     0.029 C 
ENDBRANCH  13  14
ENDBRANCH  11  13
ENDBRANCH   5  11
ENDBRANCH   1   4
BRANCH   2  16
ATOM     16  C   UNL d   1     -48.577  11.760  23.531  0.00  0.00     0.100 C 
BRANCH  16  17
ATOM     17  S   UNL d   1     -49.084  11.741  22.877  0.00  0.00    -0.056 SA
BRANCH  17  18
ATOM     18  C   UNL d   1     -49.550  12.407  22.689  0.00  0.00     0.141 A 
ATOM     19  N   UNL d   1     -49.814  12.975  23.232  0.00  0.00    -0.232 NA
ATOM     20  C   UNL d   1     -50.260  13.540  22.807  0.00  0.00     0.088 A 
ATOM     21  C   UNL d   1     -50.656  14.222  23.044  0.00  0.00     0.020 A 
ATOM     22  C   UNL d   1     -50.265  13.312  22.007  0.00  0.00     0.049 A 
ATOM     23  C   UNL d   1     -51.056  14.678  22.487  0.00  0.00     0.002 A 
ATOM     24  C   UNL d   1     -51.061  14.449  21.686  0.00  0.00     0.001 A 
ATOM     25  C   UNL d   1     -50.665  13.766  21.449  0.00  0.00     0.008 A 
ATOM     26  S   UNL d   1     -49.822  12.606  21.941  0.00  0.00    -0.060 SA
ENDBRANCH  17  18
ENDBRANCH  16  17
ENDBRANCH   2  16
TORSDOF 7
ENDMDL
MODEL 2
REMARK VINA RESULT:      -4.6      8.620     10.619
REMARK  7 active torsions:
REMARK  status: ('A' for Active; 'I' for Inactive)
REMARK    1  A    between atoms: N_9  and  C_1 
REMARK    2  A    between atoms: C_10  and  C_2 
REMARK    3  A    between atoms: C_5  and  S_14 
REMARK       I    between atoms: C_13  and  N_9 
REMARK    4  A    between atoms: O_18  and  C_10 
REMARK    5  A    between atoms: C_17  and  C_13 
REMARK    6  A    between atoms: S_14  and  C_17 
REMARK    7  A    between atoms: C_23  and  O_18 
ROOT
ATOM      1  N   UNL d   1     -38.212  14.261  20.129  0.00  0.00    -0.201 NA
ATOM      2  C   UNL d   1     -38.102  13.694  19.533  0.00  0.00     0.286 C 
ATOM      3  O   UNL d   1     -38.157  12.883  19.726  0.00  0.00    -0.265 OA
ENDROOT
BRANCH   1   4
ATOM      4  C   UNL d   1     -38.374  14.028  20.904  0.00  0.00     0.119 A 
ATOM      5  C   UNL d   1     -38.827  14.453  21.447  0.00  0.00     0.088 A 
ATOM      6  C   UNL d   1     -38.843  14.016  22.147  0.00  0.00     0.013 A 
ATOM      7  C   UNL d   1     -39.234  14.234  22.840  0.00  0.00     0.001 C 
ATOM      8  C   UNL d   1     -38.403  13.327  22.037  0.00  0.00     0.031 A 
ATOM      9  S   UNL d   1     -38.112  13.338  21.261  0.00  0.00    -0.068 SA
ATOM     10  C   UNL d   1     -38.277  12.741  22.592  0.00  0.00     0.007 C 
BRANCH   5  11
ATOM     11  C   UNL d   1     -39.198  15.181  21.318  0.00  0.00     0.302 C 
ATOM     12  O   UNL d   1     -38.799  15.875  21.481  0.00  0.00    -0.259 OA
BRANCH  11  13
ATOM     13  O   UNL d   1     -39.969  15.194  21.026  0.00  0.00    -0.271 OA
BRANCH  13  14
ATOM     14  C   UNL d   1     -40.416  15.884  21.053  0.00  0.00     0.126 C 
ATOM     15  C   UNL d   1     -41.154  15.921  20.676  0.00  0.00     0.029 C 
ENDBRANCH  13  14
ENDBRANCH  11  13
ENDBRANCH   5  11
ENDBRANCH   1   4
BRANCH   2  16
ATOM     16  C   UNL d   1     -37.940  13.927  18.759  0.00  0.00     0.100 C 
BRANCH  16  17
ATOM     17  S   UNL d   1     -38.380  13.616  18.130  0.00  0.00    -0.056 SA
BRANCH  17  18
ATOM     18  C   UNL d   1     -38.306  13.941  17.366  0.00  0.00     0.141 A 
ATOM     19  N   UNL d   1     -38.109  13.517  16.682  0.00  0.00    -0.232 NA
ATOM     20  C   UNL d   1     -38.097  14.058  16.044  0.00  0.00     0.088 A 
ATOM     21  C   UNL d   1     -37.940  13.962  15.242  0.00  0.00     0.020 A 
ATOM     22  C   UNL d   1     -38.287  14.811  16.346  0.00  0.00     0.049 A 
ATOM     23  C   UNL d   1     -37.970  14.613  14.738  0.00  0.00     0.002 A 
ATOM     24  C   UNL d   1     -38.160  15.366  15.040  0.00  0.00     0.001 A 
ATOM     25  C   UNL d   1     -38.318  15.462  15.843  0.00  0.00     0.008 A 
ATOM     26  S   UNL d   1     -38.415  14.730  17.168  0.00  0.00    -0.060 SA
ENDBRANCH  17  18
ENDBRANCH  16  17
ENDBRANCH   2  16
TORSDOF 7
ENDMDL
MODEL 3
REMARK VINA RESULT:      -4.3      1.822      4.972
REMARK  7 active torsions:
REMARK  status: ('A' for Active; 'I' for Inactive)
REMARK    1  A    between atoms: N_9  and  C_1 
REMARK    2  A    between atoms: C_10  and  C_2 
REMARK    3  A    between atoms: C_5  and  S_14 
REMARK       I    between atoms: C_13  and  N_9 
REMARK    4  A    between atoms: O_18  and  C_10 
REMARK    5  A    between atoms: C_17  and  C_13 
REMARK    6  A    between atoms: S_14  and  C_17 
REMARK    7  A    between atoms: C_23  and  O_18 
ROOT
ATOM      1  N   UNL d   1     -48.288  12.885  22.638  0.00  0.00    -0.201 NA
ATOM      2  C   UNL d   1     -47.607  12.458  22.849  0.00  0.00     0.286 C 
ATOM      3  O   UNL d   1     -47.680  11.795  23.351  0.00  0.00    -0.265 OA
ENDROOT
BRANCH   1   4
ATOM      4  C   UNL d   1     -49.029  12.656  22.921  0.00  0.00     0.119 A 
ATOM      5  C   UNL d   1     -49.685  13.149  22.998  0.00  0.00     0.088 A 
ATOM      6  C   UNL d   1     -50.302  12.692  23.300  0.00  0.00     0.013 A 
ATOM      7  C   UNL d   1     -51.064  12.961  23.465  0.00  0.00     0.001 C 
ATOM      8  C   UNL d   1     -50.028  11.921  23.408  0.00  0.00     0.031 A 
ATOM      9  S   UNL d   1     -49.235  11.902  23.171  0.00  0.00    -0.068 SA
ATOM     10  C   UNL d   1     -50.460  11.291  23.697  0.00  0.00     0.007 C 
BRANCH   5  11
ATOM     11  C   UNL d   1     -49.723  13.954  22.809  0.00  0.00     0.302 C 
ATOM     12  O   UNL d   1     -49.817  14.185  22.031  0.00  0.00    -0.259 OA
BRANCH  11  13
ATOM     13  O   UNL d   1     -49.664  14.512  23.413  0.00  0.00    -0.271 OA
BRANCH  13  14
ATOM     14  C   UNL d   1     -49.862  15.299  23.277  0.00  0.00     0.126 C 
ATOM     15  C   UNL d   1     -49.294  15.832  22.990  0.00  0.00     0.029 C 
ENDBRANCH  13  14
ENDBRANCH  11  13
ENDBRANCH   5  11
ENDBRANCH   1   4
BRANCH   2  16
ATOM     16  C   UNL d   1     -46.867  12.687  22.567  0.00  0.00     0.100 C 
BRANCH  16  17
ATOM     17  S   UNL d   1     -46.184  12.514  23.002  0.00  0.00    -0.056 SA
BRANCH  17  18
ATOM     18  C   UNL d   1     -45.436  12.537  22.635  0.00  0.00     0.141 A 
ATOM     19  N   UNL d   1     -44.792  12.053  22.828  0.00  0.00    -0.232 NA
ATOM     20  C   UNL d   1     -44.159  12.262  22.325  0.00  0.00     0.088 A 
ATOM     21  C   UNL d   1     -43.389  11.978  22.258  0.00  0.00     0.020 A 
ATOM     22  C   UNL d   1     -44.422  12.875  21.826  0.00  0.00     0.049 A 
ATOM     23  C   UNL d   1     -42.880  12.301  21.696  0.00  0.00     0.002 A 
ATOM     24  C   UNL d   1     -43.144  12.914  21.198  0.00  0.00     0.001 A 
ATOM     25  C   UNL d   1     -43.914  13.199  21.265  0.00  0.00     0.008 A 
ATOM     26  S   UNL d   1     -45.217  13.040  22.025  0.00  0.00    -0.060 SA
ENDBRANCH  17  18
ENDBRANCH  16  17
ENDBRANCH   2  16
TORSDOF 7
ENDMDL
MODEL 4
REMARK VINA RESULT:      -4.2      4.512      6.177
REMARK  7 active torsions:
REMARK  status: ('A' for Active; 'I' for Inactive)
REMARK    1  A    between atoms: N_9  and  C_1 
REMARK    2  A    between atoms: C_10  and  C_2 
REMARK    3  A    between atoms: C_5  and  S_14 
REMARK       I    between atoms: C_13  and  N_9 
REMARK    4  A    between atoms: O_18  and  C_10 
REMARK    5  A    between atoms: C_17  and  C_13 
REMARK    6  A    between atoms: S_14  and  C_17 
REMARK    7  A    between atoms: C_23  and  O_18 
ROOT
ATOM      1  N   UNL d   1     -41.695  14.039  21.082  0.00  0.00    -0.201 NA
ATOM      2  C   UNL d   1     -42.311  13.503  20.926  0.00  0.00     0.286 C 
ATOM      3  O   UNL d   1     -42.330  13.106  20.192  0.00  0.00    -0.265 OA
ENDROOT
BRANCH   1   4
ATOM      4  C   UNL d   1     -41.108  14.177  20.519  0.00  0.00     0.119 A 
ATOM      5  C   UNL d   1     -40.329  14.391  20.682  0.00  0.00     0.088 A 
ATOM      6  C   UNL d   1     -39.940  14.471  19.958  0.00  0.00     0.013 A 
ATOM      7  C   UNL d   1     -39.148  14.680  19.859  0.00  0.00     0.001 C 
ATOM      8  C   UNL d   1     -40.477  14.307  19.353  0.00  0.00     0.031 A 
ATOM      9  S   UNL d   1     -41.203  14.124  19.706  0.00  0.00    -0.068 SA
ATOM     10  C   UNL d   1     -40.319  14.322  18.552  0.00  0.00     0.007 C 
BRANCH   5  11
ATOM     11  C   UNL d   1     -39.995  14.506  21.430  0.00  0.00     0.302 C 
ATOM     12  O   UNL d   1     -40.065  15.232  21.799  0.00  0.00    -0.259 OA
BRANCH  11  13
ATOM     13  O   UNL d   1     -39.595  13.883  21.792  0.00  0.00    -0.271 OA
BRANCH  13  14
ATOM     14  C   UNL d   1     -39.201  13.996  22.505  0.00  0.00     0.126 C 
ATOM     15  C   UNL d   1     -38.836  13.357  22.890  0.00  0.00     0.029 C 
ENDBRANCH  13  14
ENDBRANCH  11  13
ENDBRANCH   5  11
ENDBRANCH   1   4
BRANCH   2  16
ATOM     16  C   UNL d   1     -42.898  13.365  21.489  0.00  0.00     0.100 C 
BRANCH  16  17
ATOM     17  S   UNL d   1     -43.536  12.869  21.312  0.00  0.00    -0.056 SA
BRANCH  17  18
ATOM     18  C   UNL d   1     -44.240  12.916  21.756  0.00  0.00     0.141 A 
ATOM     19  N   UNL d   1     -44.720  13.588  21.824  0.00  0.00    -0.232 NA
ATOM     20  C   UNL d   1     -45.363  13.389  22.319  0.00  0.00     0.088 A 
ATOM     21  C   UNL d   1     -46.011  13.824  22.584  0.00  0.00     0.020 A 
ATOM     22  C   UNL d   1     -45.270  12.595  22.551  0.00  0.00     0.049 A 
ATOM     23  C   UNL d   1     -46.566  13.470  23.079  0.00  0.00     0.002 A 
ATOM     24  C   UNL d   1     -46.473  12.675  23.311  0.00  0.00     0.001 A 
ATOM     25  C   UNL d   1     -45.824  12.241  23.046  0.00  0.00     0.008 A 
ATOM     26  S   UNL d   1     -44.570  12.308  22.198  0.00  0.00    -0.060 SA
ENDBRANCH  17  18
ENDBRANCH  16  17
ENDBRANCH   2  16
TORSDOF 7
ENDMDL
MODEL 5
REMARK VINA RESULT:      -3.9      8.654     10.099
REMARK  7 active torsions:
REMARK  status: ('A' for Active; 'I' for Inactive)
REMARK    1  A    between atoms: N_9  and  C_1 
REMARK    2  A    between atoms: C_10  and  C_2 
REMARK    3  A    between atoms: C_5  and  S_14 
REMARK       I    between atoms: C_13  and  N_9 
REMARK    4  A    between atoms: O_18  and  C_10 
REMARK    5  A    between atoms: C_17  and  C_13 
REMARK    6  A    between atoms: S_14  and  C_17 
REMARK    7  A    between atoms: C_23  and  O_18 
ROOT
ATOM      1  N   UNL d   1     -40.103  14.824  18.831  0.00  0.00    -0.201 NA
ATOM      2  C   UNL d   1     -40.508  15.172  19.468  0.00  0.00     0.286 C 
ATOM      3  O   UNL d   1     -41.087  15.754  19.314  0.00  0.00    -0.265 OA
ENDROOT
BRANCH   1   4
ATOM      4  C   UNL d   1     -40.270  15.049  18.056  0.00  0.00     0.119 A 
ATOM      5  C   UNL d   1     -39.779  14.927  17.405  0.00  0.00     0.088 A 
ATOM      6  C   UNL d   1     -40.164  15.239  16.745  0.00  0.00     0.013 A 
ATOM      7  C   UNL d   1     -39.872  15.237  15.973  0.00  0.00     0.001 C 
ATOM      8  C   UNL d   1     -40.888  15.552  16.987  0.00  0.00     0.031 A 
ATOM      9  S   UNL d   1     -40.951  15.432  17.804  0.00  0.00    -0.068 SA
ATOM     10  C   UNL d   1     -41.441  15.914  16.508  0.00  0.00     0.007 C 
BRANCH   5  11
ATOM     11  C   UNL d   1     -39.037  14.560  17.408  0.00  0.00     0.302 C 
ATOM     12  O   UNL d   1     -38.360  15.013  17.469  0.00  0.00    -0.259 OA
BRANCH  11  13
ATOM     13  O   UNL d   1     -38.994  13.739  17.350  0.00  0.00    -0.271 OA
BRANCH  13  14
ATOM     14  C   UNL d   1     -38.282  13.368  17.169  0.00  0.00     0.126 C 
ATOM     15  C   UNL d   1     -38.215  12.543  17.217  0.00  0.00     0.029 C 
ENDBRANCH  13  14
ENDBRANCH  11  13
ENDBRANCH   5  11
ENDBRANCH   1   4
BRANCH   2  16
ATOM     16  C   UNL d   1     -40.341  14.946  20.243  0.00  0.00     0.100 C 
BRANCH  16  17
ATOM     17  S   UNL d   1     -39.733  14.406  20.398  0.00  0.00    -0.056 SA
BRANCH  17  18
ATOM     18  C   UNL d   1     -39.423  14.332  21.168  0.00  0.00     0.141 A 
ATOM     19  N   UNL d   1     -39.265  13.617  21.555  0.00  0.00    -0.232 NA
ATOM     20  C   UNL d   1     -38.962  13.801  22.312  0.00  0.00     0.088 A 
ATOM     21  C   UNL d   1     -38.710  13.327  22.936  0.00  0.00     0.020 A 
ATOM     22  C   UNL d   1     -38.936  14.631  22.381  0.00  0.00     0.049 A 
ATOM     23  C   UNL d   1     -38.432  13.675  23.629  0.00  0.00     0.002 A 
ATOM     24  C   UNL d   1     -38.407  14.505  23.698  0.00  0.00     0.001 A 
ATOM     25  C   UNL d   1     -38.659  14.979  23.073  0.00  0.00     0.008 A 
ATOM     26  S   UNL d   1     -39.224  14.954  21.666  0.00  0.00    -0.060 SA
ENDBRANCH  17  18
ENDBRANCH  16  17
ENDBRANCH   2  16
TORSDOF 7
ENDMDL
MODEL 6
REMARK VINA RESULT:      -3.8      5.207      6.877
REMARK  7 active torsions:
REMARK  status: ('A' for Active; 'I' for Inactive)
REMARK    1  A    between atoms: N_9  and  C_1 
REMARK    2  A    between atoms: C_10  and  C_2 
REMARK    3  A    between atoms: C_5  and  S_14 
REMARK       I    between atoms: C_13  and  N_9 
REMARK    4  A    between atoms: O_18  and  C_10 
REMARK    5  A    between atoms: C_17  and  C_13 
REMARK    6  A    between atoms: S_14  and  C_17 
REMARK    7  A    between atoms: C_23  and  O_18 
ROOT
ATOM      1  N   UNL d   1     -41.312  14.191  20.085  0.00  0.00    -0.201 NA
ATOM      2  C   UNL d   1     -41.566  13.841  20.794  0.00  0.00     0.286 C 
ATOM      3  O   UNL d   1     -41.000  13.639  21.374  0.00  0.00    -0.265 OA
ENDROOT
BRANCH   1   4
ATOM      4  C   UNL d   1     -40.511  14.337  19.953  0.00  0.00     0.119 A 
ATOM      5  C   UNL d   1     -40.159  14.446  19.216  0.00  0.00     0.088 A 
ATOM      6  C   UNL d   1     -39.354  14.575  19.345  0.00  0.00     0.013 A 
ATOM      7  C   UNL d   1     -38.789  14.710  18.759  0.00  0.00     0.001 C 
ATOM      8  C   UNL d   1     -39.211  14.547  20.157  0.00  0.00     0.031 A 
ATOM      9  S   UNL d   1     -39.934  14.399  20.533  0.00  0.00    -0.068 SA
ATOM     10  C   UNL d   1     -38.488  14.647  20.524  0.00  0.00     0.007 C 
BRANCH   5  11
ATOM     11  C   UNL d   1     -40.538  14.429  18.480  0.00  0.00     0.302 C 
ATOM     12  O   UNL d   1     -40.640  13.717  18.093  0.00  0.00    -0.259 OA
BRANCH  11  13
ATOM     13  O   UNL d   1     -40.807  15.134  18.150  0.00  0.00    -0.271 OA
BRANCH  13  14
ATOM     14  C   UNL d   1     -41.071  15.158  17.371  0.00  0.00     0.126 C 
ATOM     15  C   UNL d   1     -41.358  15.866  17.046  0.00  0.00     0.029 C 
ENDBRANCH  13  14
ENDBRANCH  11  13
ENDBRANCH   5  11
ENDBRANCH   1   4
BRANCH   2  16
ATOM     16  C   UNL d   1     -42.367  13.695  20.926  0.00  0.00     0.100 C 
BRANCH  16  17
ATOM     17  S   UNL d   1     -42.615  12.955  21.200  0.00  0.00    -0.056 SA
BRANCH  17  18
ATOM     18  C   UNL d   1     -43.370  12.867  21.544  0.00  0.00     0.141 A 
ATOM     19  N   UNL d   1     -43.598  12.247  22.045  0.00  0.00    -0.232 NA
ATOM     20  C   UNL d   1     -44.395  12.378  22.260  0.00  0.00     0.088 A 
ATOM     21  C   UNL d   1     -44.915  11.955  22.739  0.00  0.00     0.020 A 
ATOM     22  C   UNL d   1     -44.647  13.079  21.887  0.00  0.00     0.049 A 
ATOM     23  C   UNL d   1     -45.684  12.227  22.849  0.00  0.00     0.002 A 
ATOM     24  C   UNL d   1     -45.936  12.929  22.476  0.00  0.00     0.001 A 
ATOM     25  C   UNL d   1     -45.416  13.351  21.997  0.00  0.00     0.008 A 
ATOM     26  S   UNL d   1     -44.004  13.377  21.445  0.00  0.00    -0.060 SA
ENDBRANCH  17  18
ENDBRANCH  16  17
ENDBRANCH   2  16
TORSDOF 7
ENDMDL
MODEL 7
REMARK VINA RESULT:      -3.4      1.270      1.639
REMARK  7 active torsions:
REMARK  status: ('A' for Active; 'I' for Inactive)
REMARK    1  A    between atoms: N_9  and  C_1 
REMARK    2  A    between atoms: C_10  and  C_2 
REMARK    3  A    between atoms: C_5  and  S_14 
REMARK       I    between atoms: C_13  and  N_9 
REMARK    4  A    between atoms: O_18  and  C_10 
REMARK    5  A    between atoms: C_17  and  C_13 
REMARK    6  A    between atoms: S_14  and  C_17 
REMARK    7  A    between atoms: C_23  and  O_18 
ROOT
ATOM      1  N   UNL d   1     -46.228  12.410  22.958  0.00  0.00    -0.201 NA
ATOM      2  C   UNL d   1     -47.009  12.315  23.222  0.00  0.00     0.286 C 
ATOM      3  O   UNL d   1     -47.227  11.605  23.605  0.00  0.00    -0.265 OA
ENDROOT
BRANCH   1   4
ATOM      4  C   UNL d   1     -45.672  11.811  23.071  0.00  0.00     0.119 A 
ATOM      5  C   UNL d   1     -44.875  11.851  22.865  0.00  0.00     0.088 A 
ATOM      6  C   UNL d   1     -44.529  11.133  23.077  0.00  0.00     0.013 A 
ATOM      7  C   UNL d   1     -43.736  10.931  22.971  0.00  0.00     0.001 C 
ATOM      8  C   UNL d   1     -45.110  10.652  23.413  0.00  0.00     0.031 A 
ATOM      9  S   UNL d   1     -45.820  11.077  23.407  0.00  0.00    -0.068 SA
ATOM     10  C   UNL d   1     -45.003   9.894  23.698  0.00  0.00     0.007 C 
BRANCH   5  11
ATOM     11  C   UNL d   1     -44.489  12.492  22.510  0.00  0.00     0.302 C 
ATOM     12  O   UNL d   1     -44.548  13.236  22.842  0.00  0.00    -0.259 OA
BRANCH  11  13
ATOM     13  O   UNL d   1     -44.048  12.367  21.825  0.00  0.00    -0.271 OA
BRANCH  13  14
ATOM     14  C   UNL d   1     -43.838  12.998  21.341  0.00  0.00     0.126 C 
ATOM     15  C   UNL d   1     -43.209  12.925  20.805  0.00  0.00     0.029 C 
ENDBRANCH  13  14
ENDBRANCH  11  13
ENDBRANCH   5  11
ENDBRANCH   1   4
BRANCH   2  16
ATOM     16  C   UNL d   1     -47.565  12.914  23.109  0.00  0.00     0.100 C 
BRANCH  16  17
ATOM     17  S   UNL d   1     -48.367  12.727  23.023  0.00  0.00    -0.056 SA
BRANCH  17  18
ATOM     18  C   UNL d   1     -48.943  13.329  23.055  0.00  0.00     0.141 A 
ATOM     19  N   UNL d   1     -48.857  14.092  22.745  0.00  0.00    -0.232 NA
ATOM     20  C   UNL d   1     -49.564  14.509  22.899  0.00  0.00     0.088 A 
ATOM     21  C   UNL d   1     -49.801  15.278  22.725  0.00  0.00     0.020 A 
ATOM     22  C   UNL d   1     -50.079  13.994  23.303  0.00  0.00     0.049 A 
ATOM     23  C   UNL d   1     -50.549  15.537  22.953  0.00  0.00     0.002 A 
ATOM     24  C   UNL d   1     -51.064  15.022  23.358  0.00  0.00     0.001 A 
ATOM     25  C   UNL d   1     -50.827  14.253  23.531  0.00  0.00     0.008 A 
ATOM     26  S   UNL d   1     -49.686  13.263  23.396  0.00  0.00    -0.060 SA
ENDBRANCH  17  18
ENDBRANCH  16  17
ENDBRANCH   2  16
TORSDOF 7
ENDMDL
MODEL 8
REMARK VINA RESULT:      -3.0      1.618      2.666
REMARK  7 active torsions:
REMARK  status: ('A' for Active; 'I' for Inactive)
REMARK    1  A    between atoms: N_9  and  C_1 
REMARK    2  A    between atoms: C_10  and  C_2 
REMARK    3  A    between atoms: C_5  and  S_14 
REMARK       I    between atoms: C_13  and  N_9 
REMARK    4  A    between atoms: O_18  and  C_10 
REMARK    5  A    between atoms: C_17  and  C_13 
REMARK    6  A    between atoms: S_14  and  C_17 
REMARK    7  A    between atoms: C_23  and  O_18 
ROOT
ATOM      1  N   UNL d   1     -46.020  12.982  22.638  0.00  0.00    -0.201 NA
ATOM      2  C   UNL d   1     -46.328  13.753  22.663  0.00  0.00     0.286 C 
ATOM      3  O   UNL d   1     -45.855  14.389  22.401  0.00  0.00    -0.265 OA
ENDROOT
BRANCH   1   4
ATOM      4  C   UNL d   1     -45.256  12.845  22.358  0.00  0.00     0.119 A 
ATOM      5  C   UNL d   1     -44.794  12.184  22.528  0.00  0.00     0.088 A 
ATOM      6  C   UNL d   1     -44.075  12.278  22.134  0.00  0.00     0.013 A 
ATOM      7  C   UNL d   1     -43.445  11.746  22.149  0.00  0.00     0.001 C 
ATOM      8  C   UNL d   1     -44.094  12.994  21.723  0.00  0.00     0.031 A 
ATOM      9  S   UNL d   1     -44.830  13.344  21.865  0.00  0.00    -0.068 SA
ATOM     10  C   UNL d   1     -43.494  13.300  21.261  0.00  0.00     0.007 C 
BRANCH   5  11
ATOM     11  C   UNL d   1     -45.008  11.542  23.005  0.00  0.00     0.302 C 
ATOM     12  O   UNL d   1     -45.797  11.392  23.154  0.00  0.00    -0.259 OA
BRANCH  11  13
ATOM     13  O   UNL d   1     -44.418  11.063  23.323  0.00  0.00    -0.271 OA
BRANCH  13  14
ATOM     14  C   UNL d   1     -44.608  10.354  23.694  0.00  0.00     0.126 C 
ATOM     15  C   UNL d   1     -44.069   9.723  23.697  0.00  0.00     0.029 C 
ENDBRANCH  13  14
ENDBRANCH  11  13
ENDBRANCH   5  11
ENDBRANCH   1   4
BRANCH   2  16
ATOM     16  C   UNL d   1     -47.092  13.889  22.943  0.00  0.00     0.100 C 
BRANCH  16  17
ATOM     17  S   UNL d   1     -47.548  14.503  22.626  0.00  0.00    -0.056 SA
BRANCH  17  18
ATOM     18  C   UNL d   1     -48.361  14.556  22.804  0.00  0.00     0.141 A 
ATOM     19  N   UNL d   1     -48.750  15.239  23.066  0.00  0.00    -0.232 NA
ATOM     20  C   UNL d   1     -49.555  15.044  23.176  0.00  0.00     0.088 A 
ATOM     21  C   UNL d   1     -50.202  15.488  23.425  0.00  0.00     0.020 A 
ATOM     22  C   UNL d   1     -49.651  14.240  22.979  0.00  0.00     0.049 A 
ATOM     23  C   UNL d   1     -50.944  15.135  23.480  0.00  0.00     0.002 A 
ATOM     24  C   UNL d   1     -51.040  14.332  23.284  0.00  0.00     0.001 A 
ATOM     25  C   UNL d   1     -50.393  13.887  23.034  0.00  0.00     0.008 A 
ATOM     26  S   UNL d   1     -48.904  13.944  22.749  0.00  0.00    -0.060 SA
ENDBRANCH  17  18
ENDBRANCH  16  17
ENDBRANCH   2  16
TORSDOF 7
ENDMDL
MODEL 9
REMARK VINA RESULT:      -2.7      1.782      5.369
REMARK  7 active torsions:
REMARK  status: ('A' for Active; 'I' for Inactive)
REMARK    1  A    between atoms: N_9  and  C_1 
REMARK    2  A    between atoms: C_10  and  C_2 
REMARK    3  A    between atoms: C_5  and  S_14 
REMARK       I    between atoms: C_13  and  N_9 
REMARK    4  A    between atoms: O_18  and  C_10 
REMARK    5  A    between atoms: C_17  and  C_13 
REMARK    6  A    between atoms: S_14  and  C_17 
REMARK    7  A    between atoms: C_23  and  O_18 
ROOT
ATOM      1  N   UNL d   1     -48.422  13.723  22.533  0.00  0.00    -0.201 NA
ATOM      2  C   UNL d   1     -47.639  13.983  22.626  0.00  0.00     0.286 C 
ATOM      3  O   UNL d   1     -47.492  14.703  23.023  0.00  0.00    -0.265 OA
ENDROOT
BRANCH   1   4
ATOM      4  C   UNL d   1     -49.049  14.169  22.829  0.00  0.00     0.119 A 
ATOM      5  C   UNL d   1     -49.818  13.896  22.949  0.00  0.00     0.088 A 
ATOM      6  C   UNL d   1     -50.258  14.525  23.251  0.00  0.00     0.013 A 
ATOM      7  C   UNL d   1     -51.058  14.499  23.452  0.00  0.00     0.001 C 
ATOM      8  C   UNL d   1     -49.764  15.183  23.316  0.00  0.00     0.031 A 
ATOM      9  S   UNL d   1     -49.012  14.958  23.053  0.00  0.00    -0.068 SA
ATOM     10  C   UNL d   1     -49.979  15.922  23.591  0.00  0.00     0.007 C 
BRANCH   5  11
ATOM     11  C   UNL d   1     -50.099  13.132  22.797  0.00  0.00     0.302 C 
ATOM     12  O   UNL d   1     -50.495  12.977  22.100  0.00  0.00    -0.259 OA
BRANCH  11  13
ATOM     13  O   UNL d   1     -49.975  12.539  23.355  0.00  0.00    -0.271 OA
BRANCH  13  14
ATOM     14  C   UNL d   1     -50.134  11.753  23.174  0.00  0.00     0.126 C 
ATOM     15  C   UNL d   1     -49.915  11.148  23.698  0.00  0.00     0.029 C 
ENDBRANCH  13  14
ENDBRANCH  11  13
ENDBRANCH   5  11
ENDBRANCH   1   4
BRANCH   2  16
ATOM     16  C   UNL d   1     -47.012  13.536  22.330  0.00  0.00     0.100 C 
BRANCH  16  17
ATOM     17  S   UNL d   1     -46.519  13.118  22.847  0.00  0.00    -0.056 SA
BRANCH  17  18
ATOM     18  C   UNL d   1     -45.748  12.905  22.610  0.00  0.00     0.141 A 
ATOM     19  N   UNL d   1     -45.299  12.290  22.938  0.00  0.00    -0.232 NA
ATOM     20  C   UNL d   1     -44.565  12.273  22.537  0.00  0.00     0.088 A 
ATOM     21  C   UNL d   1     -43.903  11.790  22.619  0.00  0.00     0.020 A 
ATOM     22  C   UNL d   1     -44.573  12.879  21.966  0.00  0.00     0.049 A 
ATOM     23  C   UNL d   1     -43.248  11.909  22.133  0.00  0.00     0.002 A 
ATOM     24  C   UNL d   1     -43.256  12.515  21.562  0.00  0.00     0.001 A 
ATOM     25  C   UNL d   1     -43.919  12.997  21.481  0.00  0.00     0.008 A 
ATOM     26  S   UNL d   1     -45.311  13.267  22.018  0.00  0.00    -0.060 SA
ENDBRANCH  17  18
ENDBRANCH  16  17
ENDBRANCH   2  16
TORSDOF 7
ENDMDL
