MODEL 1
REMARK VINA RESULT:      75.9      0.000      0.000
REMARK  3 active torsions:
REMARK  status: ('A' for Active; 'I' for Inactive)
REMARK    1  A    between atoms: C_8  and  C_6 
REMARK    2  A    between atoms: C_9  and  C_8 
REMARK       I    between atoms: N_10  and  C_9 
REMARK    3  A    between atoms: C_14  and  N_10 
ROOT
ATOM      1  N   UNL d   1      58.691  49.491  51.866  0.00  0.00    -0.207 NA
ATOM      2  N   UNL d   1      59.233  49.454  50.279  0.00  0.00    -0.240 NA
ATOM      3  C   UNL d   1      59.435  49.428  51.543  0.00  0.00     0.297 A 
ATOM      4  C   UNL d   1      57.959  49.559  51.494  0.00  0.00     0.086 A 
ATOM      5  C   UNL d   1      58.429  49.526  50.135  0.00  0.00     0.083 A 
ATOM      6  C   UNL d   1      59.615  49.415  51.006  0.00  0.00     0.144 A 
ATOM      7  C   UNL d   1      57.802  49.578  50.674  0.00  0.00     0.035 A 
ATOM      8  O   UNL d   1      60.050  49.370  52.085  0.00  0.00    -0.264 OA
ATOM      9  C   UNL d   1      57.023  49.649  50.413  0.00  0.00     0.003 A 
ATOM     10  C   UNL d   1      58.275  49.545  49.325  0.00  0.00     0.019 A 
ATOM     11  C   UNL d   1      57.335  49.610  52.035  0.00  0.00     0.019 A 
ATOM     12  C   UNL d   1      56.559  49.681  51.765  0.00  0.00     0.002 A 
ATOM     13  C   UNL d   1      57.485  49.617  49.052  0.00  0.00     0.002 A 
ATOM     14  C   UNL d   1      56.404  49.700  50.955  0.00  0.00     0.000 A 
ATOM     15  C   UNL d   1      56.867  49.668  49.594  0.00  0.00     0.000 A 
ENDROOT
BRANCH   6  16
ATOM     16  C   UNL d   1      60.433  49.343  50.939  0.00  0.00     0.086 C 
BRANCH  16  17
ATOM     17  C   UNL d   1      60.886  49.205  51.623  0.00  0.00     0.281 C 
ATOM     18  N   UNL d   1      61.403  48.559  51.650  0.00  0.00    -0.208 NA
ATOM     19  O   UNL d   1      60.824  49.708  52.274  0.00  0.00    -0.265 OA
BRANCH  18  20
ATOM     20  C   UNL d   1      61.469  48.053  51.001  0.00  0.00     0.085 A 
ATOM     21  C   UNL d   1      61.505  47.238  51.116  0.00  0.00     0.019 A 
ATOM     22  C   UNL d   1      61.571  46.735  50.467  0.00  0.00     0.002 A 
ATOM     23  C   UNL d   1      61.601  47.046  49.705  0.00  0.00     0.000 A 
ATOM     24  C   UNL d   1      61.565  47.869  49.592  0.00  0.00     0.002 A 
ATOM     25  C   UNL d   1      61.666  46.554  49.068  0.00  0.00     0.000 C 
ATOM     26  C   UNL d   1      61.499  48.367  50.243  0.00  0.00     0.019 A 
ENDBRANCH  18  20
ENDBRANCH  16  17
ENDBRANCH   6  16
TORSDOF 3
ENDMDL
