MODEL 1
REMARK VINA RESULT:      11.0      0.000      0.000
REMARK  6 active torsions:
REMARK  status: ('A' for Active; 'I' for Inactive)
REMARK    1  A    between atoms: N_6  and  C_1 
REMARK    2  A    between atoms: C_18  and  N_4 
REMARK       I    between atoms: C_8  and  N_6 
REMARK    3  A    between atoms: C_7  and  C_8 
REMARK    4  A    between atoms: C_11  and  C_7 
REMARK    5  A    between atoms: C_19  and  C_9 
REMARK    6  A    between atoms: C_12  and  C_11 
ROOT
ATOM      1  C   UNL d   1     -41.594-121.689 -51.916  0.00  0.00     0.128 C 
ATOM      2  C   UNL d   1     -42.037-121.140 -51.524  0.00  0.00     0.106 C 
ATOM      3  N   UNL d   1     -42.485-120.581 -51.061  0.00  0.00    -0.191 NA
ENDROOT
BRANCH   1   4
ATOM      4  C   UNL d   1     -41.604-121.699 -52.757  0.00  0.00     0.289 C 
ATOM      5  N   UNL d   1     -41.736-122.419 -53.131  0.00  0.00    -0.201 NA
ATOM      6  O   UNL d   1     -41.489-121.034 -53.173  0.00  0.00    -0.264 OA
BRANCH   5   7
ATOM      7  C   UNL d   1     -41.747-122.434 -53.975  0.00  0.00     0.160 A 
ATOM      8  C   UNL d   1     -42.019-121.864 -54.507  0.00  0.00     0.298 A 
ATOM      9  N   UNL d   1     -41.893-122.173 -55.269  0.00  0.00    -0.209 N 
ATOM     10  O   UNL d   1     -42.340-121.154 -54.348  0.00  0.00    -0.263 OA
ATOM     11  N   UNL d   1     -41.553-122.911 -55.158  0.00  0.00    -0.238 N 
ATOM     12  C   UNL d   1     -41.449-123.104 -54.377  0.00  0.00     0.104 A 
ATOM     13  C   UNL d   1     -41.329-123.430 -55.812  0.00  0.00     0.120 C 
ATOM     14  C   UNL d   1     -41.124-123.802 -54.081  0.00  0.00     0.022 C 
BRANCH   9  15
ATOM     15  C   UNL d   1     -42.055-121.852 -56.011  0.00  0.00     0.085 A 
ATOM     16  C   UNL d   1     -41.575-121.242 -56.291  0.00  0.00     0.019 A 
ATOM     17  C   UNL d   1     -41.734-120.911 -57.044  0.00  0.00     0.002 A 
ATOM     18  C   UNL d   1     -42.360-121.191 -57.494  0.00  0.00     0.000 A 
ATOM     19  C   UNL d   1     -42.843-121.811 -57.204  0.00  0.00     0.002 A 
ATOM     20  C   UNL d   1     -42.681-122.133 -56.462  0.00  0.00     0.019 A 
ENDBRANCH   9  15
ENDBRANCH   5   7
ENDBRANCH   1   4
BRANCH   1  21
ATOM     21  C   UNL d   1     -41.126-122.250 -51.537  0.00  0.00     0.040 C 
BRANCH  21  22
ATOM     22  C   UNL d   1     -41.466-122.756 -50.917  0.00  0.00     0.101 A 
ATOM     23  O   UNL d   1     -41.737-122.512 -50.139  0.00  0.00    -0.307 OA
ATOM     24  C   UNL d   1     -42.011-123.190 -49.757  0.00  0.00     0.100 A 
ATOM     25  C   UNL d   1     -41.914-123.817 -50.270  0.00  0.00     0.027 A 
ATOM     26  C   UNL d   1     -41.578-123.521 -50.974  0.00  0.00     0.027 A 
BRANCH  24  27
ATOM     27  C   UNL d   1     -42.328-123.201 -48.977  0.00  0.00     0.023 A 
ATOM     28  C   UNL d   1     -43.104-123.423 -48.865  0.00  0.00     0.003 A 
ATOM     29  C   UNL d   1     -43.421-123.434 -48.085  0.00  0.00     0.011 A 
ATOM     30  C   UNL d   1     -42.946-123.224 -47.458  0.00  0.00     0.058 A 
ATOM     31  C   UNL d   1     -42.171-123.002 -47.570  0.00  0.00     0.011 A 
ATOM     32 CL   UNL d   1     -43.263-123.235 -46.677  0.00  0.00    -0.082 Cl
ATOM     33  C   UNL d   1     -41.854-122.991 -48.350  0.00  0.00     0.003 A 
ENDBRANCH  24  27
ENDBRANCH  21  22
ENDBRANCH   1  21
TORSDOF 6
ENDMDL
