MODEL 1
REMARK VINA RESULT:      27.7      0.000      0.000
REMARK  3 active torsions:
REMARK  status: ('A' for Active; 'I' for Inactive)
REMARK    1  A    between atoms: C_2  and  C_1 
REMARK       I    between atoms: N_7  and  C_2 
REMARK    2  A    between atoms: C_9  and  N_7 
REMARK    3  A    between atoms: O_16  and  C_10 
ROOT
ATOM      1  C   UNL d   1     -50.329  25.055  33.446  0.00  0.00     0.280 C 
ATOM      2  N   UNL d   1     -50.481  24.262  33.610  0.00  0.00    -0.208 NA
ATOM      3  O   UNL d   1     -49.549  25.303  33.309  0.00  0.00    -0.265 OA
ENDROOT
BRANCH   1   4
ATOM      4  C   UNL d   1     -50.947  25.602  33.417  0.00  0.00     0.065 A 
ATOM      5  C   UNL d   1     -50.870  26.419  33.383  0.00  0.00     0.011 A 
ATOM      6  C   UNL d   1     -51.627  26.738  33.363  0.00  0.00     0.030 A 
ATOM      7  C   UNL d   1     -50.210  26.918  33.367  0.00  0.00     0.001 A 
ATOM      8  C   UNL d   1     -51.732  27.561  33.327  0.00  0.00     0.006 A 
ATOM      9  S   UNL d   1     -52.169  26.122  33.385  0.00  0.00    -0.086 SA
ATOM     10  C   UNL d   1     -51.082  28.052  33.311  0.00  0.00     0.001 A 
ATOM     11  C   UNL d   1     -50.319  27.733  33.331  0.00  0.00     0.000 A 
ATOM     12  C   UNL d   1     -51.736  25.419  33.419  0.00  0.00     0.040 A 
ENDBRANCH   1   4
BRANCH   2  13
ATOM     13  C   UNL d   1     -51.259  24.017  33.746  0.00  0.00     0.085 A 
ATOM     14  C   UNL d   1     -51.872  24.344  33.307  0.00  0.00     0.021 A 
ATOM     15  C   UNL d   1     -52.657  24.099  33.442  0.00  0.00     0.026 A 
ATOM     16  C   UNL d   1     -52.821  23.528  34.015  0.00  0.00     0.094 A 
ATOM     17  C   UNL d   1     -52.199  23.203  34.453  0.00  0.00     0.026 A 
ATOM     18  C   UNL d   1     -51.423  23.446  34.319  0.00  0.00     0.021 A 
BRANCH  16  19
ATOM     19  O   UNL d   1     -53.611  23.292  34.139  0.00  0.00    -0.328 OA
ATOM     20  C   UNL d   1     -54.153  23.298  33.516  0.00  0.00     0.181 C 
ENDBRANCH  16  19
ENDBRANCH   2  13
TORSDOF 3
ENDMDL
