MODEL 1
REMARK VINA RESULT:      -1.6      0.000      0.000
REMARK  7 active torsions:
REMARK  status: ('A' for Active; 'I' for Inactive)
REMARK    1  A    between atoms: C_11  and  N_3 
REMARK    2  A    between atoms: C_10  and  C_4 
REMARK    3  A    between atoms: C_16  and  C_11 
REMARK    4  A    between atoms: N_13  and  C_17 
REMARK    5  A    between atoms: C_26  and  N_14 
REMARK    6  A    between atoms: C_17  and  C_16 
REMARK    7  A    between atoms: C_28  and  C_26 
ROOT
ATOM      1  C   UNL d   1      59.524  -1.183  29.214  0.00  0.00     0.137 A 
ATOM      2  N   UNL d   1      59.926  -1.858  28.932  0.00  0.00    -0.259 N 
ATOM      3  N   UNL d   1      58.745  -1.408  29.359  0.00  0.00    -0.287 N 
ATOM      4  C   UNL d   1      59.924  -0.472  29.295  0.00  0.00     0.054 A 
ATOM      5  C   UNL d   1      60.729  -1.806  28.736  0.00  0.00     0.266 A 
ATOM      6  C   UNL d   1      59.393  -2.488  28.908  0.00  0.00     0.084 A 
ATOM      7  C   UNL d   1      58.653  -2.206  29.175  0.00  0.00     0.082 A 
ATOM      8  C   UNL d   1      60.724  -0.417  29.100  0.00  0.00     0.009 A 
ATOM      9  C   UNL d   1      61.133  -1.083  28.819  0.00  0.00     0.061 A 
ATOM     10  O   UNL d   1      61.133  -2.473  28.456  0.00  0.00    -0.267 OA
ATOM     11  C   UNL d   1      59.470  -3.274  28.682  0.00  0.00     0.019 A 
ATOM     12  C   UNL d   1      61.126   0.301  29.182  0.00  0.00     0.000 C 
ATOM     13  C   UNL d   1      58.019  -2.722  29.206  0.00  0.00     0.019 A 
ATOM     14  C   UNL d   1      58.826  -3.777  28.720  0.00  0.00     0.002 A 
ATOM     15  C   UNL d   1      58.092  -3.498  28.985  0.00  0.00     0.002 A 
ENDROOT
BRANCH   3  16
ATOM     16  C   UNL d   1      58.012  -1.139  29.621  0.00  0.00     0.125 C 
BRANCH  16  17
ATOM     17  C   UNL d   1      57.915  -0.916  30.409  0.00  0.00     0.231 C 
ATOM     18  O   UNL d   1      58.439  -1.184  30.985  0.00  0.00    -0.283 OA
BRANCH  17  19
ATOM     19  C   UNL d   1      57.292  -0.422  30.622  0.00  0.00     0.124 C 
BRANCH  19  20
ATOM     20  N   UNL d   1      57.042  -0.387  31.405  0.00  0.00    -0.297 N 
ATOM     21  C   UNL d   1      57.364   0.242  31.840  0.00  0.00     0.100 A 
ATOM     22  C   UNL d   1      57.159   0.343  32.636  0.00  0.00     0.100 A 
ATOM     23  N   UNL d   1      56.634  -0.181  33.001  0.00  0.00    -0.297 N 
ATOM     24  C   UNL d   1      56.312  -0.807  32.568  0.00  0.00     0.100 A 
ATOM     25  C   UNL d   1      56.518  -0.908  31.772  0.00  0.00     0.100 A 
BRANCH  23  26
ATOM     26  C   UNL d   1      56.430  -0.077  33.799  0.00  0.00     0.126 C 
BRANCH  26  27
ATOM     27  C   UNL d   1      55.637  -0.039  34.026  0.00  0.00     0.253 C 
ATOM     28  O   UNL d   1      55.389   0.541  34.540  0.00  0.00    -0.281 OA
ENDBRANCH  26  27
ENDBRANCH  23  26
ENDBRANCH  19  20
ENDBRANCH  17  19
ENDBRANCH  16  17
ENDBRANCH   3  16
BRANCH   4  29
ATOM     29  C   UNL d   1      59.530   0.192  29.571  0.00  0.00     0.125 C 
ATOM     30  N   UNL d   1      59.861   0.677  30.146  0.00  0.00    -0.146 N 
ENDBRANCH   4  29
TORSDOF 7
ENDMDL
MODEL 2
REMARK VINA RESULT:      -0.3      1.411      5.982
REMARK  7 active torsions:
REMARK  status: ('A' for Active; 'I' for Inactive)
REMARK    1  A    between atoms: C_11  and  N_3 
REMARK    2  A    between atoms: C_10  and  C_4 
REMARK    3  A    between atoms: C_16  and  C_11 
REMARK    4  A    between atoms: N_13  and  C_17 
REMARK    5  A    between atoms: C_26  and  N_14 
REMARK    6  A    between atoms: C_17  and  C_16 
REMARK    7  A    between atoms: C_28  and  C_26 
ROOT
ATOM      1  C   UNL d   1      56.170   0.676  33.753  0.00  0.00     0.137 A 
ATOM      2  N   UNL d   1      56.396   0.677  34.557  0.00  0.00    -0.259 N 
ATOM      3  N   UNL d   1      56.864   0.675  33.307  0.00  0.00    -0.287 N 
ATOM      4  C   UNL d   1      55.376   0.676  33.550  0.00  0.00     0.054 A 
ATOM      5  C   UNL d   1      55.814   0.678  35.146  0.00  0.00     0.266 A 
ATOM      6  C   UNL d   1      57.220   0.676  34.597  0.00  0.00     0.084 A 
ATOM      7  C   UNL d   1      57.513   0.675  33.815  0.00  0.00     0.082 A 
ATOM      8  C   UNL d   1      54.795   0.678  34.135  0.00  0.00     0.009 A 
ATOM      9  C   UNL d   1      55.007   0.679  34.938  0.00  0.00     0.061 A 
ATOM     10  O   UNL d   1      56.031   0.679  35.946  0.00  0.00    -0.267 OA
ATOM     11  C   UNL d   1      57.747   0.677  35.228  0.00  0.00     0.019 A 
ATOM     12  C   UNL d   1      53.993   0.678  33.928  0.00  0.00     0.000 C 
ATOM     13  C   UNL d   1      58.322   0.674  33.694  0.00  0.00     0.019 A 
ATOM     14  C   UNL d   1      58.553   0.676  35.089  0.00  0.00     0.002 A 
ATOM     15  C   UNL d   1      58.844   0.674  34.313  0.00  0.00     0.002 A 
ENDROOT
BRANCH   3  16
ATOM     16  C   UNL d   1      57.161   0.673  32.540  0.00  0.00     0.125 C 
BRANCH  16  17
ATOM     17  C   UNL d   1      57.132  -0.017  32.090  0.00  0.00     0.231 C 
ATOM     18  O   UNL d   1      57.214  -0.753  32.450  0.00  0.00    -0.283 OA
BRANCH  17  19
ATOM     19  C   UNL d   1      57.019   0.028  31.276  0.00  0.00     0.124 C 
BRANCH  19  20
ATOM     20  N   UNL d   1      57.597  -0.253  30.763  0.00  0.00    -0.297 N 
ATOM     21  C   UNL d   1      58.085   0.337  30.440  0.00  0.00     0.100 A 
ATOM     22  C   UNL d   1      58.691   0.130  29.914  0.00  0.00     0.100 A 
ATOM     23  N   UNL d   1      58.813  -0.661  29.708  0.00  0.00    -0.297 N 
ATOM     24  C   UNL d   1      58.328  -1.248  30.029  0.00  0.00     0.100 A 
ATOM     25  C   UNL d   1      57.722  -1.041  30.555  0.00  0.00     0.100 A 
BRANCH  23  26
ATOM     26  C   UNL d   1      59.421  -0.865  29.181  0.00  0.00     0.126 C 
BRANCH  26  27
ATOM     27  C   UNL d   1      60.044  -0.341  29.039  0.00  0.00     0.253 C 
ATOM     28  O   UNL d   1      60.702  -0.594  28.631  0.00  0.00    -0.281 OA
ENDBRANCH  26  27
ENDBRANCH  23  26
ENDBRANCH  19  20
ENDBRANCH  17  19
ENDBRANCH  16  17
ENDBRANCH   3  16
BRANCH   4  29
ATOM     29  C   UNL d   1      55.154   0.675  32.760  0.00  0.00     0.125 C 
ATOM     30  N   UNL d   1      54.365   0.614  32.539  0.00  0.00    -0.146 N 
ENDBRANCH   4  29
TORSDOF 7
ENDMDL
MODEL 3
REMARK VINA RESULT:      -0.0      1.559      5.951
REMARK  7 active torsions:
REMARK  status: ('A' for Active; 'I' for Inactive)
REMARK    1  A    between atoms: C_11  and  N_3 
REMARK    2  A    between atoms: C_10  and  C_4 
REMARK    3  A    between atoms: C_16  and  C_11 
REMARK    4  A    between atoms: N_13  and  C_17 
REMARK    5  A    between atoms: C_26  and  N_14 
REMARK    6  A    between atoms: C_17  and  C_16 
REMARK    7  A    between atoms: C_28  and  C_26 
ROOT
ATOM      1  C   UNL d   1      56.810   0.673  34.409  0.00  0.00     0.137 A 
ATOM      2  N   UNL d   1      56.158   0.668  34.929  0.00  0.00    -0.259 N 
ATOM      3  N   UNL d   1      56.509   0.674  33.642  0.00  0.00    -0.287 N 
ATOM      4  C   UNL d   1      57.574   0.676  34.709  0.00  0.00     0.054 A 
ATOM      5  C   UNL d   1      56.285   0.667  35.747  0.00  0.00     0.266 A 
ATOM      6  C   UNL d   1      55.466   0.666  34.480  0.00  0.00     0.084 A 
ATOM      7  C   UNL d   1      55.686   0.669  33.673  0.00  0.00     0.082 A 
ATOM      8  C   UNL d   1      57.703   0.675  35.523  0.00  0.00     0.009 A 
ATOM      9  C   UNL d   1      57.060   0.670  36.050  0.00  0.00     0.061 A 
ATOM     10  O   UNL d   1      55.641   0.662  36.269  0.00  0.00    -0.267 OA
ATOM     11  C   UNL d   1      54.669   0.661  34.682  0.00  0.00     0.019 A 
ATOM     12  C   UNL d   1      58.473   0.678  35.825  0.00  0.00     0.000 C 
ATOM     13  C   UNL d   1      55.100   0.668  33.102  0.00  0.00     0.019 A 
ATOM     14  C   UNL d   1      54.097   0.660  34.098  0.00  0.00     0.002 A 
ATOM     15  C   UNL d   1      54.315   0.663  33.299  0.00  0.00     0.002 A 
ENDROOT
BRANCH   3  16
ATOM     16  C   UNL d   1      56.717   0.677  32.845  0.00  0.00     0.125 C 
BRANCH  16  17
ATOM     17  C   UNL d   1      56.821  -0.037  32.446  0.00  0.00     0.231 C 
ATOM     18  O   UNL d   1      57.156  -0.684  32.829  0.00  0.00    -0.283 OA
BRANCH  17  19
ATOM     19  C   UNL d   1      56.589  -0.104  31.659  0.00  0.00     0.124 C 
BRANCH  19  20
ATOM     20  N   UNL d   1      57.152  -0.224  31.071  0.00  0.00    -0.297 N 
ATOM     21  C   UNL d   1      57.464  -0.993  31.046  0.00  0.00     0.100 A 
ATOM     22  C   UNL d   1      58.036  -1.189  30.481  0.00  0.00     0.100 A 
ATOM     23  N   UNL d   1      58.300  -0.622  29.940  0.00  0.00    -0.297 N 
ATOM     24  C   UNL d   1      57.989   0.143  29.964  0.00  0.00     0.100 A 
ATOM     25  C   UNL d   1      57.417   0.339  30.530  0.00  0.00     0.100 A 
BRANCH  23  26
ATOM     26  C   UNL d   1      58.874  -0.822  29.374  0.00  0.00     0.126 C 
BRANCH  26  27
ATOM     27  C   UNL d   1      59.199  -1.581  29.360  0.00  0.00     0.253 C 
ATOM     28  O   UNL d   1      59.723  -1.787  28.771  0.00  0.00    -0.281 OA
ENDBRANCH  26  27
ENDBRANCH  23  26
ENDBRANCH  19  20
ENDBRANCH  17  19
ENDBRANCH  16  17
ENDBRANCH   3  16
BRANCH   4  29
ATOM     29  C   UNL d   1      58.215   0.681  34.199  0.00  0.00     0.125 C 
ATOM     30  N   UNL d   1      58.986   0.639  34.482  0.00  0.00    -0.146 N 
ENDBRANCH   4  29
TORSDOF 7
ENDMDL
