MODEL 1
REMARK VINA RESULT:      21.5      0.000      0.000
REMARK  3 active torsions:
REMARK  status: ('A' for Active; 'I' for Inactive)
REMARK    1  A    between atoms: N_2  and  S_1 
REMARK    2  A    between atoms: C_5  and  S_1 
REMARK    3  A    between atoms: C_4  and  C_3 
ROOT
ATOM      1  N   UNL d   1      46.328 -19.053  44.182  0.00  0.00    -0.223 N 
ATOM      2  C   UNL d   1      46.303 -19.455  43.456  0.00  0.00     0.127 A 
ATOM      3  S   UNL d   1      46.499 -20.244  43.596  0.00  0.00    -0.065 SA
ATOM      4  C   UNL d   1      46.539 -19.595  44.767  0.00  0.00     0.099 A 
ATOM      5  C   UNL d   1      46.645 -20.330  44.408  0.00  0.00     0.057 A 
ENDROOT
BRANCH   1   6
ATOM      6  S   UNL d   1      46.168 -18.246  44.299  0.00  0.00     0.272 S 
ATOM      7  O   UNL d   1      46.472 -17.688  43.785  0.00  0.00    -0.200 OA
ATOM      8  O   UNL d   1      45.701 -18.018  44.937  0.00  0.00    -0.200 OA
BRANCH   6   9
ATOM      9  C   UNL d   1      45.986 -17.457  44.450  0.00  0.00     0.104 A 
ATOM     10  C   UNL d   1      46.558 -16.873  44.359  0.00  0.00     0.014 A 
ATOM     11  C   UNL d   1      46.374 -16.087  44.510  0.00  0.00     0.012 A 
ATOM     12  C   UNL d   1      45.611 -15.881  44.755  0.00  0.00     0.058 A 
ATOM     13  C   UNL d   1      45.033 -16.474  44.847  0.00  0.00     0.012 A 
ATOM     14 CL   UNL d   1      45.423 -15.095  44.907  0.00  0.00    -0.082 Cl
ATOM     15  C   UNL d   1      45.225 -17.260  44.693  0.00  0.00     0.014 A 
ENDBRANCH   6   9
ENDBRANCH   1   6
BRANCH   2  16
ATOM     16  C   UNL d   1      46.116 -19.127  42.728  0.00  0.00     0.123 A 
ATOM     17  O   UNL d   1      45.364 -19.091  42.389  0.00  0.00    -0.303 OA
ATOM     18  C   UNL d   1      45.430 -18.716  41.658  0.00  0.00     0.123 A 
ATOM     19  C   UNL d   1      46.224 -18.518  41.541  0.00  0.00     0.029 A 
ATOM     20  C   UNL d   1      46.647 -18.773  42.205  0.00  0.00     0.029 A 
ENDBRANCH   2  16
TORSDOF 3
ENDMDL
MODEL 2
REMARK VINA RESULT:      24.1      1.631      3.183
REMARK  3 active torsions:
REMARK  status: ('A' for Active; 'I' for Inactive)
REMARK    1  A    between atoms: N_2  and  S_1 
REMARK    2  A    between atoms: C_5  and  S_1 
REMARK    3  A    between atoms: C_4  and  C_3 
ROOT
ATOM      1  N   UNL d   1      46.452 -19.528  43.618  0.00  0.00    -0.223 N 
ATOM      2  C   UNL d   1      46.333 -19.070  44.300  0.00  0.00     0.127 A 
ATOM      3  S   UNL d   1      46.420 -19.564  44.955  0.00  0.00    -0.065 SA
ATOM      4  C   UNL d   1      46.612 -20.303  43.854  0.00  0.00     0.099 A 
ATOM      5  C   UNL d   1      46.592 -20.327  44.678  0.00  0.00     0.057 A 
ENDROOT
BRANCH   1   6
ATOM      6  S   UNL d   1      46.417 -19.254  42.834  0.00  0.00     0.272 S 
ATOM      7  O   UNL d   1      46.647 -18.491  42.654  0.00  0.00    -0.200 OA
ATOM      8  O   UNL d   1      46.147 -19.762  42.243  0.00  0.00    -0.200 OA
BRANCH   6   9
ATOM      9  C   UNL d   1      46.366 -19.022  42.045  0.00  0.00     0.104 A 
ATOM     10  C   UNL d   1      46.064 -18.284  41.846  0.00  0.00     0.014 A 
ATOM     11  C   UNL d   1      46.014 -18.055  41.059  0.00  0.00     0.012 A 
ATOM     12  C   UNL d   1      46.270 -18.569  40.463  0.00  0.00     0.058 A 
ATOM     13  C   UNL d   1      46.577 -19.316  40.666  0.00  0.00     0.012 A 
ATOM     14 CL   UNL d   1      46.223 -18.343  39.674  0.00  0.00    -0.082 Cl
ATOM     15  C   UNL d   1      46.623 -19.539  41.457  0.00  0.00     0.014 A 
ENDBRANCH   6   9
ENDBRANCH   1   6
BRANCH   2  16
ATOM     16  C   UNL d   1      46.160 -18.269  44.319  0.00  0.00     0.123 A 
ATOM     17  O   UNL d   1      46.520 -17.681  43.864  0.00  0.00    -0.303 OA
ATOM     18  C   UNL d   1      46.178 -16.959  44.061  0.00  0.00     0.123 A 
ATOM     19  C   UNL d   1      45.604 -17.094  44.640  0.00  0.00     0.029 A 
ATOM     20  C   UNL d   1      45.595 -17.906  44.798  0.00  0.00     0.029 A 
ENDBRANCH   2  16
TORSDOF 3
ENDMDL
