MODEL 1
REMARK VINA RESULT:      -5.7      0.000      0.000
REMARK  4 active torsions:
REMARK  status: ('A' for Active; 'I' for Inactive)
REMARK    1  A    between atoms: C_20  and  C_4 
REMARK    2  A    between atoms: C_8  and  C_9 
REMARK       I    between atoms: C_9  and  N_18 
REMARK    3  A    between atoms: N_18  and  C_21 
REMARK    4  A    between atoms: C_21  and  C_20 
ROOT
ATOM      1  N   UNL d   1     -41.602-121.775 -52.706  0.00  0.00    -0.208 NA
ATOM      2  C   UNL d   1     -41.481-122.441 -53.195  0.00  0.00     0.085 A 
ATOM      3  C   UNL d   1     -41.482-121.836 -51.890  0.00  0.00     0.279 A 
ATOM      4  C   UNL d   1     -41.241-122.562 -51.559  0.00  0.00     0.059 A 
ATOM      5  C   UNL d   1     -41.123-123.219 -52.047  0.00  0.00     0.006 A 
ATOM      6  C   UNL d   1     -41.242-123.156 -52.859  0.00  0.00     0.018 A 
ATOM      7  C   UNL d   1     -41.603-122.370 -54.010  0.00  0.00     0.018 A 
ATOM      8  O   UNL d   1     -41.601-121.181 -51.406  0.00  0.00    -0.265 OA
ATOM      9  C   UNL d   1     -41.484-123.025 -54.495  0.00  0.00     0.002 A 
ATOM     10  C   UNL d   1     -41.124-123.814 -53.351  0.00  0.00     0.002 A 
ATOM     11  C   UNL d   1     -41.243-123.751 -54.163  0.00  0.00     0.000 A 
ATOM     12  C   UNL d   1     -41.841-121.648 -54.330  0.00  0.00     0.002 C 
ATOM     13  C   UNL d   1     -41.604-122.962 -55.306  0.00  0.00     0.000 C 
ENDROOT
BRANCH   4  14
ATOM     14  C   UNL d   1     -41.124-122.618 -50.750  0.00  0.00     0.026 C 
BRANCH  14  15
ATOM     15  C   UNL d   1     -41.563-123.141 -50.297  0.00  0.00     0.102 C 
BRANCH  15  16
ATOM     16  N   UNL d   1     -41.469-123.178 -49.478  0.00  0.00    -0.206 NA
ATOM     17  C   UNL d   1     -42.063-123.502 -49.003  0.00  0.00     0.285 C 
ATOM     18  O   UNL d   1     -42.753-123.790 -49.342  0.00  0.00    -0.265 OA
BRANCH  17  19
ATOM     19  C   UNL d   1     -41.960-123.536 -48.183  0.00  0.00     0.087 A 
ATOM     20  S   UNL d   1     -42.545-123.436 -47.623  0.00  0.00    -0.082 SA
ATOM     21  C   UNL d   1     -42.219-123.510 -46.883  0.00  0.00     0.036 A 
ATOM     22  C   UNL d   1     -41.408-123.661 -46.980  0.00  0.00     0.008 A 
ATOM     23  C   UNL d   1     -41.249-123.676 -47.788  0.00  0.00     0.012 A 
ENDBRANCH  17  19
ENDBRANCH  15  16
ENDBRANCH  14  15
ENDBRANCH   4  14
TORSDOF 4
ENDMDL
MODEL 2
REMARK VINA RESULT:      -5.3      1.914      5.230
REMARK  4 active torsions:
REMARK  status: ('A' for Active; 'I' for Inactive)
REMARK    1  A    between atoms: C_20  and  C_4 
REMARK    2  A    between atoms: C_8  and  C_9 
REMARK       I    between atoms: C_9  and  N_18 
REMARK    3  A    between atoms: N_18  and  C_21 
REMARK    4  A    between atoms: C_21  and  C_20 
ROOT
ATOM      1  N   UNL d   1     -42.802-122.327 -49.825  0.00  0.00    -0.208 NA
ATOM      2  C   UNL d   1     -42.329-122.827 -49.353  0.00  0.00     0.085 A 
ATOM      3  C   UNL d   1     -42.525-122.075 -50.562  0.00  0.00     0.279 A 
ATOM      4  C   UNL d   1     -41.775-122.321 -50.831  0.00  0.00     0.059 A 
ATOM      5  C   UNL d   1     -41.310-122.816 -50.359  0.00  0.00     0.006 A 
ATOM      6  C   UNL d   1     -41.588-123.066 -49.625  0.00  0.00     0.018 A 
ATOM      7  C   UNL d   1     -42.614-123.074 -48.617  0.00  0.00     0.018 A 
ATOM      8  O   UNL d   1     -42.989-121.582 -51.030  0.00  0.00    -0.265 OA
ATOM      9  C   UNL d   1     -42.150-123.567 -48.148  0.00  0.00     0.002 A 
ATOM     10  C   UNL d   1     -41.123-123.563 -49.150  0.00  0.00     0.002 A 
ATOM     11  C   UNL d   1     -41.400-123.813 -48.417  0.00  0.00     0.000 A 
ATOM     12  C   UNL d   1     -43.358-122.826 -48.358  0.00  0.00     0.002 C 
ATOM     13  C   UNL d   1     -42.428-123.817 -47.415  0.00  0.00     0.000 C 
ENDROOT
BRANCH   4  14
ATOM     14  C   UNL d   1     -41.504-122.069 -51.561  0.00  0.00     0.026 C 
BRANCH  14  15
ATOM     15  C   UNL d   1     -41.484-122.580 -52.202  0.00  0.00     0.102 C 
BRANCH  15  16
ATOM     16  N   UNL d   1     -41.544-122.298 -52.975  0.00  0.00    -0.206 NA
ATOM     17  C   UNL d   1     -41.727-122.813 -53.595  0.00  0.00     0.285 C 
ATOM     18  O   UNL d   1     -41.852-123.611 -53.447  0.00  0.00    -0.265 OA
BRANCH  17  19
ATOM     19  C   UNL d   1     -41.786-122.522 -54.367  0.00  0.00     0.087 A 
ATOM     20  S   UNL d   1     -41.247-122.647 -54.968  0.00  0.00    -0.082 SA
ATOM     21  C   UNL d   1     -41.506-122.269 -55.638  0.00  0.00     0.036 A 
ATOM     22  C   UNL d   1     -42.225-121.896 -55.455  0.00  0.00     0.008 A 
ATOM     23  C   UNL d   1     -42.398-122.054 -54.664  0.00  0.00     0.012 A 
ENDBRANCH  17  19
ENDBRANCH  15  16
ENDBRANCH  14  15
ENDBRANCH   4  14
TORSDOF 4
ENDMDL
