MODEL 1
REMARK VINA RESULT:      24.8      0.000      0.000
REMARK  5 active torsions:
REMARK  status: ('A' for Active; 'I' for Inactive)
REMARK    1  A    between atoms: N_5  and  C_1 
REMARK    2  A    between atoms: C_8  and  C_2 
REMARK       I    between atoms: C_7  and  N_5 
REMARK    3  A    between atoms: C_9  and  C_7 
REMARK    4  A    between atoms: O_16  and  C_8 
REMARK    5  A    between atoms: C_20  and  O_16 
ROOT
ATOM      1  C   UNL d   1      13.458  12.698  -3.325  0.00  0.00     0.119 A 
ATOM      2  C   UNL d   1      13.389  13.321  -3.872  0.00  0.00     0.088 A 
ATOM      3  S   UNL d   1      13.367  11.984  -3.715  0.00  0.00    -0.068 SA
ATOM      4  C   UNL d   1      13.249  12.974  -4.635  0.00  0.00     0.013 A 
ATOM      5  C   UNL d   1      13.239  12.148  -4.518  0.00  0.00     0.031 A 
ATOM      6  C   UNL d   1      13.120  13.110  -5.437  0.00  0.00     0.001 A 
ATOM      7  C   UNL d   1      13.100  11.779  -5.273  0.00  0.00     0.006 A 
ATOM      8  C   UNL d   1      13.031  12.386  -5.815  0.00  0.00     0.001 A 
ENDROOT
BRANCH   1   9
ATOM      9  N   UNL d   1      13.601  12.773  -2.480  0.00  0.00    -0.201 NA
ATOM     10  C   UNL d   1      14.198  12.310  -2.118  0.00  0.00     0.286 C 
ATOM     11  O   UNL d   1      14.659  11.781  -2.534  0.00  0.00    -0.265 OA
BRANCH  10  12
ATOM     12  C   UNL d   1      14.341  12.382  -1.291  0.00  0.00     0.087 A 
ATOM     13  S   UNL d   1      14.022  11.815  -0.809  0.00  0.00    -0.082 SA
ATOM     14  C   UNL d   1      14.245  12.013  -0.015  0.00  0.00     0.036 A 
ATOM     15  C   UNL d   1      14.687  12.685  -0.045  0.00  0.00     0.008 A 
ATOM     16  C   UNL d   1      14.748  12.914  -0.829  0.00  0.00     0.012 A 
ENDBRANCH  10  12
ENDBRANCH   1   9
BRANCH   2  17
ATOM     17  C   UNL d   1      13.444  14.131  -3.720  0.00  0.00     0.302 C 
ATOM     18  O   UNL d   1      12.770  14.625  -3.769  0.00  0.00    -0.259 OA
BRANCH  17  19
ATOM     19  O   UNL d   1      14.187  14.469  -3.511  0.00  0.00    -0.271 OA
BRANCH  19  20
ATOM     20  C   UNL d   1      14.253  15.293  -3.497  0.00  0.00     0.126 C 
ATOM     21  C   UNL d   1      14.366  15.682  -2.790  0.00  0.00     0.029 C 
ENDBRANCH  19  20
ENDBRANCH  17  19
ENDBRANCH   2  17
TORSDOF 5
ENDMDL
