MODEL 1
REMARK VINA RESULT:      41.8      0.000      0.000
REMARK  5 active torsions:
REMARK  status: ('A' for Active; 'I' for Inactive)
REMARK    1  A    between atoms: C_2  and  S_1 
REMARK    2  A    between atoms: N_3  and  S_1 
REMARK    3  A    between atoms: C_11  and  N_3 
REMARK    4  A    between atoms: O_13  and  C_5 
REMARK    5  A    between atoms: C_14  and  C_11 
ROOT
ATOM      1  S   UNL d   1     -51.160  25.318  33.511  0.00  0.00     0.285 S 
ATOM      2  O   UNL d   1     -51.486  26.076  33.528  0.00  0.00    -0.198 OA
ATOM      3  O   UNL d   1     -50.838  24.561  33.493  0.00  0.00    -0.198 OA
ENDROOT
BRANCH   1   4
ATOM      4  C   UNL d   1     -50.403  25.644  33.522  0.00  0.00     0.107 A 
ATOM      5  C   UNL d   1     -50.298  26.434  33.733  0.00  0.00     0.039 A 
ATOM      6  C   UNL d   1     -49.540  26.760  33.744  0.00  0.00     0.122 A 
ATOM      7  C   UNL d   1     -48.886  26.294  33.543  0.00  0.00     0.162 A 
ATOM      8  C   UNL d   1     -48.994  25.506  33.333  0.00  0.00     0.032 A 
ATOM      9  F   UNL d   1     -48.132  26.622  33.555  0.00  0.00    -0.202 F 
ATOM     10  C   UNL d   1     -49.749  25.178  33.321  0.00  0.00     0.015 A 
BRANCH   6  11
ATOM     11  O   UNL d   1     -49.435  27.550  33.955  0.00  0.00    -0.326 OA
ATOM     12  C   UNL d   1     -49.840  27.862  34.605  0.00  0.00     0.181 C 
ENDBRANCH   6  11
ENDBRANCH   1   4
BRANCH   1  13
ATOM     13  N   UNL d   1     -51.922  24.992  33.500  0.00  0.00    -0.157 NA
BRANCH  13  14
ATOM     14  C   UNL d   1     -52.081  24.302  33.924  0.00  0.00     0.112 C 
BRANCH  14  15
ATOM     15  C   UNL d   1     -52.845  23.990  33.928  0.00  0.00     0.020 A 
ATOM     16  C   UNL d   1     -53.097  23.503  33.310  0.00  0.00     0.002 A 
ATOM     17  C   UNL d   1     -53.868  23.190  33.317  0.00  0.00     0.000 A 
ATOM     18  C   UNL d   1     -54.380  23.366  33.941  0.00  0.00     0.000 A 
ATOM     19  C   UNL d   1     -54.128  23.853  34.559  0.00  0.00     0.000 A 
ATOM     20  C   UNL d   1     -53.364  24.165  34.555  0.00  0.00     0.002 A 
ENDBRANCH  14  15
ENDBRANCH  13  14
ENDBRANCH   1  13
TORSDOF 5
ENDMDL
