MODEL 1
REMARK VINA RESULT:      14.7      0.000      0.000
REMARK  1 active torsions:
REMARK  status: ('A' for Active; 'I' for Inactive)
REMARK    1  A    between atoms: C_7  and  C_1 
ROOT
ATOM      1  C   UNL d   1     -58.509 -98.766 -44.036  0.00  0.00     0.122 A 
ATOM      2  C   UNL d   1     -58.468 -98.760 -44.872  0.00  0.00     0.285 A 
ATOM      3  C   UNL d   1     -57.809 -98.769 -43.605  0.00  0.00     0.012 A 
ATOM      4  N   UNL d   1     -57.742 -98.756 -45.261  0.00  0.00    -0.208 NA
ATOM      5  C   UNL d   1     -57.041 -98.759 -44.813  0.00  0.00     0.085 A 
ATOM      6  C   UNL d   1     -57.070 -98.765 -43.985  0.00  0.00     0.018 A 
ATOM      7  O   UNL d   1     -59.168 -98.757 -45.312  0.00  0.00    -0.265 OA
ATOM      8  C   UNL d   1     -56.312 -98.755 -45.198  0.00  0.00     0.019 A 
ATOM      9  C   UNL d   1     -56.382 -98.768 -43.542  0.00  0.00     0.002 A 
ATOM     10  C   UNL d   1     -55.652 -98.764 -43.931  0.00  0.00     0.000 A 
ATOM     11  C   UNL d   1     -55.619 -98.758 -44.750  0.00  0.00     0.002 A 
ENDROOT
BRANCH   1  12
ATOM     12  C   UNL d   1     -59.231 -98.770 -43.655  0.00  0.00     0.216 C 
ATOM     13  O   UNL d   1     -59.256 -98.756 -42.818  0.00  0.00    -0.644 OA
ATOM     14  O   UNL d   1     -59.932 -98.787 -44.086  0.00  0.00    -0.644 OA
ENDBRANCH   1  12
TORSDOF 1
ENDMDL
