MODEL 1
REMARK VINA RESULT:      49.5      0.000      0.000
REMARK  4 active torsions:
REMARK  status: ('A' for Active; 'I' for Inactive)
REMARK    1  A    between atoms: N_3  and  C_1 
REMARK       I    between atoms: C_5  and  N_3 
REMARK    2  A    between atoms: C_7  and  C_5 
REMARK    3  A    between atoms: C_9  and  C_12 
REMARK    4  A    between atoms: O_18  and  C_9 
ROOT
ATOM      1  C   UNL d   1      58.167  49.064  51.136  0.00  0.00     0.197 A 
ATOM      2  N   UNL d   1      58.723  49.685  51.103  0.00  0.00    -0.221 NA
ATOM      3  S   UNL d   1      58.564  48.362  50.969  0.00  0.00    -0.047 SA
ATOM      4  C   UNL d   1      59.362  48.533  50.831  0.00  0.00     0.050 A 
ATOM      5  C   UNL d   1      59.461  49.358  50.915  0.00  0.00     0.090 A 
ATOM      6  C   UNL d   1      60.744  48.397  50.538  0.00  0.00     0.064 A 
ATOM      7  C   UNL d   1      60.009  48.056  50.642  0.00  0.00     0.013 A 
ATOM      8  C   UNL d   1      60.205  49.689  50.808  0.00  0.00     0.020 A 
ATOM      9  C   UNL d   1      60.843  49.222  50.622  0.00  0.00     0.007 A 
ENDROOT
BRANCH   1  10
ATOM     10  N   UNL d   1      57.362  49.143  51.307  0.00  0.00    -0.183 NA
ATOM     11  C   UNL d   1      56.833  49.364  50.713  0.00  0.00     0.281 C 
ATOM     12  O   UNL d   1      56.033  49.443  50.883  0.00  0.00    -0.265 OA
BRANCH  11  13
ATOM     13  C   UNL d   1      57.110  49.507  49.949  0.00  0.00     0.058 A 
ATOM     14  C   UNL d   1      56.970  49.573  49.138  0.00  0.00     0.005 A 
ATOM     15  C   UNL d   1      57.728  49.687  49.437  0.00  0.00     0.005 A 
ENDBRANCH  11  13
ENDBRANCH   1  10
BRANCH   6  16
ATOM     16  C   UNL d   1      61.400  47.931  50.348  0.00  0.00     0.296 C 
ATOM     17  O   UNL d   1      62.151  48.255  50.341  0.00  0.00    -0.259 OA
BRANCH  16  18
ATOM     18  O   UNL d   1      61.286  47.129  50.166  0.00  0.00    -0.296 OA
ATOM     19  C   UNL d   1      61.889  46.590  50.311  0.00  0.00     0.185 C 
ENDBRANCH  16  18
ENDBRANCH   6  16
TORSDOF 4
ENDMDL
