MODEL 1
REMARK VINA RESULT:      60.1      0.000      0.000
REMARK  4 active torsions:
REMARK  status: ('A' for Active; 'I' for Inactive)
REMARK    1  A    between atoms: N_2  and  C_1 
REMARK    2  A    between atoms: C_9  and  C_3 
REMARK    3  A    between atoms: O_15  and  C_9 
REMARK    4  A    between atoms: C_18  and  O_15 
ROOT
ATOM      1  C   UNL d   1      60.603  49.223  50.951  0.00  0.00     0.105 A 
ATOM      2  C   UNL d   1      60.891  48.484  50.720  0.00  0.00     0.086 A 
ATOM      3  S   UNL d   1      60.637  49.708  50.290  0.00  0.00    -0.069 SA
ATOM      4  C   UNL d   1      61.098  48.522  49.928  0.00  0.00     0.013 A 
ATOM      5  C   UNL d   1      60.942  49.276  49.659  0.00  0.00     0.031 A 
ATOM      6  C   UNL d   1      61.410  47.911  49.470  0.00  0.00     0.001 C 
ATOM      7  C   UNL d   1      61.067  49.557  48.893  0.00  0.00     0.007 C 
ENDROOT
BRANCH   1   8
ATOM      8  N   UNL d   1      60.341  49.392  51.715  0.00  0.00    -0.236 N 
ATOM      9  C   UNL d   1      60.757  49.607  52.391  0.00  0.00     0.268 A 
ATOM     10  C   UNL d   1      60.204  49.708  53.002  0.00  0.00     0.066 A 
ATOM     11  O   UNL d   1      61.585  49.706  52.455  0.00  0.00    -0.267 OA
ATOM     12  C   UNL d   1      59.463  49.553  52.690  0.00  0.00     0.066 A 
ATOM     13  C   UNL d   1      59.545  49.360  51.904  0.00  0.00     0.268 A 
ATOM     14  O   UNL d   1      58.940  49.169  51.395  0.00  0.00    -0.267 OA
ENDBRANCH   1   8
BRANCH   2  15
ATOM     15  C   UNL d   1      60.960  47.814  51.212  0.00  0.00     0.302 C 
ATOM     16  O   UNL d   1      61.261  47.898  51.986  0.00  0.00    -0.259 OA
BRANCH  15  17
ATOM     17  O   UNL d   1      60.735  47.087  50.933  0.00  0.00    -0.271 OA
BRANCH  17  18
ATOM     18  C   UNL d   1      60.912  46.402  51.375  0.00  0.00     0.126 C 
ATOM     19  C   UNL d   1      60.505  45.697  51.228  0.00  0.00     0.029 C 
ENDBRANCH  17  18
ENDBRANCH  15  17
ENDBRANCH   2  15
TORSDOF 4
ENDMDL
MODEL 2
REMARK VINA RESULT:      62.5      1.345      1.888
REMARK  4 active torsions:
REMARK  status: ('A' for Active; 'I' for Inactive)
REMARK    1  A    between atoms: N_2  and  C_1 
REMARK    2  A    between atoms: C_9  and  C_3 
REMARK    3  A    between atoms: O_15  and  C_9 
REMARK    4  A    between atoms: C_18  and  O_15 
ROOT
ATOM      1  C   UNL d   1      59.951  49.195  51.127  0.00  0.00     0.105 A 
ATOM      2  C   UNL d   1      59.650  48.428  51.080  0.00  0.00     0.086 A 
ATOM      3  S   UNL d   1      59.353  49.700  50.881  0.00  0.00    -0.069 SA
ATOM      4  C   UNL d   1      58.877  48.469  50.809  0.00  0.00     0.013 A 
ATOM      5  C   UNL d   1      58.691  49.253  50.685  0.00  0.00     0.031 A 
ATOM      6  C   UNL d   1      58.366  47.834  50.679  0.00  0.00     0.001 C 
ATOM      7  C   UNL d   1      57.969  49.546  50.412  0.00  0.00     0.007 C 
ENDROOT
BRANCH   1   8
ATOM      8  N   UNL d   1      60.717  49.370  51.381  0.00  0.00    -0.236 N 
ATOM      9  C   UNL d   1      61.414  49.470  50.956  0.00  0.00     0.268 A 
ATOM     10  C   UNL d   1      62.016  49.639  51.502  0.00  0.00     0.066 A 
ATOM     11  O   UNL d   1      61.504  49.414  50.126  0.00  0.00    -0.267 OA
ATOM     12  C   UNL d   1      61.678  49.638  52.248  0.00  0.00     0.066 A 
ATOM     13  C   UNL d   1      60.884  49.474  52.175  0.00  0.00     0.268 A 
ATOM     14  O   UNL d   1      60.351  49.423  52.786  0.00  0.00    -0.267 OA
ENDBRANCH   1   8
BRANCH   2  15
ATOM     15  C   UNL d   1      60.063  47.730  51.276  0.00  0.00     0.302 C 
ATOM     16  O   UNL d   1      60.312  47.604  52.063  0.00  0.00    -0.259 OA
BRANCH  15  17
ATOM     17  O   UNL d   1      60.219  47.181  50.700  0.00  0.00    -0.271 OA
BRANCH  17  18
ATOM     18  C   UNL d   1      60.931  46.748  50.725  0.00  0.00     0.126 C 
ATOM     19  C   UNL d   1      61.076  46.156  50.167  0.00  0.00     0.029 C 
ENDBRANCH  17  18
ENDBRANCH  15  17
ENDBRANCH   2  15
TORSDOF 4
ENDMDL
