MODEL 1
REMARK VINA RESULT:      -2.0      0.000      0.000
REMARK  7 active torsions:
REMARK  status: ('A' for Active; 'I' for Inactive)
REMARK    1  A    between atoms: S_6  and  C_1 
REMARK    2  A    between atoms: C_12  and  N_2 
REMARK       I    between atoms: N_4  and  C_8 
REMARK    3  A    between atoms: C_5  and  N_4 
REMARK    4  A    between atoms: C_15  and  S_6 
REMARK    5  A    between atoms: O_18  and  C_7 
REMARK    6  A    between atoms: C_8  and  C_15 
REMARK    7  A    between atoms: O_19  and  C_16 
ROOT
ATOM      1  N   UNL d   1      33.241  20.825 -21.988  0.00  0.00    -0.206 NA
ATOM      2  C   UNL d   1      32.868  20.125 -22.183  0.00  0.00     0.286 C 
ATOM      3  O   UNL d   1      32.121  19.952 -21.884  0.00  0.00    -0.265 OA
ENDROOT
BRANCH   2   4
ATOM      4  C   UNL d   1      33.235  19.594 -22.675  0.00  0.00     0.101 C 
BRANCH   4   5
ATOM      5  S   UNL d   1      32.813  18.966 -23.007  0.00  0.00    -0.044 SA
BRANCH   5   6
ATOM      6  C   UNL d   1      32.902  18.781 -23.809  0.00  0.00     0.180 A 
ATOM      7  N   UNL d   1      32.668  18.083 -24.166  0.00  0.00    -0.284 N 
ATOM      8  C   UNL d   1      32.865  18.138 -24.968  0.00  0.00     0.103 A 
ATOM      9  C   UNL d   1      33.224  18.882 -25.097  0.00  0.00     0.120 A 
ATOM     10  N   UNL d   1      33.241  19.264 -24.381  0.00  0.00    -0.219 NA
BRANCH   7  11
ATOM     11  C   UNL d   1      32.302  17.425 -23.829  0.00  0.00     0.066 A 
ATOM     12  C   UNL d   1      32.709  16.966 -23.276  0.00  0.00     0.018 A 
ATOM     13  C   UNL d   1      32.343  16.308 -22.939  0.00  0.00     0.002 A 
ATOM     14  C   UNL d   1      31.571  16.109 -23.153  0.00  0.00     0.000 A 
ATOM     15  C   UNL d   1      31.172  16.567 -23.701  0.00  0.00     0.002 A 
ATOM     16  C   UNL d   1      31.538  17.225 -24.039  0.00  0.00     0.018 A 
ENDBRANCH   7  11
ENDBRANCH   5   6
ENDBRANCH   4   5
ENDBRANCH   2   4
BRANCH   1  17
ATOM     17  C   UNL d   1      32.876  21.365 -21.492  0.00  0.00     0.107 A 
ATOM     18  C   UNL d   1      32.726  22.126 -21.748  0.00  0.00     0.114 A 
ATOM     19  C   UNL d   1      32.363  22.663 -21.254  0.00  0.00     0.050 A 
ATOM     20  C   UNL d   1      32.143  22.438 -20.488  0.00  0.00     0.096 A 
ATOM     21  C   UNL d   1      32.293  21.667 -20.222  0.00  0.00     0.026 A 
ATOM     22  C   UNL d   1      32.660  21.134 -20.730  0.00  0.00     0.023 A 
BRANCH  18  23
ATOM     23  O   UNL d   1      32.939  22.359 -22.504  0.00  0.00    -0.327 OA
ATOM     24  C   UNL d   1      33.110  23.161 -22.661  0.00  0.00     0.181 C 
ENDBRANCH  18  23
BRANCH  20  25
ATOM     25  O   UNL d   1      31.773  22.990 -19.986  0.00  0.00    -0.328 OA
ATOM     26  C   UNL d   1      32.223  23.407 -19.428  0.00  0.00     0.181 C 
ENDBRANCH  20  25
ENDBRANCH   1  17
TORSDOF 7
ENDMDL
MODEL 2
REMARK VINA RESULT:      -1.9      1.600      5.473
REMARK  7 active torsions:
REMARK  status: ('A' for Active; 'I' for Inactive)
REMARK    1  A    between atoms: S_6  and  C_1 
REMARK    2  A    between atoms: C_12  and  N_2 
REMARK       I    between atoms: N_4  and  C_8 
REMARK    3  A    between atoms: C_5  and  N_4 
REMARK    4  A    between atoms: C_15  and  S_6 
REMARK    5  A    between atoms: O_18  and  C_7 
REMARK    6  A    between atoms: C_8  and  C_15 
REMARK    7  A    between atoms: O_19  and  C_16 
ROOT
ATOM      1  N   UNL d   1      32.705  18.433 -22.970  0.00  0.00    -0.206 NA
ATOM      2  C   UNL d   1      32.833  19.222 -23.138  0.00  0.00     0.286 C 
ATOM      3  O   UNL d   1      32.553  19.552 -23.838  0.00  0.00    -0.265 OA
ENDROOT
BRANCH   2   4
ATOM      4  C   UNL d   1      33.241  19.686 -22.611  0.00  0.00     0.101 C 
BRANCH   4   5
ATOM      5  S   UNL d   1      32.965  20.439 -22.412  0.00  0.00    -0.044 SA
BRANCH   5   6
ATOM      6  C   UNL d   1      33.019  20.710 -21.632  0.00  0.00     0.180 A 
ATOM      7  N   UNL d   1      32.948  21.490 -21.392  0.00  0.00    -0.284 N 
ATOM      8  C   UNL d   1      33.039  21.504 -20.570  0.00  0.00     0.103 A 
ATOM      9  C   UNL d   1      33.166  20.720 -20.309  0.00  0.00     0.120 A 
ATOM     10  N   UNL d   1      33.152  20.246 -20.967  0.00  0.00    -0.219 NA
BRANCH   7  11
ATOM     11  C   UNL d   1      32.812  22.162 -21.850  0.00  0.00     0.066 A 
ATOM     12  C   UNL d   1      32.308  22.754 -21.573  0.00  0.00     0.018 A 
ATOM     13  C   UNL d   1      32.172  23.427 -22.031  0.00  0.00     0.002 A 
ATOM     14  C   UNL d   1      32.541  23.508 -22.765  0.00  0.00     0.000 A 
ATOM     15  C   UNL d   1      33.040  22.919 -23.035  0.00  0.00     0.002 A 
ATOM     16  C   UNL d   1      33.176  22.246 -22.577  0.00  0.00     0.018 A 
ENDBRANCH   7  11
ENDBRANCH   5   6
ENDBRANCH   4   5
ENDBRANCH   2   4
BRANCH   1  17
ATOM     17  C   UNL d   1      32.294  17.959 -23.498  0.00  0.00     0.107 A 
ATOM     18  C   UNL d   1      32.296  17.147 -23.413  0.00  0.00     0.114 A 
ATOM     19  C   UNL d   1      31.887  16.676 -23.938  0.00  0.00     0.050 A 
ATOM     20  C   UNL d   1      31.466  17.021 -24.562  0.00  0.00     0.096 A 
ATOM     21  C   UNL d   1      31.460  17.845 -24.653  0.00  0.00     0.026 A 
ATOM     22  C   UNL d   1      31.876  18.310 -24.117  0.00  0.00     0.023 A 
BRANCH  18  23
ATOM     23  O   UNL d   1      32.709  16.796 -22.798  0.00  0.00    -0.327 OA
ATOM     24  C   UNL d   1      33.210  16.145 -22.952  0.00  0.00     0.181 C 
ENDBRANCH  18  23
BRANCH  20  25
ATOM     25  O   UNL d   1      31.050  16.536 -25.096  0.00  0.00    -0.328 OA
ATOM     26  C   UNL d   1      30.234  16.419 -24.996  0.00  0.00     0.181 C 
ENDBRANCH  20  25
ENDBRANCH   1  17
TORSDOF 7
ENDMDL
MODEL 3
REMARK VINA RESULT:      -0.5      2.099      5.095
REMARK  7 active torsions:
REMARK  status: ('A' for Active; 'I' for Inactive)
REMARK    1  A    between atoms: S_6  and  C_1 
REMARK    2  A    between atoms: C_12  and  N_2 
REMARK       I    between atoms: N_4  and  C_8 
REMARK    3  A    between atoms: C_5  and  N_4 
REMARK    4  A    between atoms: C_15  and  S_6 
REMARK    5  A    between atoms: O_18  and  C_7 
REMARK    6  A    between atoms: C_8  and  C_15 
REMARK    7  A    between atoms: O_19  and  C_16 
ROOT
ATOM      1  N   UNL d   1      31.474  18.094 -24.296  0.00  0.00    -0.206 NA
ATOM      2  C   UNL d   1      32.263  18.062 -24.086  0.00  0.00     0.286 C 
ATOM      3  O   UNL d   1      32.580  17.378 -23.755  0.00  0.00    -0.265 OA
ENDROOT
BRANCH   2   4
ATOM      4  C   UNL d   1      32.740  18.709 -24.203  0.00  0.00     0.101 C 
BRANCH   4   5
ATOM      5  S   UNL d   1      32.762  19.321 -23.649  0.00  0.00    -0.044 SA
BRANCH   5   6
ATOM      6  C   UNL d   1      32.950  20.091 -23.886  0.00  0.00     0.180 A 
ATOM      7  N   UNL d   1      33.051  20.733 -23.388  0.00  0.00    -0.284 N 
ATOM      8  C   UNL d   1      33.232  21.387 -23.860  0.00  0.00     0.103 A 
ATOM      9  C   UNL d   1      33.241  21.136 -24.659  0.00  0.00     0.120 A 
ATOM     10  N   UNL d   1      33.067  20.344 -24.660  0.00  0.00    -0.219 NA
BRANCH   7  11
ATOM     11  C   UNL d   1      32.992  20.764 -22.565  0.00  0.00     0.066 A 
ATOM     12  C   UNL d   1      33.240  20.123 -22.110  0.00  0.00     0.018 A 
ATOM     13  C   UNL d   1      33.182  20.154 -21.287  0.00  0.00     0.002 A 
ATOM     14  C   UNL d   1      32.875  20.828 -20.921  0.00  0.00     0.000 A 
ATOM     15  C   UNL d   1      32.630  21.461 -21.377  0.00  0.00     0.002 A 
ATOM     16  C   UNL d   1      32.689  21.429 -22.199  0.00  0.00     0.018 A 
ENDBRANCH   7  11
ENDBRANCH   5   6
ENDBRANCH   4   5
ENDBRANCH   2   4
BRANCH   1  17
ATOM     17  C   UNL d   1      30.988  17.445 -24.180  0.00  0.00     0.107 A 
ATOM     18  C   UNL d   1      30.177  17.516 -24.254  0.00  0.00     0.114 A 
ATOM     19  C   UNL d   1      29.695  16.871 -24.139  0.00  0.00     0.050 A 
ATOM     20  C   UNL d   1      30.024  16.136 -23.945  0.00  0.00     0.096 A 
ATOM     21  C   UNL d   1      30.846  16.057 -23.869  0.00  0.00     0.026 A 
ATOM     22  C   UNL d   1      31.324  16.716 -23.987  0.00  0.00     0.023 A 
BRANCH  18  23
ATOM     23  O   UNL d   1      29.841  18.239 -24.446  0.00  0.00    -0.327 OA
ATOM     24  C   UNL d   1      29.170  18.268 -24.943  0.00  0.00     0.181 C 
ENDBRANCH  18  23
BRANCH  20  25
ATOM     25  O   UNL d   1      29.526  15.479 -23.829  0.00  0.00    -0.328 OA
ATOM     26  C   UNL d   1      29.024  15.454 -23.169  0.00  0.00     0.181 C 
ENDBRANCH  20  25
ENDBRANCH   1  17
TORSDOF 7
ENDMDL
MODEL 4
REMARK VINA RESULT:       0.3      3.910      5.491
REMARK  7 active torsions:
REMARK  status: ('A' for Active; 'I' for Inactive)
REMARK    1  A    between atoms: S_6  and  C_1 
REMARK    2  A    between atoms: C_12  and  N_2 
REMARK       I    between atoms: N_4  and  C_8 
REMARK    3  A    between atoms: C_5  and  N_4 
REMARK    4  A    between atoms: C_15  and  S_6 
REMARK    5  A    between atoms: O_18  and  C_7 
REMARK    6  A    between atoms: C_8  and  C_15 
REMARK    7  A    between atoms: O_19  and  C_16 
ROOT
ATOM      1  N   UNL d   1      29.715  17.142 -23.816  0.00  0.00    -0.206 NA
ATOM      2  C   UNL d   1      29.812  17.549 -24.517  0.00  0.00     0.286 C 
ATOM      3  O   UNL d   1      29.222  17.543 -25.090  0.00  0.00    -0.265 OA
ENDROOT
BRANCH   2   4
ATOM      4  C   UNL d   1      30.496  17.966 -24.652  0.00  0.00     0.101 C 
BRANCH   4   5
ATOM      5  S   UNL d   1      31.233  17.597 -24.590  0.00  0.00    -0.044 SA
BRANCH   5   6
ATOM      6  C   UNL d   1      31.929  18.039 -24.661  0.00  0.00     0.180 A 
ATOM      7  N   UNL d   1      32.649  17.854 -24.319  0.00  0.00    -0.284 N 
ATOM      8  C   UNL d   1      33.185  18.446 -24.536  0.00  0.00     0.103 A 
ATOM      9  C   UNL d   1      32.781  18.999 -25.017  0.00  0.00     0.120 A 
ATOM     10  N   UNL d   1      32.015  18.738 -25.085  0.00  0.00    -0.219 NA
BRANCH   7  11
ATOM     11  C   UNL d   1      32.846  17.210 -23.843  0.00  0.00     0.066 A 
ATOM     12  C   UNL d   1      32.860  16.450 -24.163  0.00  0.00     0.018 A 
ATOM     13  C   UNL d   1      33.058  15.805 -23.687  0.00  0.00     0.002 A 
ATOM     14  C   UNL d   1      33.241  15.922 -22.890  0.00  0.00     0.000 A 
ATOM     15  C   UNL d   1      33.226  16.677 -22.578  0.00  0.00     0.002 A 
ATOM     16  C   UNL d   1      33.028  17.321 -23.054  0.00  0.00     0.018 A 
ENDBRANCH   7  11
ENDBRANCH   5   6
ENDBRANCH   4   5
ENDBRANCH   2   4
BRANCH   1  17
ATOM     17  C   UNL d   1      29.028  16.720 -23.674  0.00  0.00     0.107 A 
ATOM     18  C   UNL d   1      29.053  16.013 -23.266  0.00  0.00     0.114 A 
ATOM     19  C   UNL d   1      28.368  15.594 -23.125  0.00  0.00     0.050 A 
ATOM     20  C   UNL d   1      27.642  15.884 -23.395  0.00  0.00     0.096 A 
ATOM     21  C   UNL d   1      27.609  16.602 -23.810  0.00  0.00     0.026 A 
ATOM     22  C   UNL d   1      28.307  17.016 -23.947  0.00  0.00     0.023 A 
BRANCH  18  23
ATOM     23  O   UNL d   1      29.767  15.717 -22.994  0.00  0.00    -0.327 OA
ATOM     24  C   UNL d   1      29.835  15.453 -22.204  0.00  0.00     0.181 C 
ENDBRANCH  18  23
BRANCH  20  25
ATOM     25  O   UNL d   1      26.944  15.453 -23.249  0.00  0.00    -0.328 OA
ATOM     26  C   UNL d   1      26.209  15.773 -23.461  0.00  0.00     0.181 C 
ENDBRANCH  20  25
ENDBRANCH   1  17
TORSDOF 7
ENDMDL
