MODEL 1
REMARK VINA RESULT:      76.5      0.000      0.000
REMARK  4 active torsions:
REMARK  status: ('A' for Active; 'I' for Inactive)
REMARK    1  A    between atoms: C_12  and  C_2 
REMARK    2  A    between atoms: N_9  and  C_3 
REMARK       I    between atoms: C_7  and  N_8 
REMARK    3  A    between atoms: C_10  and  C_7 
REMARK    4  A    between atoms: N_8  and  N_9 
ROOT
ATOM      1  C   UNL d   1      60.673  48.908  51.500  0.00  0.00     0.037 A 
ATOM      2  C   UNL d   1      60.397  48.626  50.772  0.00  0.00     0.101 A 
ATOM      3  C   UNL d   1      59.156  49.364  50.956  0.00  0.00     0.768 A 
ATOM      4  N   UNL d   1      59.649  48.856  50.512  0.00  0.00    -0.058 NA
ATOM      5  N   UNL d   1      59.453  49.643  51.699  0.00  0.00    -0.058 NA
ATOM      6  C   UNL d   1      60.194  49.419  51.963  0.00  0.00     0.101 A 
ATOM      7  C   UNL d   1      61.415  48.701  51.795  0.00  0.00     0.010 A 
ATOM      8  C   UNL d   1      60.475  49.708  52.708  0.00  0.00     0.020 A 
ATOM      9  C   UNL d   1      61.695  48.972  52.510  0.00  0.00     0.035 A 
ATOM     10  C   UNL d   1      61.217  49.474  52.957  0.00  0.00     0.008 A 
ATOM     11 BR   UNL d   1      62.470  48.743  52.795  0.00  0.00    -0.049 Br
ENDROOT
BRANCH   3  12
ATOM     12  N   UNL d   1      58.403  49.599  50.700  0.00  0.00     0.049 NA
BRANCH  12  13
ATOM     13  N   UNL d   1      58.209  49.613  49.902  0.00  0.00    -0.094 NA
ATOM     14  C   UNL d   1      57.445  49.650  49.664  0.00  0.00     0.273 C 
ATOM     15  O   UNL d   1      57.286  49.662  48.849  0.00  0.00    -0.269 OA
BRANCH  14  16
ATOM     16  C   UNL d   1      56.837  49.675  50.214  0.00  0.00     0.075 C 
ATOM     17  C   UNL d   1      56.263  49.653  49.578  0.00  0.00     0.009 C 
ATOM     18  C   UNL d   1      57.410  49.697  50.814  0.00  0.00     0.009 C 
ATOM     19  C   UNL d   1      56.229  49.701  50.765  0.00  0.00     0.009 C 
ENDBRANCH  14  16
ENDBRANCH  12  13
ENDBRANCH   3  12
BRANCH   2  20
ATOM     20  C   UNL d   1      60.843  48.131  50.308  0.00  0.00     0.018 A 
ATOM     21  C   UNL d   1      60.793  47.325  50.371  0.00  0.00     0.002 A 
ATOM     22  C   UNL d   1      61.237  46.835  49.908  0.00  0.00     0.000 A 
ATOM     23  C   UNL d   1      61.754  47.167  49.357  0.00  0.00     0.000 A 
ATOM     24  C   UNL d   1      61.816  47.940  49.282  0.00  0.00     0.000 A 
ATOM     25  C   UNL d   1      61.366  48.457  49.751  0.00  0.00     0.002 A 
ENDBRANCH   2  20
TORSDOF 4
ENDMDL
