MODEL 1
REMARK VINA RESULT:      51.3      0.000      0.000
REMARK  9 active torsions:
REMARK  status: ('A' for Active; 'I' for Inactive)
REMARK    1  A    between atoms: C_6  and  C_1 
REMARK    2  A    between atoms: C_2  and  O_5 
REMARK    3  A    between atoms: C_4  and  C_2 
REMARK    4  A    between atoms: O_5  and  C_3 
REMARK    5  A    between atoms: C_7  and  C_6 
REMARK    6  A    between atoms: C_10  and  C_7 
REMARK    7  A    between atoms: O_25  and  C_8 
REMARK    8  A    between atoms: C_20  and  C_10 
REMARK    9  A    between atoms: O_27  and  C_14 
ROOT
ATOM      1  C   UNL d   1      45.768 -18.338  41.447  0.00  0.00     0.062 A 
ATOM      2  C   UNL d   1      45.996 -18.154  42.229  0.00  0.00     0.106 A 
ATOM      3  C   UNL d   1      45.985 -19.064  41.123  0.00  0.00     0.012 A 
ATOM      4  C   UNL d   1      46.432 -18.698  42.663  0.00  0.00     0.025 A 
ATOM      5  C   UNL d   1      46.421 -19.603  41.564  0.00  0.00     0.035 A 
ATOM      6  C   UNL d   1      46.647 -19.420  42.338  0.00  0.00     0.009 A 
ATOM      7 BR   UNL d   1      46.637 -20.330  41.235  0.00  0.00    -0.049 Br
ENDROOT
BRANCH   1   8
ATOM      8  C   UNL d   1      45.330 -17.796  41.006  0.00  0.00     0.198 C 
ATOM      9  O   UNL d   1      44.660 -17.442  41.338  0.00  0.00    -0.286 OA
BRANCH   8  10
ATOM     10  C   UNL d   1      45.558 -17.608  40.238  0.00  0.00     0.042 C 
BRANCH  10  11
ATOM     11  C   UNL d   1      44.988 -17.492  39.653  0.00  0.00     0.003 C 
BRANCH  11  12
ATOM     12  C   UNL d   1      45.139 -16.975  39.019  0.00  0.00     0.002 A 
ATOM     13  C   UNL d   1      44.505 -16.803  38.499  0.00  0.00     0.026 A 
ATOM     14  C   UNL d   1      44.678 -16.276  37.862  0.00  0.00     0.116 A 
ATOM     15  C   UNL d   1      45.432 -15.951  37.761  0.00  0.00     0.116 A 
ATOM     16  C   UNL d   1      46.042 -16.147  38.302  0.00  0.00     0.026 A 
ATOM     17  C   UNL d   1      45.888 -16.661  38.930  0.00  0.00     0.002 A 
BRANCH  14  18
ATOM     18  O   UNL d   1      44.088 -16.079  37.330  0.00  0.00    -0.326 OA
ATOM     19  C   UNL d   1      43.575 -16.659  37.040  0.00  0.00     0.181 C 
ENDBRANCH  14  18
BRANCH  15  20
ATOM     20  O   UNL d   1      45.585 -15.439  37.135  0.00  0.00    -0.326 OA
ATOM     21  C   UNL d   1      46.332 -15.093  37.055  0.00  0.00     0.181 C 
ENDBRANCH  15  20
ENDBRANCH  11  12
ENDBRANCH  10  11
ENDBRANCH   8  10
ENDBRANCH   1   8
BRANCH   2  22
ATOM     22  O   UNL d   1      45.781 -17.431  42.554  0.00  0.00    -0.271 OA
BRANCH  22  23
ATOM     23  C   UNL d   1      45.891 -17.298  43.363  0.00  0.00     0.323 C 
ATOM     24  O   UNL d   1      46.155 -17.909  43.858  0.00  0.00    -0.257 OA
BRANCH  23  25
ATOM     25  C   UNL d   1      45.739 -16.554  43.683  0.00  0.00     0.163 A 
ATOM     26  O   UNL d   1      45.203 -16.391  44.289  0.00  0.00    -0.300 OA
ATOM     27  C   UNL d   1      45.229 -15.568  44.437  0.00  0.00     0.123 A 
ATOM     28  C   UNL d   1      45.779 -15.233  43.921  0.00  0.00     0.029 A 
ATOM     29  C   UNL d   1      46.094 -15.842  43.456  0.00  0.00     0.032 A 
ENDBRANCH  23  25
ENDBRANCH  22  23
ENDBRANCH   2  22
TORSDOF 9
ENDMDL
MODEL 2
REMARK VINA RESULT:      51.3      1.998      5.838
REMARK  9 active torsions:
REMARK  status: ('A' for Active; 'I' for Inactive)
REMARK    1  A    between atoms: C_6  and  C_1 
REMARK    2  A    between atoms: C_2  and  O_5 
REMARK    3  A    between atoms: C_4  and  C_2 
REMARK    4  A    between atoms: O_5  and  C_3 
REMARK    5  A    between atoms: C_7  and  C_6 
REMARK    6  A    between atoms: C_10  and  C_7 
REMARK    7  A    between atoms: O_25  and  C_8 
REMARK    8  A    between atoms: C_20  and  C_10 
REMARK    9  A    between atoms: O_27  and  C_14 
ROOT
ATOM      1  C   UNL d   1      45.037 -16.039  37.330  0.00  0.00     0.062 A 
ATOM      2  C   UNL d   1      44.374 -15.543  37.224  0.00  0.00     0.106 A 
ATOM      3  C   UNL d   1      45.791 -15.750  37.163  0.00  0.00     0.012 A 
ATOM      4  C   UNL d   1      44.482 -14.775  36.955  0.00  0.00     0.025 A 
ATOM      5  C   UNL d   1      45.890 -14.980  36.895  0.00  0.00     0.035 A 
ATOM      6  C   UNL d   1      45.233 -14.488  36.790  0.00  0.00     0.009 A 
ATOM      7 BR   UNL d   1      46.647 -14.692  36.728  0.00  0.00    -0.049 Br
ENDROOT
BRANCH   1   8
ATOM      8  C   UNL d   1      44.935 -16.812  37.599  0.00  0.00     0.198 C 
ATOM      9  O   UNL d   1      44.754 -17.414  37.061  0.00  0.00    -0.286 OA
BRANCH   8  10
ATOM     10  C   UNL d   1      45.014 -16.985  38.400  0.00  0.00     0.042 C 
BRANCH  10  11
ATOM     11  C   UNL d   1      45.344 -17.702  38.638  0.00  0.00     0.003 C 
BRANCH  11  12
ATOM     12  C   UNL d   1      45.474 -17.854  39.446  0.00  0.00     0.002 A 
ATOM     13  C   UNL d   1      46.012 -18.465  39.645  0.00  0.00     0.026 A 
ATOM     14  C   UNL d   1      46.129 -18.604  40.469  0.00  0.00     0.116 A 
ATOM     15  C   UNL d   1      45.733 -18.160  41.044  0.00  0.00     0.116 A 
ATOM     16  C   UNL d   1      45.201 -17.557  40.807  0.00  0.00     0.026 A 
ATOM     17  C   UNL d   1      45.076 -17.409  40.005  0.00  0.00     0.002 A 
BRANCH  14  18
ATOM     18  O   UNL d   1      46.646 -19.191  40.710  0.00  0.00    -0.326 OA
ATOM     19  C   UNL d   1      46.360 -19.887  41.053  0.00  0.00     0.181 C 
ENDBRANCH  14  18
BRANCH  15  20
ATOM     20  O   UNL d   1      45.858 -18.308  41.845  0.00  0.00    -0.326 OA
ATOM     21  C   UNL d   1      45.458 -17.864  42.416  0.00  0.00     0.181 C 
ENDBRANCH  15  20
ENDBRANCH  11  12
ENDBRANCH  10  11
ENDBRANCH   8  10
ENDBRANCH   1   8
BRANCH   2  22
ATOM     22  O   UNL d   1      43.623 -15.829  37.389  0.00  0.00    -0.271 OA
BRANCH  22  23
ATOM     23  C   UNL d   1      42.982 -15.307  37.407  0.00  0.00     0.323 C 
ATOM     24  O   UNL d   1      43.036 -14.587  37.814  0.00  0.00    -0.257 OA
BRANCH  23  25
ATOM     25  C   UNL d   1      42.280 -15.501  37.019  0.00  0.00     0.163 A 
ATOM     26  O   UNL d   1      41.972 -16.260  36.931  0.00  0.00    -0.300 OA
ATOM     27  C   UNL d   1      41.256 -16.197  36.503  0.00  0.00     0.123 A 
ATOM     28  C   UNL d   1      41.132 -15.400  36.330  0.00  0.00     0.029 A 
ATOM     29  C   UNL d   1      41.765 -14.969  36.649  0.00  0.00     0.032 A 
ENDBRANCH  23  25
ENDBRANCH  22  23
ENDBRANCH   2  22
TORSDOF 9
ENDMDL
