MODEL 1
REMARK VINA RESULT:      -7.9      0.000      0.000
REMARK  5 active torsions:
REMARK  status: ('A' for Active; 'I' for Inactive)
REMARK    1  A    between atoms: C_2  and  C_1 
REMARK    2  A    between atoms: C_8  and  C_2 
REMARK    3  A    between atoms: O_18  and  C_7 
REMARK    4  A    between atoms: C_13  and  C_8 
REMARK    5  A    between atoms: O_20  and  C_11 
ROOT
ATOM      1  C   UNL d   1     -48.231  13.954  22.685  0.00  0.00     0.202 C 
ATOM      2  O   UNL d   1     -48.193  13.526  21.981  0.00  0.00    -0.286 OA
ENDROOT
BRANCH   1   3
ATOM      3  C   UNL d   1     -48.939  14.308  22.915  0.00  0.00     0.117 A 
ATOM      4  C   UNL d   1     -49.043  15.122  22.816  0.00  0.00     0.205 A 
ATOM      5  C   UNL d   1     -49.748  15.479  23.045  0.00  0.00     0.084 A 
ATOM      6  O   UNL d   1     -48.442  15.583  22.488  0.00  0.00    -0.286 OA
ATOM      7  C   UNL d   1     -50.353  15.025  23.373  0.00  0.00     0.202 A 
ATOM      8  C   UNL d   1     -50.253  14.214  23.473  0.00  0.00     0.084 A 
ATOM      9  O   UNL d   1     -51.064  15.388  23.603  0.00  0.00    -0.286 OA
ATOM     10  C   UNL d   1     -49.545  13.854  23.244  0.00  0.00     0.205 A 
ATOM     11  O   UNL d   1     -49.445  13.043  23.344  0.00  0.00    -0.286 OA
ENDBRANCH   1   3
BRANCH   1  12
ATOM     12  C   UNL d   1     -47.563  14.025  23.155  0.00  0.00     0.042 C 
BRANCH  12  13
ATOM     13  C   UNL d   1     -46.884  13.595  22.979  0.00  0.00     0.005 A 
ATOM     14  C   UNL d   1     -46.718  12.903  23.395  0.00  0.00     0.026 A 
ATOM     15  C   UNL d   1     -46.039  12.473  23.220  0.00  0.00     0.116 A 
ATOM     16  C   UNL d   1     -45.525  12.734  22.629  0.00  0.00     0.116 A 
ATOM     17  C   UNL d   1     -45.693  13.429  22.214  0.00  0.00     0.026 A 
ATOM     18  C   UNL d   1     -46.378  13.856  22.395  0.00  0.00     0.002 A 
BRANCH  15  19
ATOM     19  O   UNL d   1     -45.868  11.775  23.637  0.00  0.00    -0.326 OA
ATOM     20  C   UNL d   1     -46.436  11.182  23.697  0.00  0.00     0.181 C 
ENDBRANCH  15  19
BRANCH  16  21
ATOM     21  O   UNL d   1     -44.837  12.307  22.445  0.00  0.00    -0.326 OA
ATOM     22  C   UNL d   1     -44.223  12.658  22.038  0.00  0.00     0.181 C 
ENDBRANCH  16  21
ENDBRANCH  12  13
ENDBRANCH   1  12
TORSDOF 5
ENDMDL
MODEL 2
REMARK VINA RESULT:      -7.1      1.599      2.475
REMARK  5 active torsions:
REMARK  status: ('A' for Active; 'I' for Inactive)
REMARK    1  A    between atoms: C_2  and  C_1 
REMARK    2  A    between atoms: C_8  and  C_2 
REMARK    3  A    between atoms: O_18  and  C_7 
REMARK    4  A    between atoms: C_13  and  C_8 
REMARK    5  A    between atoms: O_20  and  C_11 
ROOT
ATOM      1  C   UNL d   1     -48.039  11.748  22.814  0.00  0.00     0.202 C 
ATOM      2  O   UNL d   1     -47.809  11.197  22.244  0.00  0.00    -0.286 OA
ENDROOT
BRANCH   1   3
ATOM      3  C   UNL d   1     -48.792  12.082  22.784  0.00  0.00     0.117 A 
ATOM      4  C   UNL d   1     -49.407  11.749  23.227  0.00  0.00     0.205 A 
ATOM      5  C   UNL d   1     -50.159  12.080  23.200  0.00  0.00     0.084 A 
ATOM      6  O   UNL d   1     -49.271  11.086  23.698  0.00  0.00    -0.286 OA
ATOM      7  C   UNL d   1     -50.302  12.744  22.731  0.00  0.00     0.202 A 
ATOM      8  C   UNL d   1     -49.693  13.077  22.290  0.00  0.00     0.084 A 
ATOM      9  O   UNL d   1     -51.064  13.076  22.706  0.00  0.00    -0.286 OA
ATOM     10  C   UNL d   1     -48.935  12.745  22.316  0.00  0.00     0.205 A 
ATOM     11  O   UNL d   1     -48.326  13.078  21.874  0.00  0.00    -0.286 OA
ENDBRANCH   1   3
BRANCH   1  12
ATOM     12  C   UNL d   1     -47.516  11.962  23.408  0.00  0.00     0.042 C 
BRANCH  12  13
ATOM     13  C   UNL d   1     -46.729  11.724  23.374  0.00  0.00     0.005 A 
ATOM     14  C   UNL d   1     -46.169  12.211  23.015  0.00  0.00     0.026 A 
ATOM     15  C   UNL d   1     -45.382  11.973  22.982  0.00  0.00     0.116 A 
ATOM     16  C   UNL d   1     -45.153  11.250  23.307  0.00  0.00     0.116 A 
ATOM     17  C   UNL d   1     -45.717  10.764  23.667  0.00  0.00     0.026 A 
ATOM     18  C   UNL d   1     -46.507  11.008  23.697  0.00  0.00     0.002 A 
BRANCH  15  19
ATOM     19  O   UNL d   1     -44.815  12.461  22.620  0.00  0.00    -0.326 OA
ATOM     20  C   UNL d   1     -45.028  13.205  22.341  0.00  0.00     0.181 C 
ENDBRANCH  15  19
BRANCH  16  21
ATOM     21  O   UNL d   1     -44.362  11.002  23.278  0.00  0.00    -0.326 OA
ATOM     22  C   UNL d   1     -44.136  10.286  23.598  0.00  0.00     0.181 C 
ENDBRANCH  16  21
ENDBRANCH  12  13
ENDBRANCH   1  12
TORSDOF 5
ENDMDL
MODEL 3
REMARK VINA RESULT:      -6.5      0.619      1.337
REMARK  5 active torsions:
REMARK  status: ('A' for Active; 'I' for Inactive)
REMARK    1  A    between atoms: C_2  and  C_1 
REMARK    2  A    between atoms: C_8  and  C_2 
REMARK    3  A    between atoms: O_18  and  C_7 
REMARK    4  A    between atoms: C_13  and  C_8 
REMARK    5  A    between atoms: O_20  and  C_11 
ROOT
ATOM      1  C   UNL d   1     -48.313  13.489  22.733  0.00  0.00     0.202 C 
ATOM      2  O   UNL d   1     -48.222  12.975  22.094  0.00  0.00    -0.286 OA
ENDROOT
BRANCH   1   3
ATOM      3  C   UNL d   1     -48.958  14.001  22.762  0.00  0.00     0.117 A 
ATOM      4  C   UNL d   1     -48.862  14.795  22.553  0.00  0.00     0.205 A 
ATOM      5  C   UNL d   1     -49.504  15.309  22.580  0.00  0.00     0.084 A 
ATOM      6  O   UNL d   1     -48.125  15.079  22.315  0.00  0.00    -0.286 OA
ATOM      7  C   UNL d   1     -50.245  15.033  22.817  0.00  0.00     0.202 A 
ATOM      8  C   UNL d   1     -50.344  14.243  23.026  0.00  0.00     0.084 A 
ATOM      9  O   UNL d   1     -50.891  15.555  22.844  0.00  0.00    -0.286 OA
ATOM     10  C   UNL d   1     -49.699  13.725  22.998  0.00  0.00     0.205 A 
ATOM     11  O   UNL d   1     -49.798  12.935  23.207  0.00  0.00    -0.286 OA
ENDBRANCH   1   3
BRANCH   1  12
ATOM     12  C   UNL d   1     -47.760  13.488  23.338  0.00  0.00     0.042 C 
BRANCH  12  13
ATOM     13  C   UNL d   1     -47.139  12.948  23.332  0.00  0.00     0.005 A 
ATOM     14  C   UNL d   1     -46.425  13.150  22.973  0.00  0.00     0.026 A 
ATOM     15  C   UNL d   1     -45.803  12.611  22.968  0.00  0.00     0.116 A 
ATOM     16  C   UNL d   1     -45.894  11.871  23.321  0.00  0.00     0.116 A 
ATOM     17  C   UNL d   1     -46.611  11.671  23.681  0.00  0.00     0.026 A 
ATOM     18  C   UNL d   1     -47.232  12.217  23.683  0.00  0.00     0.002 A 
BRANCH  15  19
ATOM     19  O   UNL d   1     -45.082  12.810  22.606  0.00  0.00    -0.326 OA
ATOM     20  C   UNL d   1     -45.069  13.335  21.973  0.00  0.00     0.181 C 
ENDBRANCH  15  19
BRANCH  16  21
ATOM     21  O   UNL d   1     -45.272  11.320  23.320  0.00  0.00    -0.326 OA
ATOM     22  C   UNL d   1     -45.351  10.601  23.698  0.00  0.00     0.181 C 
ENDBRANCH  16  21
ENDBRANCH  12  13
ENDBRANCH   1  12
TORSDOF 5
ENDMDL
MODEL 4
REMARK VINA RESULT:      -5.9      8.310      9.662
REMARK  5 active torsions:
REMARK  status: ('A' for Active; 'I' for Inactive)
REMARK    1  A    between atoms: C_2  and  C_1 
REMARK    2  A    between atoms: C_8  and  C_2 
REMARK    3  A    between atoms: O_18  and  C_7 
REMARK    4  A    between atoms: C_13  and  C_8 
REMARK    5  A    between atoms: O_20  and  C_11 
ROOT
ATOM      1  C   UNL d   1     -39.396  14.542  19.932  0.00  0.00     0.202 C 
ATOM      2  O   UNL d   1     -39.261  15.346  19.808  0.00  0.00    -0.286 OA
ENDROOT
BRANCH   1   3
ATOM      3  C   UNL d   1     -39.163  14.189  20.640  0.00  0.00     0.117 A 
ATOM      4  C   UNL d   1     -39.660  14.223  21.300  0.00  0.00     0.205 A 
ATOM      5  C   UNL d   1     -39.431  13.872  22.008  0.00  0.00     0.084 A 
ATOM      6  O   UNL d   1     -40.388  14.609  21.255  0.00  0.00    -0.286 OA
ATOM      7  C   UNL d   1     -38.704  13.484  22.060  0.00  0.00     0.202 A 
ATOM      8  C   UNL d   1     -38.207  13.448  21.405  0.00  0.00     0.084 A 
ATOM      9  O   UNL d   1     -38.476  13.131  22.776  0.00  0.00    -0.286 OA
ATOM     10  C   UNL d   1     -38.437  13.801  20.693  0.00  0.00     0.205 A 
ATOM     11  O   UNL d   1     -37.939  13.765  20.037  0.00  0.00    -0.286 OA
ENDBRANCH   1   3
BRANCH   1  12
ATOM     12  C   UNL d   1     -39.762  14.095  19.350  0.00  0.00     0.042 C 
BRANCH  12  13
ATOM     13  C   UNL d   1     -40.015  14.450  18.652  0.00  0.00     0.005 A 
ATOM     14  C   UNL d   1     -39.577  14.353  17.961  0.00  0.00     0.026 A 
ATOM     15  C   UNL d   1     -39.830  14.708  17.263  0.00  0.00     0.116 A 
ATOM     16  C   UNL d   1     -40.520  15.159  17.254  0.00  0.00     0.116 A 
ATOM     17  C   UNL d   1     -40.959  15.255  17.949  0.00  0.00     0.026 A 
ATOM     18  C   UNL d   1     -40.699  14.896  18.648  0.00  0.00     0.002 A 
BRANCH  15  19
ATOM     19  O   UNL d   1     -39.390  14.612  16.564  0.00  0.00    -0.326 OA
ATOM     20  C   UNL d   1     -38.774  14.067  16.535  0.00  0.00     0.181 C 
ENDBRANCH  15  19
BRANCH  16  21
ATOM     21  O   UNL d   1     -40.784  15.520  16.555  0.00  0.00    -0.326 OA
ATOM     22  C   UNL d   1     -41.494  15.922  16.534  0.00  0.00     0.181 C 
ENDBRANCH  16  21
ENDBRANCH  12  13
ENDBRANCH   1  12
TORSDOF 5
ENDMDL
MODEL 5
REMARK VINA RESULT:      -5.5      8.506      9.143
REMARK  5 active torsions:
REMARK  status: ('A' for Active; 'I' for Inactive)
REMARK    1  A    between atoms: C_2  and  C_1 
REMARK    2  A    between atoms: C_8  and  C_2 
REMARK    3  A    between atoms: O_18  and  C_7 
REMARK    4  A    between atoms: C_13  and  C_8 
REMARK    5  A    between atoms: O_20  and  C_11 
ROOT
ATOM      1  C   UNL d   1     -39.602  15.035  19.629  0.00  0.00     0.202 C 
ATOM      2  O   UNL d   1     -38.977  15.559  19.757  0.00  0.00    -0.286 OA
ENDROOT
BRANCH   1   3
ATOM      3  C   UNL d   1     -39.940  14.970  18.880  0.00  0.00     0.117 A 
ATOM      4  C   UNL d   1     -40.612  15.414  18.692  0.00  0.00     0.205 A 
ATOM      5  C   UNL d   1     -40.951  15.351  17.945  0.00  0.00     0.084 A 
ATOM      6  O   UNL d   1     -40.947  15.921  19.249  0.00  0.00    -0.286 OA
ATOM      7  C   UNL d   1     -40.622  14.846  17.383  0.00  0.00     0.202 A 
ATOM      8  C   UNL d   1     -39.953  14.403  17.567  0.00  0.00     0.084 A 
ATOM      9  O   UNL d   1     -40.967  14.785  16.629  0.00  0.00    -0.286 OA
ATOM     10  C   UNL d   1     -39.610  14.464  18.317  0.00  0.00     0.205 A 
ATOM     11  O   UNL d   1     -38.941  14.021  18.501  0.00  0.00    -0.286 OA
ENDBRANCH   1   3
BRANCH   1  12
ATOM     12  C   UNL d   1     -39.885  14.580  20.250  0.00  0.00     0.042 C 
BRANCH  12  13
ATOM     13  C   UNL d   1     -39.536  14.628  20.993  0.00  0.00     0.005 A 
ATOM     14  C   UNL d   1     -39.020  14.036  21.242  0.00  0.00     0.026 A 
ATOM     15  C   UNL d   1     -38.671  14.083  21.986  0.00  0.00     0.116 A 
ATOM     16  C   UNL d   1     -38.837  14.722  22.481  0.00  0.00     0.116 A 
ATOM     17  C   UNL d   1     -39.356  15.315  22.229  0.00  0.00     0.026 A 
ATOM     18  C   UNL d   1     -39.703  15.261  21.481  0.00  0.00     0.002 A 
BRANCH  15  19
ATOM     19  O   UNL d   1     -38.150  13.488  22.240  0.00  0.00    -0.326 OA
ATOM     20  C   UNL d   1     -37.942  12.876  21.731  0.00  0.00     0.181 C 
ENDBRANCH  15  19
BRANCH  16  21
ATOM     21  O   UNL d   1     -38.490  14.778  23.233  0.00  0.00    -0.326 OA
ATOM     22  C   UNL d   1     -38.520  15.475  23.656  0.00  0.00     0.181 C 
ENDBRANCH  16  21
ENDBRANCH  12  13
ENDBRANCH   1  12
TORSDOF 5
ENDMDL
MODEL 6
REMARK VINA RESULT:      -5.4      8.017      9.914
REMARK  5 active torsions:
REMARK  status: ('A' for Active; 'I' for Inactive)
REMARK    1  A    between atoms: C_2  and  C_1 
REMARK    2  A    between atoms: C_8  and  C_2 
REMARK    3  A    between atoms: O_18  and  C_7 
REMARK    4  A    between atoms: C_13  and  C_8 
REMARK    5  A    between atoms: O_20  and  C_11 
ROOT
ATOM      1  C   UNL d   1     -39.384  15.028  18.726  0.00  0.00     0.202 C 
ATOM      2  O   UNL d   1     -38.876  15.558  18.349  0.00  0.00    -0.286 OA
ENDROOT
BRANCH   1   3
ATOM      3  C   UNL d   1     -39.666  15.195  19.483  0.00  0.00     0.117 A 
ATOM      4  C   UNL d   1     -39.175  15.081  20.139  0.00  0.00     0.205 A 
ATOM      5  C   UNL d   1     -39.453  15.246  20.895  0.00  0.00     0.084 A 
ATOM      6  O   UNL d   1     -38.405  14.802  20.041  0.00  0.00    -0.286 OA
ATOM      7  C   UNL d   1     -40.222  15.525  21.001  0.00  0.00     0.202 A 
ATOM      8  C   UNL d   1     -40.713  15.640  20.350  0.00  0.00     0.084 A 
ATOM      9  O   UNL d   1     -40.500  15.691  21.766  0.00  0.00    -0.286 OA
ATOM     10  C   UNL d   1     -40.435  15.474  19.589  0.00  0.00     0.205 A 
ATOM     11  O   UNL d   1     -40.925  15.588  18.938  0.00  0.00    -0.286 OA
ENDBRANCH   1   3
BRANCH   1  12
ATOM     12  C   UNL d   1     -39.606  14.337  18.346  0.00  0.00     0.042 C 
BRANCH  12  13
ATOM     13  C   UNL d   1     -39.195  14.076  17.683  0.00  0.00     0.005 A 
ATOM     14  C   UNL d   1     -38.813  13.346  17.699  0.00  0.00     0.026 A 
ATOM     15  C   UNL d   1     -38.402  13.085  17.036  0.00  0.00     0.116 A 
ATOM     16  C   UNL d   1     -38.372  13.552  16.357  0.00  0.00     0.116 A 
ATOM     17  C   UNL d   1     -38.756  14.284  16.343  0.00  0.00     0.026 A 
ATOM     18  C   UNL d   1     -39.167  14.541  17.013  0.00  0.00     0.002 A 
BRANCH  15  19
ATOM     19  O   UNL d   1     -38.016  12.349  17.049  0.00  0.00    -0.326 OA
ATOM     20  C   UNL d   1     -38.037  11.883  17.727  0.00  0.00     0.181 C 
ENDBRANCH  15  19
BRANCH  16  21
ATOM     21  O   UNL d   1     -37.959  13.297  15.683  0.00  0.00    -0.326 OA
ATOM     22  C   UNL d   1     -37.940  13.754  15.007  0.00  0.00     0.181 C 
ENDBRANCH  16  21
ENDBRANCH  12  13
ENDBRANCH   1  12
TORSDOF 5
ENDMDL
MODEL 7
REMARK VINA RESULT:      -5.3      7.576     10.094
REMARK  5 active torsions:
REMARK  status: ('A' for Active; 'I' for Inactive)
REMARK    1  A    between atoms: C_2  and  C_1 
REMARK    2  A    between atoms: C_8  and  C_2 
REMARK    3  A    between atoms: O_18  and  C_7 
REMARK    4  A    between atoms: C_13  and  C_8 
REMARK    5  A    between atoms: O_20  and  C_11 
ROOT
ATOM      1  C   UNL d   1     -39.410  14.047  18.185  0.00  0.00     0.202 C 
ATOM      2  O   UNL d   1     -40.000  13.506  18.386  0.00  0.00    -0.286 OA
ENDROOT
BRANCH   1   3
ATOM      3  C   UNL d   1     -39.086  14.041  17.427  0.00  0.00     0.117 A 
ATOM      4  C   UNL d   1     -38.613  13.407  17.187  0.00  0.00     0.205 A 
ATOM      5  C   UNL d   1     -38.288  13.398  16.432  0.00  0.00     0.084 A 
ATOM      6  O   UNL d   1     -38.464  12.779  17.701  0.00  0.00    -0.286 OA
ATOM      7  C   UNL d   1     -38.433  14.022  15.912  0.00  0.00     0.202 A 
ATOM      8  C   UNL d   1     -38.903  14.655  16.148  0.00  0.00     0.084 A 
ATOM      9  O   UNL d   1     -38.103  14.009  15.149  0.00  0.00    -0.286 OA
ATOM     10  C   UNL d   1     -39.231  14.665  16.908  0.00  0.00     0.205 A 
ATOM     11  O   UNL d   1     -39.701  15.298  17.144  0.00  0.00    -0.286 OA
ENDBRANCH   1   3
BRANCH   1  12
ATOM     12  C   UNL d   1     -39.149  14.590  18.741  0.00  0.00     0.042 C 
BRANCH  12  13
ATOM     13  C   UNL d   1     -39.296  14.469  19.542  0.00  0.00     0.005 A 
ATOM     14  C   UNL d   1     -39.979  14.778  19.884  0.00  0.00     0.026 A 
ATOM     15  C   UNL d   1     -40.127  14.657  20.684  0.00  0.00     0.116 A 
ATOM     16  C   UNL d   1     -39.592  14.228  21.143  0.00  0.00     0.116 A 
ATOM     17  C   UNL d   1     -38.907  13.919  20.798  0.00  0.00     0.026 A 
ATOM     18  C   UNL d   1     -38.765  14.044  19.993  0.00  0.00     0.002 A 
BRANCH  15  19
ATOM     19  O   UNL d   1     -40.814  14.967  21.033  0.00  0.00    -0.326 OA
ATOM     20  C   UNL d   1     -41.151  15.657  20.737  0.00  0.00     0.181 C 
ENDBRANCH  15  19
BRANCH  16  21
ATOM     21  O   UNL d   1     -39.732  14.101  21.952  0.00  0.00    -0.326 OA
ATOM     22  C   UNL d   1     -39.221  13.648  22.398  0.00  0.00     0.181 C 
ENDBRANCH  16  21
ENDBRANCH  12  13
ENDBRANCH   1  12
TORSDOF 5
ENDMDL
