MODEL 1
REMARK VINA RESULT:      11.9      0.000      0.000
REMARK  9 active torsions:
REMARK  status: ('A' for Active; 'I' for Inactive)
REMARK    1  A    between atoms: C_2  and  C_1 
REMARK    2  A    between atoms: C_23  and  C_7 
REMARK    3  A    between atoms: C_12  and  O_16 
REMARK    4  A    between atoms: C_18  and  C_12 
REMARK    5  A    between atoms: O_16  and  C_14 
REMARK    6  A    between atoms: C_30  and  C_17 
REMARK    7  A    between atoms: C_20  and  C_28 
REMARK    8  A    between atoms: O_25  and  C_23 
REMARK    9  A    between atoms: C_28  and  O_25 
ROOT
ATOM      1  C   UNL d   1     -42.009-122.677 -50.319  0.00  0.00     0.098 A 
ATOM      2  C   UNL d   1     -41.628-122.042 -50.705  0.00  0.00     0.202 A 
ATOM      3  C   UNL d   1     -41.753-121.908 -51.509  0.00  0.00     0.062 A 
ATOM      4  C   UNL d   1     -42.519-123.177 -50.752  0.00  0.00     0.130 A 
ATOM      5  C   UNL d   1     -42.263-122.408 -51.942  0.00  0.00     0.105 A 
ATOM      6  O   UNL d   1     -42.651-123.049 -51.566  0.00  0.00    -0.305 OA
ATOM      7  C   UNL d   1     -41.378-121.284 -51.889  0.00  0.00     0.007 A 
ATOM      8  C   UNL d   1     -42.008-121.645 -53.122  0.00  0.00     0.105 A 
ATOM      9  C   UNL d   1     -42.388-122.274 -52.747  0.00  0.00     0.050 A 
ATOM     10  C   UNL d   1     -41.504-121.151 -52.694  0.00  0.00     0.023 A 
ATOM     11  O   UNL d   1     -41.123-121.547 -50.276  0.00  0.00    -0.286 OA
ENDROOT
BRANCH   1  12
ATOM     12  C   UNL d   1     -41.882-122.809 -49.513  0.00  0.00     0.153 A 
ATOM     13  N   UNL d   1     -41.457-123.438 -49.192  0.00  0.00    -0.227 NA
ATOM     14  C   UNL d   1     -41.468-123.356 -48.371  0.00  0.00     0.099 A 
ATOM     15  C   UNL d   1     -41.141-123.810 -47.769  0.00  0.00     0.021 A 
ATOM     16  C   UNL d   1     -41.899-122.677 -48.189  0.00  0.00     0.083 A 
ATOM     17  C   UNL d   1     -41.244-123.589 -46.981  0.00  0.00     0.002 A 
ATOM     18  C   UNL d   1     -41.679-122.905 -46.805  0.00  0.00     0.002 A 
ATOM     19  C   UNL d   1     -42.004-122.452 -47.404  0.00  0.00     0.019 A 
ATOM     20  N   UNL d   1     -42.153-122.342 -48.898  0.00  0.00    -0.288 N 
ATOM     21  C   UNL d   1     -42.604-121.654 -48.973  0.00  0.00     0.101 C 
ENDBRANCH   1  12
BRANCH   4  22
ATOM     22  C   UNL d   1     -42.901-123.811 -50.369  0.00  0.00     0.142 C 
BRANCH  22  23
ATOM     23  O   UNL d   1     -43.723-123.816 -50.297  0.00  0.00    -0.315 OA
BRANCH  23  24
ATOM     24  C   UNL d   1     -44.072-123.780 -49.546  0.00  0.00     0.246 C 
BRANCH  24  25
ATOM     25  C   UNL d   1     -44.893-123.676 -49.483  0.00  0.00     0.217 C 
ATOM     26  O   UNL d   1     -45.382-123.782 -50.141  0.00  0.00    -0.645 OA
ATOM     27  O   UNL d   1     -45.219-123.465 -48.755  0.00  0.00    -0.645 OA
ENDBRANCH  24  25
ENDBRANCH  23  24
ENDBRANCH  22  23
ENDBRANCH   4  22
BRANCH  10  28
ATOM     28  C   UNL d   1     -41.123-120.520 -53.073  0.00  0.00     0.002 C 
ATOM     29  C   UNL d   1     -41.292-119.743 -52.850  0.00  0.00     0.000 C 
ENDBRANCH  10  28
BRANCH   8  30
ATOM     30  O   UNL d   1     -42.134-121.512 -53.927  0.00  0.00    -0.276 OA
BRANCH  30  31
ATOM     31  C   UNL d   1     -42.038-122.127 -54.469  0.00  0.00     0.275 C 
ATOM     32  O   UNL d   1     -41.641-122.816 -54.247  0.00  0.00    -0.264 OA
BRANCH  31  33
ATOM     33  C   UNL d   1     -42.340-122.054 -55.237  0.00  0.00     0.078 C 
ATOM     34  C   UNL d   1     -42.646-121.977 -56.008  0.00  0.00     0.010 C 
ATOM     35  C   UNL d   1     -41.837-122.656 -55.492  0.00  0.00     0.010 C 
ATOM     36  C   UNL d   1     -42.844-121.448 -54.974  0.00  0.00     0.010 C 
ENDBRANCH  31  33
ENDBRANCH  30  31
ENDBRANCH   8  30
TORSDOF 9
ENDMDL
MODEL 2
REMARK VINA RESULT:      13.2      1.663      5.744
REMARK  9 active torsions:
REMARK  status: ('A' for Active; 'I' for Inactive)
REMARK    1  A    between atoms: C_2  and  C_1 
REMARK    2  A    between atoms: C_23  and  C_7 
REMARK    3  A    between atoms: C_12  and  O_16 
REMARK    4  A    between atoms: C_18  and  C_12 
REMARK    5  A    between atoms: O_16  and  C_14 
REMARK    6  A    between atoms: C_30  and  C_17 
REMARK    7  A    between atoms: C_20  and  C_28 
REMARK    8  A    between atoms: O_25  and  C_23 
REMARK    9  A    between atoms: C_28  and  O_25 
ROOT
ATOM      1  C   UNL d   1     -42.072-122.011 -52.303  0.00  0.00     0.098 A 
ATOM      2  C   UNL d   1     -42.493-122.587 -51.869  0.00  0.00     0.202 A 
ATOM      3  C   UNL d   1     -42.418-122.629 -51.049  0.00  0.00     0.062 A 
ATOM      4  C   UNL d   1     -41.574-121.475 -51.901  0.00  0.00     0.130 A 
ATOM      5  C   UNL d   1     -41.919-122.093 -50.647  0.00  0.00     0.105 A 
ATOM      6  O   UNL d   1     -41.491-121.509 -51.071  0.00  0.00    -0.305 OA
ATOM      7  C   UNL d   1     -42.831-123.195 -50.622  0.00  0.00     0.007 A 
ATOM      8  C   UNL d   1     -42.262-122.706 -49.404  0.00  0.00     0.105 A 
ATOM      9  C   UNL d   1     -41.843-122.133 -49.826  0.00  0.00     0.050 A 
ATOM     10  C   UNL d   1     -42.755-123.236 -49.801  0.00  0.00     0.023 A 
ATOM     11  O   UNL d   1     -42.987-123.118 -52.267  0.00  0.00    -0.286 OA
ENDROOT
BRANCH   1  12
ATOM     12  C   UNL d   1     -42.150-121.972 -53.125  0.00  0.00     0.153 A 
ATOM     13  N   UNL d   1     -42.597-121.415 -53.538  0.00  0.00    -0.227 NA
ATOM     14  C   UNL d   1     -42.520-121.579 -54.343  0.00  0.00     0.099 A 
ATOM     15  C   UNL d   1     -42.834-121.216 -55.010  0.00  0.00     0.021 A 
ATOM     16  C   UNL d   1     -42.027-122.235 -54.424  0.00  0.00     0.083 A 
ATOM     17  C   UNL d   1     -42.658-121.507 -55.762  0.00  0.00     0.002 A 
ATOM     18  C   UNL d   1     -42.162-122.167 -55.835  0.00  0.00     0.002 A 
ATOM     19  C   UNL d   1     -41.848-122.528 -55.172  0.00  0.00     0.019 A 
ATOM     20  N   UNL d   1     -41.801-122.475 -53.667  0.00  0.00    -0.288 N 
ATOM     21  C   UNL d   1     -41.307-123.113 -53.491  0.00  0.00     0.101 C 
ENDBRANCH   1  12
BRANCH   4  22
ATOM     22  C   UNL d   1     -41.153-120.899 -52.332  0.00  0.00     0.142 C 
BRANCH  22  23
ATOM     23  O   UNL d   1     -41.126-120.119 -52.063  0.00  0.00    -0.315 OA
BRANCH  23  24
ATOM     24  C   UNL d   1     -41.206-119.493 -52.601  0.00  0.00     0.246 C 
BRANCH  24  25
ATOM     25  C   UNL d   1     -41.372-118.731 -52.319  0.00  0.00     0.217 C 
ATOM     26  O   UNL d   1     -41.772-118.185 -52.793  0.00  0.00    -0.645 OA
ATOM     27  O   UNL d   1     -41.134-118.521 -51.557  0.00  0.00    -0.645 OA
ENDBRANCH  24  25
ENDBRANCH  23  24
ENDBRANCH  22  23
ENDBRANCH   4  22
BRANCH  10  28
ATOM     28  C   UNL d   1     -43.175-123.809 -49.375  0.00  0.00     0.002 C 
ATOM     29  C   UNL d   1     -43.983-123.711 -49.238  0.00  0.00     0.000 C 
ENDBRANCH  10  28
BRANCH   8  30
ATOM     30  O   UNL d   1     -42.186-122.746 -48.583  0.00  0.00    -0.276 OA
BRANCH  30  31
ATOM     31  C   UNL d   1     -41.845-122.119 -48.167  0.00  0.00     0.275 C 
ATOM     32  O   UNL d   1     -41.205-121.709 -48.487  0.00  0.00    -0.264 OA
BRANCH  31  33
ATOM     33  C   UNL d   1     -42.147-121.902 -47.426  0.00  0.00     0.078 C 
ATOM     34  C   UNL d   1     -42.453-121.684 -46.683  0.00  0.00     0.010 C 
ATOM     35  C   UNL d   1     -41.379-121.776 -47.151  0.00  0.00     0.010 C 
ATOM     36  C   UNL d   1     -42.917-122.030 -47.709  0.00  0.00     0.010 C 
ENDBRANCH  31  33
ENDBRANCH  30  31
ENDBRANCH   8  30
TORSDOF 9
ENDMDL
MODEL 3
REMARK VINA RESULT:      13.8      1.364      1.804
REMARK  9 active torsions:
REMARK  status: ('A' for Active; 'I' for Inactive)
REMARK    1  A    between atoms: C_2  and  C_1 
REMARK    2  A    between atoms: C_23  and  C_7 
REMARK    3  A    between atoms: C_12  and  O_16 
REMARK    4  A    between atoms: C_18  and  C_12 
REMARK    5  A    between atoms: O_16  and  C_14 
REMARK    6  A    between atoms: C_30  and  C_17 
REMARK    7  A    between atoms: C_20  and  C_28 
REMARK    8  A    between atoms: O_25  and  C_23 
REMARK    9  A    between atoms: C_28  and  O_25 
ROOT
ATOM      1  C   UNL d   1     -42.426-122.879 -50.295  0.00  0.00     0.098 A 
ATOM      2  C   UNL d   1     -41.922-123.267 -50.837  0.00  0.00     0.202 A 
ATOM      3  C   UNL d   1     -42.021-123.158 -51.648  0.00  0.00     0.062 A 
ATOM      4  C   UNL d   1     -43.031-122.379 -50.579  0.00  0.00     0.130 A 
ATOM      5  C   UNL d   1     -42.627-122.658 -51.933  0.00  0.00     0.105 A 
ATOM      6  O   UNL d   1     -43.139-122.263 -51.399  0.00  0.00    -0.305 OA
ATOM      7  C   UNL d   1     -41.527-123.539 -52.182  0.00  0.00     0.007 A 
ATOM      8  C   UNL d   1     -42.226-122.936 -53.275  0.00  0.00     0.105 A 
ATOM      9  C   UNL d   1     -42.727-122.549 -52.745  0.00  0.00     0.050 A 
ATOM     10  C   UNL d   1     -41.627-123.430 -52.994  0.00  0.00     0.023 A 
ATOM     11  O   UNL d   1     -41.322-123.762 -50.555  0.00  0.00    -0.286 OA
ENDROOT
BRANCH   1  12
ATOM     12  C   UNL d   1     -42.324-122.990 -49.482  0.00  0.00     0.153 A 
ATOM     13  N   UNL d   1     -41.705-122.684 -49.031  0.00  0.00    -0.227 NA
ATOM     14  C   UNL d   1     -41.818-122.929 -48.251  0.00  0.00     0.099 A 
ATOM     15  C   UNL d   1     -41.385-122.796 -47.565  0.00  0.00     0.021 A 
ATOM     16  C   UNL d   1     -42.506-123.383 -48.223  0.00  0.00     0.083 A 
ATOM     17  C   UNL d   1     -41.637-123.116 -46.848  0.00  0.00     0.002 A 
ATOM     18  C   UNL d   1     -42.329-123.572 -46.828  0.00  0.00     0.002 A 
ATOM     19  C   UNL d   1     -42.761-123.705 -47.510  0.00  0.00     0.019 A 
ATOM     20  N   UNL d   1     -42.815-123.418 -48.987  0.00  0.00    -0.288 N 
ATOM     21  C   UNL d   1     -43.502-123.817 -49.212  0.00  0.00     0.101 C 
ENDBRANCH   1  12
BRANCH   4  22
ATOM     22  C   UNL d   1     -43.535-121.991 -50.040  0.00  0.00     0.142 C 
BRANCH  22  23
ATOM     23  O   UNL d   1     -44.284-121.741 -50.280  0.00  0.00    -0.315 OA
BRANCH  23  24
ATOM     24  C   UNL d   1     -44.665-121.127 -49.874  0.00  0.00     0.246 C 
BRANCH  24  25
ATOM     25  C   UNL d   1     -45.422-120.888 -50.114  0.00  0.00     0.217 C 
ATOM     26  O   UNL d   1     -45.867-121.355 -50.631  0.00  0.00    -0.645 OA
ATOM     27  O   UNL d   1     -45.729-120.176 -49.831  0.00  0.00    -0.645 OA
ENDBRANCH  24  25
ENDBRANCH  23  24
ENDBRANCH  22  23
ENDBRANCH   4  22
BRANCH  10  28
ATOM     28  C   UNL d   1     -41.125-123.817 -53.528  0.00  0.00     0.002 C 
ATOM     29  C   UNL d   1     -41.256-123.749 -54.340  0.00  0.00     0.000 C 
ENDBRANCH  10  28
BRANCH   8  30
ATOM     30  O   UNL d   1     -42.326-122.827 -54.087  0.00  0.00    -0.276 OA
BRANCH  30  31
ATOM     31  C   UNL d   1     -42.280-122.068 -54.412  0.00  0.00     0.275 C 
ATOM     32  O   UNL d   1     -41.986-121.442 -53.961  0.00  0.00    -0.264 OA
BRANCH  31  33
ATOM     33  C   UNL d   1     -42.529-121.936 -55.191  0.00  0.00     0.078 C 
ATOM     34  C   UNL d   1     -42.781-121.807 -55.974  0.00  0.00     0.010 C 
ATOM     35  C   UNL d   1     -42.212-121.175 -55.162  0.00  0.00     0.010 C 
ATOM     36  C   UNL d   1     -42.846-122.704 -55.213  0.00  0.00     0.010 C 
ENDBRANCH  31  33
ENDBRANCH  30  31
ENDBRANCH   8  30
TORSDOF 9
ENDMDL
