MODEL 1
REMARK VINA RESULT:      91.1      0.000      0.000
REMARK  6 active torsions:
REMARK  status: ('A' for Active; 'I' for Inactive)
REMARK    1  A    between atoms: C_8  and  C_1 
REMARK    2  A    between atoms: C_2  and  N_3 
REMARK       I    between atoms: N_3  and  C_8 
REMARK    3  A    between atoms: S_4  and  C_14 
REMARK    4  A    between atoms: C_23  and  N_7 
REMARK    5  A    between atoms: C_27  and  C_23 
REMARK    6  A    between atoms: O_26  and  C_27 
ROOT
ATOM      1  C   UNL d   1     -51.147  26.407  33.417  0.00  0.00     0.182 A 
ATOM      2  N   UNL d   1     -50.928  25.619  33.369  0.00  0.00    -0.283 N 
ATOM      3  S   UNL d   1     -51.970  26.442  33.433  0.00  0.00    -0.048 SA
ATOM      4  C   UNL d   1     -52.259  25.668  33.395  0.00  0.00     0.049 A 
ATOM      5  C   UNL d   1     -51.613  25.157  33.355  0.00  0.00     0.072 A 
ATOM      6  C   UNL d   1     -53.144  24.552  33.348  0.00  0.00     0.107 A 
ATOM      7  C   UNL d   1     -53.025  25.364  33.391  0.00  0.00     0.021 A 
ATOM      8  C   UNL d   1     -51.731  24.343  33.312  0.00  0.00     0.019 A 
ATOM      9  C   UNL d   1     -52.497  24.041  33.309  0.00  0.00     0.015 A 
ENDROOT
BRANCH   1  10
ATOM     10  N   UNL d   1     -50.629  27.049  33.443  0.00  0.00    -0.183 NA
ATOM     11  C   UNL d   1     -50.673  27.581  34.070  0.00  0.00     0.288 C 
ATOM     12  O   UNL d   1     -51.233  27.468  34.664  0.00  0.00    -0.265 OA
BRANCH  11  13
ATOM     13  C   UNL d   1     -50.158  28.224  34.103  0.00  0.00     0.098 A 
ATOM     14  S   UNL d   1     -49.432  28.238  34.478  0.00  0.00    -0.081 SA
ATOM     15  C   UNL d   1     -49.101  28.983  34.378  0.00  0.00     0.030 A 
ATOM     16  C   UNL d   1     -48.383  29.308  34.634  0.00  0.00     0.006 A 
ATOM     17  C   UNL d   1     -49.624  29.445  33.936  0.00  0.00     0.017 A 
ATOM     18  C   UNL d   1     -48.186  30.094  34.449  0.00  0.00     0.001 A 
ATOM     19  C   UNL d   1     -48.726  30.550  34.001  0.00  0.00     0.000 A 
ATOM     20  C   UNL d   1     -49.430  30.228  33.751  0.00  0.00     0.001 A 
ATOM     21  C   UNL d   1     -50.287  28.969  33.763  0.00  0.00     0.069 A 
ATOM     22 CL   UNL d   1     -50.946  29.205  33.333  0.00  0.00    -0.082 Cl
ENDBRANCH  11  13
ENDBRANCH   1  10
BRANCH   2  23
ATOM     23  C   UNL d   1     -50.155  25.327  33.340  0.00  0.00     0.108 C 
BRANCH  23  24
ATOM     24  C   UNL d   1     -49.643  25.439  33.974  0.00  0.00     0.135 C 
BRANCH  24  25
ATOM     25  O   UNL d   1     -48.847  25.253  33.900  0.00  0.00    -0.325 OA
ATOM     26  C   UNL d   1     -48.531  24.588  34.278  0.00  0.00     0.182 C 
ENDBRANCH  24  25
ENDBRANCH  23  24
ENDBRANCH   2  23
BRANCH   6  27
ATOM     27  S   UNL d   1     -53.920  24.241  33.344  0.00  0.00     0.302 S 
ATOM     28  O   UNL d   1     -53.640  23.461  33.344  0.00  0.00    -0.197 OA
ATOM     29  O   UNL d   1     -54.195  25.016  33.345  0.00  0.00    -0.197 OA
ATOM     30  N   UNL d   1     -54.695  23.962  33.341  0.00  0.00    -0.043 N 
ENDBRANCH   6  27
TORSDOF 6
ENDMDL
