MODEL 1
REMARK VINA RESULT:      -7.9      0.000      0.000
REMARK  5 active torsions:
REMARK  status: ('A' for Active; 'I' for Inactive)
REMARK    1  A    between atoms: C_4  and  C_1 
REMARK    2  A    between atoms: C_10  and  C_2 
REMARK    3  A    between atoms: C_8  and  C_4 
REMARK    4  A    between atoms: C_9  and  C_4 
REMARK    5  A    between atoms: N_5  and  C_9 
ROOT
ATOM      1  C   UNL d   1     -49.215  13.914  23.054  0.00  0.00     0.023 A 
ATOM      2  C   UNL d   1     -48.480  14.306  23.065  0.00  0.00     0.081 A 
ATOM      3  N   UNL d   1     -48.613  15.090  23.258  0.00  0.00    -0.246 NA
ATOM      4  C   UNL d   1     -49.799  14.465  23.242  0.00  0.00     0.019 A 
ATOM      5  C   UNL d   1     -49.432  15.198  23.370  0.00  0.00     0.081 A 
ATOM      6  C   UNL d   1     -50.617  14.400  23.315  0.00  0.00     0.002 A 
ATOM      7  C   UNL d   1     -49.874  15.859  23.567  0.00  0.00     0.019 A 
ATOM      8  C   UNL d   1     -51.063  15.064  23.513  0.00  0.00     0.000 A 
ATOM      9  C   UNL d   1     -50.702  15.786  23.639  0.00  0.00     0.002 A 
ENDROOT
BRANCH   1  10
ATOM     10  C   UNL d   1     -49.344  13.112  22.886  0.00  0.00     0.048 C 
BRANCH  10  11
ATOM     11  C   UNL d   1     -49.594  12.879  22.141  0.00  0.00     0.102 A 
ATOM     12  O   UNL d   1     -50.134  13.282  21.656  0.00  0.00    -0.305 OA
ATOM     13  C   UNL d   1     -50.218  12.847  20.966  0.00  0.00     0.123 A 
ATOM     14  C   UNL d   1     -49.730  12.169  21.015  0.00  0.00     0.029 A 
ATOM     15  C   UNL d   1     -49.355  12.200  21.738  0.00  0.00     0.027 A 
ENDBRANCH  10  11
BRANCH  10  16
ATOM     16  C   UNL d   1     -49.215  12.545  23.479  0.00  0.00     0.150 C 
BRANCH  16  17
ATOM     17  N   UNL d   1     -49.779  11.957  23.607  0.00  0.00    -0.112 N 
ATOM     18  O   UNL d   1     -50.579  12.146  23.696  0.00  0.00    -0.532 OA
ATOM     19  O   UNL d   1     -49.551  11.149  23.651  0.00  0.00    -0.532 OA
ENDBRANCH  16  17
ENDBRANCH  10  16
ENDBRANCH   1  10
BRANCH   2  20
ATOM     20  C   UNL d   1     -47.747  13.962  22.909  0.00  0.00     0.018 A 
ATOM     21  C   UNL d   1     -47.400  14.037  22.155  0.00  0.00     0.002 A 
ATOM     22  C   UNL d   1     -46.667  13.694  21.995  0.00  0.00     0.000 A 
ATOM     23  C   UNL d   1     -46.271  13.272  22.586  0.00  0.00     0.000 A 
ATOM     24  C   UNL d   1     -46.611  13.193  23.340  0.00  0.00     0.000 A 
ATOM     25  C   UNL d   1     -45.541  12.930  22.426  0.00  0.00     0.000 C 
ATOM     26  C   UNL d   1     -47.351  13.542  23.495  0.00  0.00     0.002 A 
ENDBRANCH   2  20
TORSDOF 5
ENDMDL
MODEL 2
REMARK VINA RESULT:      -7.2      1.326      2.663
REMARK  5 active torsions:
REMARK  status: ('A' for Active; 'I' for Inactive)
REMARK    1  A    between atoms: C_4  and  C_1 
REMARK    2  A    between atoms: C_10  and  C_2 
REMARK    3  A    between atoms: C_8  and  C_4 
REMARK    4  A    between atoms: C_9  and  C_4 
REMARK    5  A    between atoms: N_5  and  C_9 
ROOT
ATOM      1  C   UNL d   1     -49.108  13.038  22.740  0.00  0.00     0.023 A 
ATOM      2  C   UNL d   1     -48.399  12.628  22.897  0.00  0.00     0.081 A 
ATOM      3  N   UNL d   1     -48.589  11.929  23.277  0.00  0.00    -0.246 NA
ATOM      4  C   UNL d   1     -49.732  12.583  23.028  0.00  0.00     0.019 A 
ATOM      5  C   UNL d   1     -49.417  11.893  23.363  0.00  0.00     0.081 A 
ATOM      6  C   UNL d   1     -50.548  12.703  23.031  0.00  0.00     0.002 A 
ATOM      7  C   UNL d   1     -49.907  11.327  23.698  0.00  0.00     0.019 A 
ATOM      8  C   UNL d   1     -51.042  12.135  23.367  0.00  0.00     0.000 A 
ATOM      9  C   UNL d   1     -50.731  11.456  23.698  0.00  0.00     0.002 A 
ENDROOT
BRANCH   1  10
ATOM     10  C   UNL d   1     -49.179  13.773  22.362  0.00  0.00     0.048 C 
BRANCH  10  11
ATOM     11  C   UNL d   1     -49.390  14.440  22.787  0.00  0.00     0.102 A 
ATOM     12  O   UNL d   1     -49.877  14.462  23.459  0.00  0.00    -0.305 OA
ATOM     13  C   UNL d   1     -49.935  15.244  23.698  0.00  0.00     0.123 A 
ATOM     14  C   UNL d   1     -49.482  15.717  23.177  0.00  0.00     0.029 A 
ATOM     15  C   UNL d   1     -49.154  15.214  22.625  0.00  0.00     0.027 A 
ENDBRANCH  10  11
BRANCH  10  16
ATOM     16  C   UNL d   1     -49.034  13.826  21.545  0.00  0.00     0.150 C 
BRANCH  16  17
ATOM     17  N   UNL d   1     -49.654  14.020  21.035  0.00  0.00    -0.112 N 
ATOM     18  O   UNL d   1     -49.861  14.808  20.897  0.00  0.00    -0.532 OA
ATOM     19  O   UNL d   1     -50.088  13.416  20.644  0.00  0.00    -0.532 OA
ENDBRANCH  16  17
ENDBRANCH  10  16
ENDBRANCH   1  10
BRANCH   2  20
ATOM     20  C   UNL d   1     -47.640  12.885  22.701  0.00  0.00     0.018 A 
ATOM     21  C   UNL d   1     -47.217  13.380  23.221  0.00  0.00     0.002 A 
ATOM     22  C   UNL d   1     -46.457  13.638  23.029  0.00  0.00     0.000 A 
ATOM     23  C   UNL d   1     -46.111  13.406  22.315  0.00  0.00     0.000 A 
ATOM     24  C   UNL d   1     -46.527  12.912  21.791  0.00  0.00     0.000 A 
ATOM     25  C   UNL d   1     -45.355  13.663  22.124  0.00  0.00     0.000 C 
ATOM     26  C   UNL d   1     -47.293  12.655  21.992  0.00  0.00     0.002 A 
ENDBRANCH   2  20
TORSDOF 5
ENDMDL
MODEL 3
REMARK VINA RESULT:      -5.7      9.446     11.114
REMARK  5 active torsions:
REMARK  status: ('A' for Active; 'I' for Inactive)
REMARK    1  A    between atoms: C_4  and  C_1 
REMARK    2  A    between atoms: C_10  and  C_2 
REMARK    3  A    between atoms: C_8  and  C_4 
REMARK    4  A    between atoms: C_9  and  C_4 
REMARK    5  A    between atoms: N_5  and  C_9 
ROOT
ATOM      1  C   UNL d   1     -39.074  13.940  18.606  0.00  0.00     0.023 A 
ATOM      2  C   UNL d   1     -38.895  13.850  19.415  0.00  0.00     0.081 A 
ATOM      3  N   UNL d   1     -38.460  13.162  19.504  0.00  0.00    -0.246 NA
ATOM      4  C   UNL d   1     -38.745  13.301  18.201  0.00  0.00     0.019 A 
ATOM      5  C   UNL d   1     -38.363  12.814  18.753  0.00  0.00     0.081 A 
ATOM      6  C   UNL d   1     -38.742  13.095  17.404  0.00  0.00     0.002 A 
ATOM      7  C   UNL d   1     -37.981  12.129  18.514  0.00  0.00     0.019 A 
ATOM      8  C   UNL d   1     -38.359  12.408  17.161  0.00  0.00     0.000 A 
ATOM      9  C   UNL d   1     -37.982  11.928  17.704  0.00  0.00     0.002 A 
ENDROOT
BRANCH   1  10
ATOM     10  C   UNL d   1     -39.506  14.560  18.263  0.00  0.00     0.048 C 
BRANCH  10  11
ATOM     11  C   UNL d   1     -39.142  15.085  17.751  0.00  0.00     0.102 A 
ATOM     12  O   UNL d   1     -38.399  15.440  17.855  0.00  0.00    -0.305 OA
ATOM     13  C   UNL d   1     -38.262  15.922  17.206  0.00  0.00     0.123 A 
ATOM     14  C   UNL d   1     -38.920  15.871  16.691  0.00  0.00     0.029 A 
ATOM     15  C   UNL d   1     -39.451  15.357  17.035  0.00  0.00     0.027 A 
ENDBRANCH  10  11
BRANCH  10  16
ATOM     16  C   UNL d   1     -40.312  14.643  18.445  0.00  0.00     0.150 C 
BRANCH  16  17
ATOM     17  N   UNL d   1     -40.855  14.763  17.835  0.00  0.00    -0.112 N 
ATOM     18  O   UNL d   1     -41.110  15.524  17.636  0.00  0.00    -0.532 OA
ATOM     19  O   UNL d   1     -41.161  14.111  17.402  0.00  0.00    -0.532 OA
ENDBRANCH  16  17
ENDBRANCH  10  16
ENDBRANCH   1  10
BRANCH   2  20
ATOM     20  C   UNL d   1     -39.117  14.365  20.020  0.00  0.00     0.018 A 
ATOM     21  C   UNL d   1     -38.587  14.946  20.293  0.00  0.00     0.002 A 
ATOM     22  C   UNL d   1     -38.806  15.463  20.898  0.00  0.00     0.000 A 
ATOM     23  C   UNL d   1     -39.558  15.407  21.236  0.00  0.00     0.000 A 
ATOM     24  C   UNL d   1     -40.094  14.830  20.968  0.00  0.00     0.000 A 
ATOM     25  C   UNL d   1     -39.776  15.922  21.837  0.00  0.00     0.000 C 
ATOM     26  C   UNL d   1     -39.865  14.311  20.357  0.00  0.00     0.002 A 
ENDBRANCH   2  20
TORSDOF 5
ENDMDL
