MODEL 1
REMARK VINA RESULT:      38.1      0.000      0.000
REMARK  2 active torsions:
REMARK  status: ('A' for Active; 'I' for Inactive)
REMARK    1  A    between atoms: C_5  and  C_1 
REMARK       I    between atoms: N_7  and  C_5 
REMARK    2  A    between atoms: C_9  and  N_7 
ROOT
ATOM      1  C   UNL d   1      13.566  12.282  -2.935  0.00  0.00     0.161 A 
ATOM      2  C   UNL d   1      14.358  12.249  -2.828  0.00  0.00     0.072 A 
ATOM      3  O   UNL d   1      13.032  12.180  -2.267  0.00  0.00    -0.302 OA
ATOM      4  C   UNL d   1      14.683  12.119  -2.090  0.00  0.00     0.200 A 
ATOM      5  C   UNL d   1      14.188  12.017  -1.428  0.00  0.00     0.062 A 
ATOM      6  C   UNL d   1      13.384  12.048  -1.526  0.00  0.00     0.103 A 
ATOM      7  O   UNL d   1      15.515  12.090  -2.015  0.00  0.00    -0.286 OA
ATOM      8  C   UNL d   1      14.506  11.883  -0.666  0.00  0.00     0.005 A 
ATOM      9  C   UNL d   1      12.880  11.945  -0.853  0.00  0.00     0.025 A 
ATOM     10  C   UNL d   1      13.998  11.783  -0.019  0.00  0.00     0.000 A 
ATOM     11  C   UNL d   1      13.205  11.814  -0.114  0.00  0.00     0.002 A 
ENDROOT
BRANCH   1  12
ATOM     12  C   UNL d   1      13.271  12.421  -3.729  0.00  0.00     0.302 C 
ATOM     13  N   UNL d   1      13.314  13.172  -4.067  0.00  0.00    -0.206 NA
ATOM     14  O   UNL d   1      12.941  11.779  -4.151  0.00  0.00    -0.263 OA
BRANCH  13  15
ATOM     15  C   UNL d   1      13.641  13.787  -3.635  0.00  0.00     0.085 A 
ATOM     16  C   UNL d   1      13.391  14.562  -3.771  0.00  0.00     0.018 A 
ATOM     17  C   UNL d   1      13.705  15.185  -3.352  0.00  0.00     0.002 A 
ATOM     18  C   UNL d   1      12.794  14.710  -4.359  0.00  0.00     0.002 C 
ATOM     19  C   UNL d   1      14.280  15.040  -2.784  0.00  0.00     0.000 A 
ATOM     20  C   UNL d   1      14.535  14.268  -2.643  0.00  0.00     0.002 A 
ATOM     21  C   UNL d   1      14.616  15.676  -2.341  0.00  0.00     0.000 C 
ATOM     22  C   UNL d   1      14.208  13.652  -3.074  0.00  0.00     0.019 A 
ENDBRANCH  13  15
ENDBRANCH   1  12
TORSDOF 2
ENDMDL
