MODEL 1
REMARK VINA RESULT:      51.4      0.000      0.000
REMARK  9 active torsions:
REMARK  status: ('A' for Active; 'I' for Inactive)
REMARK    1  A    between atoms: C_12  and  N_1 
REMARK    2  A    between atoms: S_7  and  C_2 
REMARK    3  A    between atoms: C_15  and  S_7 
REMARK    4  A    between atoms: C_9  and  C_15 
REMARK    5  A    between atoms: O_14  and  C_9 
REMARK       I    between atoms: C_10  and  N_16 
REMARK    6  A    between atoms: C_19  and  C_12 
REMARK    7  A    between atoms: C_18  and  O_14 
REMARK    8  A    between atoms: N_16  and  C_19 
REMARK    9  A    between atoms: C_20  and  C_18 
ROOT
ATOM      1  N   UNL d   1      44.859 -15.671  37.169  0.00  0.00    -0.251 N 
ATOM      2  C   UNL d   1      44.712 -16.340  37.629  0.00  0.00     0.182 A 
ATOM      3  C   UNL d   1      44.232 -15.273  36.795  0.00  0.00     0.268 A 
ATOM      4  N   UNL d   1      43.937 -16.621  37.720  0.00  0.00    -0.222 NA
ATOM      5  C   UNL d   1      43.457 -15.557  36.888  0.00  0.00     0.074 A 
ATOM      6  C   UNL d   1      43.310 -16.226  37.348  0.00  0.00     0.088 A 
ATOM      7  O   UNL d   1      44.380 -14.596  36.330  0.00  0.00    -0.267 OA
ATOM      8  C   UNL d   1      42.827 -15.158  36.513  0.00  0.00     0.006 A 
ATOM      9  C   UNL d   1      42.532 -16.507  37.439  0.00  0.00     0.019 A 
ATOM     10  C   UNL d   1      42.051 -15.442  36.607  0.00  0.00     0.000 A 
ATOM     11  C   UNL d   1      41.904 -16.111  37.066  0.00  0.00     0.002 A 
ENDROOT
BRANCH   2  12
ATOM     12  S   UNL d   1      45.345 -16.745  38.008  0.00  0.00    -0.044 SA
BRANCH  12  13
ATOM     13  C   UNL d   1      45.235 -17.094  38.764  0.00  0.00     0.107 C 
BRANCH  13  14
ATOM     14  C   UNL d   1      45.889 -17.271  39.236  0.00  0.00     0.307 C 
ATOM     15  O   UNL d   1      46.637 -16.998  39.023  0.00  0.00    -0.258 OA
BRANCH  14  16
ATOM     16  O   UNL d   1      45.787 -17.725  39.925  0.00  0.00    -0.271 OA
BRANCH  16  17
ATOM     17  C   UNL d   1      46.449 -18.040  40.303  0.00  0.00     0.126 C 
BRANCH  17  18
ATOM     18  C   UNL d   1      46.349 -18.532  40.954  0.00  0.00     0.025 A 
ATOM     19  C   UNL d   1      46.196 -19.335  40.847  0.00  0.00     0.002 A 
ATOM     20  C   UNL d   1      46.096 -19.826  41.495  0.00  0.00     0.000 A 
ATOM     21  C   UNL d   1      46.148 -19.520  42.259  0.00  0.00     0.000 A 
ATOM     22  C   UNL d   1      46.303 -18.709  42.369  0.00  0.00     0.000 A 
ATOM     23  C   UNL d   1      46.403 -18.220  41.713  0.00  0.00     0.002 A 
ENDBRANCH  17  18
ENDBRANCH  16  17
ENDBRANCH  14  16
ENDBRANCH  13  14
ENDBRANCH  12  13
ENDBRANCH   2  12
BRANCH   1  24
ATOM     24  C   UNL d   1      45.642 -15.388  37.077  0.00  0.00     0.106 C 
BRANCH  24  25
ATOM     25  C   UNL d   1      45.864 -14.964  36.406  0.00  0.00     0.121 C 
BRANCH  25  26
ATOM     26  N   UNL d   1      46.136 -14.179  36.460  0.00  0.00    -0.205 NA
ATOM     27  C   UNL d   1      46.374 -13.865  37.190  0.00  0.00     0.280 C 
ATOM     28  O   UNL d   1      46.343 -14.332  37.870  0.00  0.00    -0.265 OA
ATOM     29  C   UNL d   1      46.642 -13.088  37.236  0.00  0.00     0.068 C 
ENDBRANCH  25  26
ENDBRANCH  24  25
ENDBRANCH   1  24
TORSDOF 9
ENDMDL
