MODEL 1
REMARK VINA RESULT:      21.2      0.000      0.000
REMARK  2 active torsions:
REMARK  status: ('A' for Active; 'I' for Inactive)
REMARK    1  A    between atoms: C_8  and  N_1 
REMARK    2  A    between atoms: C_12  and  C_8 
ROOT
ATOM      1  N   UNL d   1      46.559 -17.717  43.669  0.00  0.00    -0.238 N 
ATOM      2  C   UNL d   1      46.528 -18.194  44.143  0.00  0.00     0.267 A 
ATOM      3  C   UNL d   1      46.524 -17.834  42.894  0.00  0.00     0.267 A 
ATOM      4  C   UNL d   1      46.443 -18.563  42.510  0.00  0.00     0.057 A 
ATOM      5  C   UNL d   1      46.452 -18.992  44.136  0.00  0.00     0.057 A 
ATOM      6  C   UNL d   1      46.383 -19.312  42.866  0.00  0.00     0.005 A 
ATOM      7  C   UNL d   1      46.392 -19.460  43.627  0.00  0.00     0.005 A 
ATOM      8  O   UNL d   1      46.585 -17.859  44.954  0.00  0.00    -0.267 OA
ATOM      9  O   UNL d   1      46.569 -17.203  42.432  0.00  0.00    -0.267 OA
ATOM     10  C   UNL d   1      46.454 -19.186  44.794  0.00  0.00     0.005 A 
ATOM     11  C   UNL d   1      46.426 -18.475  41.689  0.00  0.00     0.005 A 
ATOM     12  C   UNL d   1      46.305 -19.973  42.383  0.00  0.00     0.000 A 
ATOM     13  C   UNL d   1      46.333 -20.137  43.787  0.00  0.00     0.000 A 
ATOM     14  C   UNL d   1      46.348 -19.148  41.211  0.00  0.00     0.000 A 
ATOM     15  C   UNL d   1      46.287 -19.897  41.561  0.00  0.00     0.000 A 
ATOM     16  C   UNL d   1      46.335 -20.330  44.453  0.00  0.00     0.000 A 
ATOM     17  C   UNL d   1      46.395 -19.859  44.955  0.00  0.00     0.000 A 
ENDROOT
BRANCH   1  18
ATOM     18  C   UNL d   1      46.647 -16.876  43.942  0.00  0.00     0.111 C 
BRANCH  18  19
ATOM     19  C   UNL d   1      45.934 -16.410  44.165  0.00  0.00     0.118 A 
ATOM     20  O   UNL d   1      45.197 -16.333  43.686  0.00  0.00    -0.304 OA
ATOM     21  C   UNL d   1      44.638 -15.816  44.129  0.00  0.00     0.123 A 
ATOM     22  C   UNL d   1      45.029 -15.572  44.883  0.00  0.00     0.029 A 
ATOM     23  C   UNL d   1      45.829 -15.941  44.902  0.00  0.00     0.028 A 
ENDBRANCH  18  19
ENDBRANCH   1  18
TORSDOF 2
ENDMDL
