MODEL 1
REMARK VINA RESULT:       2.4      0.000      0.000
REMARK  8 active torsions:
REMARK  status: ('A' for Active; 'I' for Inactive)
REMARK    1  A    between atoms: C_2  and  S_1 
REMARK    2  A    between atoms: N_3  and  S_1 
REMARK    3  A    between atoms: C_17  and  N_3 
REMARK    4  A    between atoms: O_21  and  C_8 
REMARK    5  A    between atoms: O_22  and  C_16 
REMARK    6  A    between atoms: C_18  and  C_17 
REMARK    7  A    between atoms: C_23  and  O_21 
REMARK    8  A    between atoms: C_24  and  O_22 
ROOT
ATOM      1  S   UNL d   1     -42.804-121.937 -51.850  0.00  0.00     0.287 S 
ATOM      2  O   UNL d   1     -43.360-121.673 -51.305  0.00  0.00    -0.198 OA
ATOM      3  O   UNL d   1     -43.336-121.738 -52.472  0.00  0.00    -0.198 OA
ENDROOT
BRANCH   1   4
ATOM      4  C   UNL d   1     -42.270-122.138 -51.236  0.00  0.00     0.130 A 
ATOM      5  C   UNL d   1     -42.353-122.851 -50.829  0.00  0.00     0.040 A 
ATOM      6  C   UNL d   1     -41.826-123.037 -50.231  0.00  0.00     0.101 A 
ATOM      7  C   UNL d   1     -41.221-122.520 -50.035  0.00  0.00     0.027 A 
ATOM      8  C   UNL d   1     -41.125-121.802 -50.433  0.00  0.00     0.028 A 
ATOM      9  C   UNL d   1     -41.665-121.620 -51.040  0.00  0.00     0.112 A 
BRANCH   6  10
ATOM     10  O   UNL d   1     -41.921-123.774 -49.819  0.00  0.00    -0.305 OA
BRANCH  10  11
ATOM     11  C   UNL d   1     -41.869-123.811 -48.983  0.00  0.00     0.123 C 
ATOM     12  C   UNL d   1     -42.555-123.743 -48.537  0.00  0.00     0.029 C 
ENDBRANCH  10  11
ENDBRANCH   6  10
BRANCH   9  13
ATOM     13  O   UNL d   1     -41.573-120.871 -51.462  0.00  0.00    -0.304 OA
BRANCH  13  14
ATOM     14  C   UNL d   1     -41.123-120.252 -51.112  0.00  0.00     0.123 C 
ATOM     15  C   UNL d   1     -41.215-119.477 -51.386  0.00  0.00     0.029 C 
ENDBRANCH  13  14
ENDBRANCH   9  13
ENDBRANCH   1   4
BRANCH   1  16
ATOM     16  N   UNL d   1     -42.245-122.204 -52.418  0.00  0.00    -0.157 NA
BRANCH  16  17
ATOM     17  C   UNL d   1     -42.485-122.708 -53.046  0.00  0.00     0.112 C 
BRANCH  17  18
ATOM     18  C   UNL d   1     -42.156-122.585 -53.822  0.00  0.00     0.022 A 
ATOM     19  C   UNL d   1     -42.582-122.118 -54.359  0.00  0.00     0.028 A 
ATOM     20  C   UNL d   1     -42.268-121.996 -55.113  0.00  0.00     0.119 A 
ATOM     21  O   UNL d   1     -42.556-121.566 -55.759  0.00  0.00    -0.300 OA
ATOM     22  C   UNL d   1     -41.550-122.329 -55.327  0.00  0.00     0.119 A 
ATOM     23  C   UNL d   1     -42.004-121.642 -56.364  0.00  0.00     0.304 A 
ATOM     24  O   UNL d   1     -41.392-122.105 -56.105  0.00  0.00    -0.300 OA
ATOM     25  C   UNL d   1     -41.131-122.791 -54.791  0.00  0.00     0.026 A 
ATOM     26  C   UNL d   1     -41.438-122.918 -54.036  0.00  0.00     0.004 A 
ENDBRANCH  17  18
ENDBRANCH  16  17
ENDBRANCH   1  16
TORSDOF 8
ENDMDL
MODEL 2
REMARK VINA RESULT:       2.7      1.615      4.801
REMARK  8 active torsions:
REMARK  status: ('A' for Active; 'I' for Inactive)
REMARK    1  A    between atoms: C_2  and  S_1 
REMARK    2  A    between atoms: N_3  and  S_1 
REMARK    3  A    between atoms: C_17  and  N_3 
REMARK    4  A    between atoms: O_21  and  C_8 
REMARK    5  A    between atoms: O_22  and  C_16 
REMARK    6  A    between atoms: C_18  and  C_17 
REMARK    7  A    between atoms: C_23  and  O_21 
REMARK    8  A    between atoms: C_24  and  O_22 
ROOT
ATOM      1  S   UNL d   1     -42.900-121.945 -51.155  0.00  0.00     0.287 S 
ATOM      2  O   UNL d   1     -43.241-121.375 -51.638  0.00  0.00    -0.198 OA
ATOM      3  O   UNL d   1     -43.482-121.780 -50.569  0.00  0.00    -0.198 OA
ENDROOT
BRANCH   1   4
ATOM      4  C   UNL d   1     -42.319-122.115 -51.734  0.00  0.00     0.130 A 
ATOM      5  C   UNL d   1     -42.348-122.822 -52.159  0.00  0.00     0.040 A 
ATOM      6  C   UNL d   1     -41.775-122.978 -52.723  0.00  0.00     0.101 A 
ATOM      7  C   UNL d   1     -41.176-122.436 -52.866  0.00  0.00     0.027 A 
ATOM      8  C   UNL d   1     -41.133-121.724 -52.450  0.00  0.00     0.028 A 
ATOM      9  C   UNL d   1     -41.720-121.573 -51.878  0.00  0.00     0.112 A 
BRANCH   6  10
ATOM     10  O   UNL d   1     -41.815-123.709 -53.154  0.00  0.00    -0.305 OA
BRANCH  10  11
ATOM     11  C   UNL d   1     -41.865-123.714 -53.990  0.00  0.00     0.123 C 
ATOM     12  C   UNL d   1     -41.176-123.799 -54.430  0.00  0.00     0.029 C 
ENDBRANCH  10  11
ENDBRANCH   6  10
BRANCH   9  13
ATOM     13  O   UNL d   1     -41.684-120.831 -51.437  0.00  0.00    -0.304 OA
BRANCH  13  14
ATOM     14  C   UNL d   1     -41.629-120.103 -51.857  0.00  0.00     0.123 C 
ATOM     15  C   UNL d   1     -41.161-119.492 -51.553  0.00  0.00     0.029 C 
ENDBRANCH  13  14
ENDBRANCH   9  13
ENDBRANCH   1   4
BRANCH   1  16
ATOM     16  N   UNL d   1     -42.561-122.526 -50.650  0.00  0.00    -0.157 NA
BRANCH  16  17
ATOM     17  C   UNL d   1     -43.041-122.941 -50.099  0.00  0.00     0.112 C 
BRANCH  17  18
ATOM     18  C   UNL d   1     -42.705-123.170 -49.351  0.00  0.00     0.022 A 
ATOM     19  C   UNL d   1     -43.212-123.242 -48.699  0.00  0.00     0.028 A 
ATOM     20  C   UNL d   1     -42.892-123.464 -47.970  0.00  0.00     0.119 A 
ATOM     21  O   UNL d   1     -43.248-123.579 -47.233  0.00  0.00    -0.300 OA
ATOM     22  C   UNL d   1     -42.089-123.610 -47.893  0.00  0.00     0.119 A 
ATOM     23  C   UNL d   1     -42.653-123.797 -46.709  0.00  0.00     0.304 A 
ATOM     24  O   UNL d   1     -41.948-123.817 -47.107  0.00  0.00    -0.300 OA
ATOM     25  C   UNL d   1     -41.590-123.538 -48.542  0.00  0.00     0.026 A 
ATOM     26  C   UNL d   1     -41.902-123.317 -49.273  0.00  0.00     0.004 A 
ENDBRANCH  17  18
ENDBRANCH  16  17
ENDBRANCH   1  16
TORSDOF 8
ENDMDL
MODEL 3
REMARK VINA RESULT:       3.3      1.387      4.640
REMARK  8 active torsions:
REMARK  status: ('A' for Active; 'I' for Inactive)
REMARK    1  A    between atoms: C_2  and  S_1 
REMARK    2  A    between atoms: N_3  and  S_1 
REMARK    3  A    between atoms: C_17  and  N_3 
REMARK    4  A    between atoms: O_21  and  C_8 
REMARK    5  A    between atoms: O_22  and  C_16 
REMARK    6  A    between atoms: C_18  and  C_17 
REMARK    7  A    between atoms: C_23  and  O_21 
REMARK    8  A    between atoms: C_24  and  O_22 
ROOT
ATOM      1  S   UNL d   1     -41.637-123.003 -52.621  0.00  0.00     0.287 S 
ATOM      2  O   UNL d   1     -41.135-123.156 -53.254  0.00  0.00    -0.198 OA
ATOM      3  O   UNL d   1     -41.551-123.803 -52.374  0.00  0.00    -0.198 OA
ENDROOT
BRANCH   1   4
ATOM      4  C   UNL d   1     -41.726-122.205 -52.861  0.00  0.00     0.130 A 
ATOM      5  C   UNL d   1     -41.387-121.596 -52.419  0.00  0.00     0.040 A 
ATOM      6  C   UNL d   1     -41.480-120.820 -52.662  0.00  0.00     0.101 A 
ATOM      7  C   UNL d   1     -41.907-120.647 -53.341  0.00  0.00     0.027 A 
ATOM      8  C   UNL d   1     -42.253-121.245 -53.794  0.00  0.00     0.028 A 
ATOM      9  C   UNL d   1     -42.153-122.032 -53.539  0.00  0.00     0.112 A 
BRANCH   6  10
ATOM     10  O   UNL d   1     -41.126-120.202 -52.199  0.00  0.00    -0.305 OA
BRANCH  10  11
ATOM     11  C   UNL d   1     -41.528-119.873 -51.541  0.00  0.00     0.123 C 
ATOM     12  C   UNL d   1     -41.123-119.364 -51.040  0.00  0.00     0.029 C 
ENDBRANCH  10  11
ENDBRANCH   6  10
BRANCH   9  13
ATOM     13  O   UNL d   1     -42.511-122.664 -54.007  0.00  0.00    -0.304 OA
BRANCH  13  14
ATOM     14  C   UNL d   1     -42.581-122.572 -54.841  0.00  0.00     0.123 C 
ATOM     15  C   UNL d   1     -42.630-123.244 -55.322  0.00  0.00     0.029 C 
ENDBRANCH  13  14
ENDBRANCH   9  13
ENDBRANCH   1   4
BRANCH   1  16
ATOM     16  N   UNL d   1     -42.148-122.860 -51.969  0.00  0.00    -0.157 NA
BRANCH  16  17
ATOM     17  C   UNL d   1     -42.327-123.476 -51.427  0.00  0.00     0.112 C 
BRANCH  17  18
ATOM     18  C   UNL d   1     -42.441-123.283 -50.606  0.00  0.00     0.022 A 
ATOM     19  C   UNL d   1     -41.809-123.403 -50.083  0.00  0.00     0.028 A 
ATOM     20  C   UNL d   1     -41.913-123.218 -49.285  0.00  0.00     0.119 A 
ATOM     21  O   UNL d   1     -41.397-123.275 -48.641  0.00  0.00    -0.300 OA
ATOM     22  C   UNL d   1     -42.628-122.920 -49.014  0.00  0.00     0.119 A 
ATOM     23  C   UNL d   1     -41.807-123.010 -47.979  0.00  0.00     0.304 A 
ATOM     24  O   UNL d   1     -42.554-122.793 -48.202  0.00  0.00    -0.300 OA
ATOM     25  C   UNL d   1     -43.252-122.803 -49.536  0.00  0.00     0.026 A 
ATOM     26  C   UNL d   1     -43.155-122.986 -50.335  0.00  0.00     0.004 A 
ENDBRANCH  17  18
ENDBRANCH  16  17
ENDBRANCH   1  16
TORSDOF 8
ENDMDL
