MODEL 1
REMARK VINA RESULT:      -6.9      0.000      0.000
REMARK  4 active torsions:
REMARK  status: ('A' for Active; 'I' for Inactive)
REMARK    1  A    between atoms: C_10  and  C_3 
REMARK       I    between atoms: N_11  and  C_10 
REMARK    2  A    between atoms: C_15  and  N_11 
REMARK    3  A    between atoms: C_17  and  C_15 
REMARK    4  A    between atoms: O_25  and  C_18 
ROOT
ATOM      1  C   UNL d   1     -39.632  14.515  17.706  0.00  0.00     0.071 A 
ATOM      2  C   UNL d   1     -39.531  15.219  17.246  0.00  0.00     0.142 A 
ATOM      3  C   UNL d   1     -40.098  14.696  18.361  0.00  0.00     0.086 A 
ATOM      4  C   UNL d   1     -39.286  13.815  17.461  0.00  0.00     0.198 A 
ATOM      5  O   UNL d   1     -39.935  15.834  17.619  0.00  0.00    -0.304 OA
ATOM      6  C   UNL d   1     -40.280  15.501  18.303  0.00  0.00     0.105 A 
ATOM      7  C   UNL d   1     -39.089  15.190  16.564  0.00  0.00     0.218 A 
ATOM      8  C   UNL d   1     -38.838  13.789  16.768  0.00  0.00     0.042 A 
ATOM      9  C   UNL d   1     -38.737  14.494  16.308  0.00  0.00     0.044 A 
ATOM     10  O   UNL d   1     -39.384  13.127  17.910  0.00  0.00    -0.286 OA
ATOM     11  O   UNL d   1     -38.990  15.878  16.115  0.00  0.00    -0.284 OA
ATOM     12  C   UNL d   1     -40.740  15.921  18.847  0.00  0.00     0.027 C 
ATOM     13  C   UNL d   1     -38.497  13.094  16.529  0.00  0.00     0.003 A 
ATOM     14  C   UNL d   1     -38.300  14.470  15.632  0.00  0.00     0.003 A 
ATOM     15  C   UNL d   1     -38.040  13.061  15.826  0.00  0.00     0.000 A 
ATOM     16  C   UNL d   1     -37.940  13.765  15.366  0.00  0.00     0.000 A 
ENDROOT
BRANCH   3  17
ATOM     17  C   UNL d   1     -40.347  14.188  18.970  0.00  0.00     0.281 C 
ATOM     18  N   UNL d   1     -39.982  14.225  19.698  0.00  0.00    -0.206 NA
ATOM     19  O   UNL d   1     -40.954  13.663  18.820  0.00  0.00    -0.265 OA
BRANCH  18  20
ATOM     20  C   UNL d   1     -39.389  14.745  19.827  0.00  0.00     0.102 C 
BRANCH  20  21
ATOM     21  C   UNL d   1     -39.024  14.756  20.566  0.00  0.00     0.019 A 
ATOM     22  C   UNL d   1     -38.985  14.072  21.020  0.00  0.00     0.004 A 
ATOM     23  C   UNL d   1     -38.628  14.065  21.752  0.00  0.00     0.024 A 
ATOM     24  C   UNL d   1     -38.300  14.741  22.053  0.00  0.00     0.094 A 
ATOM     25  C   UNL d   1     -38.334  15.445  21.601  0.00  0.00     0.024 A 
ATOM     26  C   UNL d   1     -38.695  15.431  20.871  0.00  0.00     0.004 A 
BRANCH  24  27
ATOM     27  O   UNL d   1     -37.941  14.707  22.806  0.00  0.00    -0.328 OA
ATOM     28  C   UNL d   1     -38.345  14.979  23.446  0.00  0.00     0.181 C 
ENDBRANCH  24  27
ENDBRANCH  20  21
ENDBRANCH  18  20
ENDBRANCH   3  17
TORSDOF 4
ENDMDL
MODEL 2
REMARK VINA RESULT:      -6.4      8.924     10.635
REMARK  4 active torsions:
REMARK  status: ('A' for Active; 'I' for Inactive)
REMARK    1  A    between atoms: C_10  and  C_3 
REMARK       I    between atoms: N_11  and  C_10 
REMARK    2  A    between atoms: C_15  and  N_11 
REMARK    3  A    between atoms: C_17  and  C_15 
REMARK    4  A    between atoms: O_25  and  C_18 
ROOT
ATOM      1  C   UNL d   1     -49.468  13.093  22.436  0.00  0.00     0.071 A 
ATOM      2  C   UNL d   1     -49.893  13.122  21.704  0.00  0.00     0.142 A 
ATOM      3  C   UNL d   1     -49.016  12.402  22.448  0.00  0.00     0.086 A 
ATOM      4  C   UNL d   1     -49.553  13.696  22.982  0.00  0.00     0.198 A 
ATOM      5  O   UNL d   1     -49.703  12.449  21.265  0.00  0.00    -0.304 OA
ATOM      6  C   UNL d   1     -49.164  12.014  21.732  0.00  0.00     0.105 A 
ATOM      7  C   UNL d   1     -50.383  13.753  21.552  0.00  0.00     0.218 A 
ATOM      8  C   UNL d   1     -50.052  14.335  22.825  0.00  0.00     0.042 A 
ATOM      9  C   UNL d   1     -50.477  14.364  22.093  0.00  0.00     0.044 A 
ATOM     10  O   UNL d   1     -49.138  13.668  23.697  0.00  0.00    -0.286 OA
ATOM     11  O   UNL d   1     -50.798  13.781  20.838  0.00  0.00    -0.284 OA
ATOM     12  C   UNL d   1     -48.825  11.294  21.507  0.00  0.00     0.027 C 
ATOM     13  C   UNL d   1     -50.134  14.931  23.368  0.00  0.00     0.003 A 
ATOM     14  C   UNL d   1     -50.964  14.987  21.938  0.00  0.00     0.003 A 
ATOM     15  C   UNL d   1     -50.639  15.583  23.215  0.00  0.00     0.000 A 
ATOM     16  C   UNL d   1     -51.064  15.612  22.483  0.00  0.00     0.000 A 
ENDROOT
BRANCH   3  17
ATOM     17  C   UNL d   1     -48.509  12.131  23.048  0.00  0.00     0.281 C 
ATOM     18  N   UNL d   1     -47.708  12.269  22.988  0.00  0.00    -0.206 NA
ATOM     19  O   UNL d   1     -48.830  11.733  23.684  0.00  0.00    -0.265 OA
BRANCH  18  20
ATOM     20  C   UNL d   1     -47.411  12.660  22.358  0.00  0.00     0.102 C 
BRANCH  20  21
ATOM     21  C   UNL d   1     -46.596  12.778  22.311  0.00  0.00     0.019 A 
ATOM     22  C   UNL d   1     -46.296  13.468  21.977  0.00  0.00     0.004 A 
ATOM     23  C   UNL d   1     -45.494  13.601  21.922  0.00  0.00     0.024 A 
ATOM     24  C   UNL d   1     -44.969  13.051  22.199  0.00  0.00     0.094 A 
ATOM     25  C   UNL d   1     -45.262  12.345  22.540  0.00  0.00     0.024 A 
ATOM     26  C   UNL d   1     -46.067  12.231  22.586  0.00  0.00     0.004 A 
BRANCH  24  27
ATOM     27  O   UNL d   1     -44.152  13.212  22.130  0.00  0.00    -0.328 OA
ATOM     28  C   UNL d   1     -43.754  12.949  21.483  0.00  0.00     0.181 C 
ENDBRANCH  24  27
ENDBRANCH  20  21
ENDBRANCH  18  20
ENDBRANCH   3  17
TORSDOF 4
ENDMDL
MODEL 3
REMARK VINA RESULT:      -6.1      7.648      9.351
REMARK  4 active torsions:
REMARK  status: ('A' for Active; 'I' for Inactive)
REMARK    1  A    between atoms: C_10  and  C_3 
REMARK       I    between atoms: N_11  and  C_10 
REMARK    2  A    between atoms: C_15  and  N_11 
REMARK    3  A    between atoms: C_17  and  C_15 
REMARK    4  A    between atoms: O_25  and  C_18 
ROOT
ATOM      1  C   UNL d   1     -47.806  12.873  22.608  0.00  0.00     0.071 A 
ATOM      2  C   UNL d   1     -48.173  12.110  22.587  0.00  0.00     0.142 A 
ATOM      3  C   UNL d   1     -47.099  12.811  23.027  0.00  0.00     0.086 A 
ATOM      4  C   UNL d   1     -48.168  13.510  22.243  0.00  0.00     0.198 A 
ATOM      5  O   UNL d   1     -47.691  11.578  22.995  0.00  0.00    -0.304 OA
ATOM      6  C   UNL d   1     -47.034  12.020  23.260  0.00  0.00     0.105 A 
ATOM      7  C   UNL d   1     -48.885  12.019  22.203  0.00  0.00     0.218 A 
ATOM      8  C   UNL d   1     -48.891  13.414  21.854  0.00  0.00     0.042 A 
ATOM      9  C   UNL d   1     -49.257  12.651  21.834  0.00  0.00     0.044 A 
ATOM     10  O   UNL d   1     -47.810  14.255  22.262  0.00  0.00    -0.286 OA
ATOM     11  O   UNL d   1     -49.243  11.274  22.184  0.00  0.00    -0.284 OA
ATOM     12  C   UNL d   1     -46.406  11.706  23.697  0.00  0.00     0.027 C 
ATOM     13  C   UNL d   1     -49.246  14.047  21.494  0.00  0.00     0.003 A 
ATOM     14  C   UNL d   1     -49.962  12.557  21.454  0.00  0.00     0.003 A 
ATOM     15  C   UNL d   1     -49.979  13.958  21.097  0.00  0.00     0.000 A 
ATOM     16  C   UNL d   1     -50.346  13.194  21.077  0.00  0.00     0.000 A 
ENDROOT
BRANCH   3  17
ATOM     17  C   UNL d   1     -46.547  13.410  23.194  0.00  0.00     0.281 C 
ATOM     18  N   UNL d   1     -45.807  13.379  22.854  0.00  0.00    -0.206 NA
ATOM     19  O   UNL d   1     -46.764  14.016  23.696  0.00  0.00    -0.265 OA
BRANCH  18  20
ATOM     20  C   UNL d   1     -45.611  12.779  22.364  0.00  0.00     0.102 C 
BRANCH  20  21
ATOM     21  C   UNL d   1     -44.851  12.756  22.047  0.00  0.00     0.019 A 
ATOM     22  C   UNL d   1     -44.318  12.178  22.291  0.00  0.00     0.004 A 
ATOM     23  C   UNL d   1     -43.563  12.140  21.989  0.00  0.00     0.024 A 
ATOM     24  C   UNL d   1     -43.317  12.677  21.435  0.00  0.00     0.094 A 
ATOM     25  C   UNL d   1     -43.850  13.270  21.179  0.00  0.00     0.024 A 
ATOM     26  C   UNL d   1     -44.601  13.291  21.494  0.00  0.00     0.004 A 
BRANCH  24  27
ATOM     27  O   UNL d   1     -42.537  12.615  21.141  0.00  0.00    -0.328 OA
ATOM     28  C   UNL d   1     -42.107  13.286  21.028  0.00  0.00     0.181 C 
ENDBRANCH  24  27
ENDBRANCH  20  21
ENDBRANCH  18  20
ENDBRANCH   3  17
TORSDOF 4
ENDMDL
MODEL 4
REMARK VINA RESULT:      -5.5      1.425      5.029
REMARK  4 active torsions:
REMARK  status: ('A' for Active; 'I' for Inactive)
REMARK    1  A    between atoms: C_10  and  C_3 
REMARK       I    between atoms: N_11  and  C_10 
REMARK    2  A    between atoms: C_15  and  N_11 
REMARK    3  A    between atoms: C_17  and  C_15 
REMARK    4  A    between atoms: O_25  and  C_18 
ROOT
ATOM      1  C   UNL d   1     -40.069  14.651  21.350  0.00  0.00     0.071 A 
ATOM      2  C   UNL d   1     -40.115  13.938  21.805  0.00  0.00     0.142 A 
ATOM      3  C   UNL d   1     -40.638  14.617  20.754  0.00  0.00     0.086 A 
ATOM      4  C   UNL d   1     -39.519  15.224  21.545  0.00  0.00     0.198 A 
ATOM      5  O   UNL d   1     -40.712  13.465  21.488  0.00  0.00    -0.304 OA
ATOM      6  C   UNL d   1     -41.026  13.892  20.842  0.00  0.00     0.105 A 
ATOM      7  C   UNL d   1     -39.609  13.832  22.433  0.00  0.00     0.218 A 
ATOM      8  C   UNL d   1     -39.007  15.113  22.184  0.00  0.00     0.042 A 
ATOM      9  C   UNL d   1     -39.053  14.400  22.638  0.00  0.00     0.044 A 
ATOM     10  O   UNL d   1     -39.474  15.921  21.102  0.00  0.00    -0.286 OA
ATOM     11  O   UNL d   1     -39.654  13.135  22.877  0.00  0.00    -0.284 OA
ATOM     12  C   UNL d   1     -41.642  13.624  20.359  0.00  0.00     0.027 C 
ATOM     13  C   UNL d   1     -38.463  15.684  22.373  0.00  0.00     0.003 A 
ATOM     14  C   UNL d   1     -38.554  14.291  23.261  0.00  0.00     0.003 A 
ATOM     15  C   UNL d   1     -37.940  15.577  23.020  0.00  0.00     0.000 A 
ATOM     16  C   UNL d   1     -37.986  14.864  23.475  0.00  0.00     0.000 A 
ENDROOT
BRANCH   3  17
ATOM     17  C   UNL d   1     -40.803  15.185  20.170  0.00  0.00     0.281 C 
ATOM     18  N   UNL d   1     -40.520  15.077  19.414  0.00  0.00    -0.206 NA
ATOM     19  O   UNL d   1     -41.248  15.839  20.373  0.00  0.00    -0.265 OA
BRANCH  18  20
ATOM     20  C   UNL d   1     -40.086  14.431  19.232  0.00  0.00     0.102 C 
BRANCH  20  21
ATOM     21  C   UNL d   1     -39.752  14.374  18.481  0.00  0.00     0.019 A 
ATOM     22  C   UNL d   1     -38.936  14.326  18.393  0.00  0.00     0.004 A 
ATOM     23  C   UNL d   1     -38.589  14.269  17.658  0.00  0.00     0.024 A 
ATOM     24  C   UNL d   1     -39.045  14.259  16.990  0.00  0.00     0.094 A 
ATOM     25  C   UNL d   1     -39.878  14.308  17.066  0.00  0.00     0.024 A 
ATOM     26  C   UNL d   1     -40.206  14.364  17.810  0.00  0.00     0.004 A 
BRANCH  24  27
ATOM     27  O   UNL d   1     -38.664  14.201  16.249  0.00  0.00    -0.328 OA
ATOM     28  C   UNL d   1     -38.307  14.851  15.940  0.00  0.00     0.181 C 
ENDBRANCH  24  27
ENDBRANCH  20  21
ENDBRANCH  18  20
ENDBRANCH   3  17
TORSDOF 4
ENDMDL
MODEL 5
REMARK VINA RESULT:      -5.5      8.448      9.975
REMARK  4 active torsions:
REMARK  status: ('A' for Active; 'I' for Inactive)
REMARK    1  A    between atoms: C_10  and  C_3 
REMARK       I    between atoms: N_11  and  C_10 
REMARK    2  A    between atoms: C_15  and  N_11 
REMARK    3  A    between atoms: C_17  and  C_15 
REMARK    4  A    between atoms: O_25  and  C_18 
ROOT
ATOM      1  C   UNL d   1     -48.222  13.733  22.261  0.00  0.00     0.071 A 
ATOM      2  C   UNL d   1     -48.669  14.107  22.876  0.00  0.00     0.142 A 
ATOM      3  C   UNL d   1     -47.430  13.944  22.351  0.00  0.00     0.086 A 
ATOM      4  C   UNL d   1     -48.600  13.257  21.713  0.00  0.00     0.198 A 
ATOM      5  O   UNL d   1     -48.151  14.549  23.343  0.00  0.00    -0.304 OA
ATOM      6  C   UNL d   1     -47.393  14.441  23.011  0.00  0.00     0.105 A 
ATOM      7  C   UNL d   1     -49.473  13.988  22.913  0.00  0.00     0.218 A 
ATOM      8  C   UNL d   1     -49.416  13.139  21.754  0.00  0.00     0.042 A 
ATOM      9  C   UNL d   1     -49.863  13.513  22.369  0.00  0.00     0.044 A 
ATOM     10  O   UNL d   1     -48.164  12.892  21.114  0.00  0.00    -0.286 OA
ATOM     11  O   UNL d   1     -49.909  14.354  23.513  0.00  0.00    -0.284 OA
ATOM     12  C   UNL d   1     -46.701  14.785  23.305  0.00  0.00     0.027 C 
ATOM     13  C   UNL d   1     -49.787  12.667  21.210  0.00  0.00     0.003 A 
ATOM     14  C   UNL d   1     -50.660  13.398  22.410  0.00  0.00     0.003 A 
ATOM     15  C   UNL d   1     -50.616  12.542  21.245  0.00  0.00     0.000 A 
ATOM     16  C   UNL d   1     -51.063  12.916  21.860  0.00  0.00     0.000 A 
ENDROOT
BRANCH   3  17
ATOM     17  C   UNL d   1     -46.782  13.715  21.882  0.00  0.00     0.281 C 
ATOM     18  N   UNL d   1     -46.333  13.073  22.107  0.00  0.00    -0.206 NA
ATOM     19  O   UNL d   1     -46.614  14.142  21.207  0.00  0.00    -0.265 OA
BRANCH  18  20
ATOM     20  C   UNL d   1     -46.511  12.666  22.770  0.00  0.00     0.102 C 
BRANCH  20  21
ATOM     21  C   UNL d   1     -46.040  12.024  22.983  0.00  0.00     0.019 A 
ATOM     22  C   UNL d   1     -46.338  11.436  23.474  0.00  0.00     0.004 A 
ATOM     23  C   UNL d   1     -45.886  10.795  23.694  0.00  0.00     0.024 A 
ATOM     24  C   UNL d   1     -45.124  10.722  23.430  0.00  0.00     0.094 A 
ATOM     25  C   UNL d   1     -44.809  11.314  22.929  0.00  0.00     0.024 A 
ATOM     26  C   UNL d   1     -45.278  11.947  22.721  0.00  0.00     0.004 A 
BRANCH  24  27
ATOM     27  O   UNL d   1     -44.682  10.055  23.671  0.00  0.00    -0.328 OA
ATOM     28  C   UNL d   1     -43.880  10.105  23.698  0.00  0.00     0.181 C 
ENDBRANCH  24  27
ENDBRANCH  20  21
ENDBRANCH  18  20
ENDBRANCH   3  17
TORSDOF 4
ENDMDL
MODEL 6
REMARK VINA RESULT:      -5.4      7.626      9.235
REMARK  4 active torsions:
REMARK  status: ('A' for Active; 'I' for Inactive)
REMARK    1  A    between atoms: C_10  and  C_3 
REMARK       I    between atoms: N_11  and  C_10 
REMARK    2  A    between atoms: C_15  and  N_11 
REMARK    3  A    between atoms: C_17  and  C_15 
REMARK    4  A    between atoms: O_25  and  C_18 
ROOT
ATOM      1  C   UNL d   1     -47.822  13.258  22.627  0.00  0.00     0.071 A 
ATOM      2  C   UNL d   1     -48.042  14.076  22.614  0.00  0.00     0.142 A 
ATOM      3  C   UNL d   1     -47.108  13.188  23.034  0.00  0.00     0.086 A 
ATOM      4  C   UNL d   1     -48.301  12.701  22.268  0.00  0.00     0.198 A 
ATOM      5  O   UNL d   1     -47.464  14.508  23.013  0.00  0.00    -0.304 OA
ATOM      6  C   UNL d   1     -46.895  13.952  23.267  0.00  0.00     0.105 A 
ATOM      7  C   UNL d   1     -48.731  14.297  22.242  0.00  0.00     0.218 A 
ATOM      8  C   UNL d   1     -49.000  12.929  21.892  0.00  0.00     0.042 A 
ATOM      9  C   UNL d   1     -49.220  13.747  21.879  0.00  0.00     0.044 A 
ATOM     10  O   UNL d   1     -48.086  11.902  22.281  0.00  0.00    -0.286 OA
ATOM     11  O   UNL d   1     -48.946  15.096  22.230  0.00  0.00    -0.284 OA
ATOM     12  C   UNL d   1     -46.212  14.143  23.693  0.00  0.00     0.027 C 
ATOM     13  C   UNL d   1     -49.471  12.373  21.537  0.00  0.00     0.003 A 
ATOM     14  C   UNL d   1     -49.901  13.970  21.512  0.00  0.00     0.003 A 
ATOM     15  C   UNL d   1     -50.182  12.598  21.153  0.00  0.00     0.000 A 
ATOM     16  C   UNL d   1     -50.403  13.416  21.140  0.00  0.00     0.000 A 
ENDROOT
BRANCH   3  17
ATOM     17  C   UNL d   1     -46.673  12.496  23.191  0.00  0.00     0.281 C 
ATOM     18  N   UNL d   1     -45.947  12.391  22.836  0.00  0.00    -0.206 NA
ATOM     19  O   UNL d   1     -46.988  11.940  23.698  0.00  0.00    -0.265 OA
BRANCH  18  20
ATOM     20  C   UNL d   1     -45.653  12.946  22.341  0.00  0.00     0.102 C 
BRANCH  20  21
ATOM     21  C   UNL d   1     -44.894  12.847  22.038  0.00  0.00     0.019 A 
ATOM     22  C   UNL d   1     -44.596  13.377  21.484  0.00  0.00     0.004 A 
ATOM     23  C   UNL d   1     -43.848  13.294  21.174  0.00  0.00     0.024 A 
ATOM     24  C   UNL d   1     -43.374  12.681  21.407  0.00  0.00     0.094 A 
ATOM     25  C   UNL d   1     -43.665  12.135  21.971  0.00  0.00     0.024 A 
ATOM     26  C   UNL d   1     -44.416  12.235  22.269  0.00  0.00     0.004 A 
BRANCH  24  27
ATOM     27  O   UNL d   1     -42.610  12.619  21.074  0.00  0.00    -0.328 OA
ATOM     28  C   UNL d   1     -42.018  13.079  21.364  0.00  0.00     0.181 C 
ENDBRANCH  24  27
ENDBRANCH  20  21
ENDBRANCH  18  20
ENDBRANCH   3  17
TORSDOF 4
ENDMDL
MODEL 7
REMARK VINA RESULT:      -4.7      2.443      3.568
REMARK  4 active torsions:
REMARK  status: ('A' for Active; 'I' for Inactive)
REMARK    1  A    between atoms: C_10  and  C_3 
REMARK       I    between atoms: N_11  and  C_10 
REMARK    2  A    between atoms: C_15  and  N_11 
REMARK    3  A    between atoms: C_17  and  C_15 
REMARK    4  A    between atoms: O_25  and  C_18 
ROOT
ATOM      1  C   UNL d   1     -40.025  14.871  19.475  0.00  0.00     0.071 A 
ATOM      2  C   UNL d   1     -39.409  14.373  19.177  0.00  0.00     0.142 A 
ATOM      3  C   UNL d   1     -40.055  14.785  20.295  0.00  0.00     0.086 A 
ATOM      4  C   UNL d   1     -40.466  15.328  18.959  0.00  0.00     0.198 A 
ATOM      5  O   UNL d   1     -39.060  13.980  19.814  0.00  0.00    -0.304 OA
ATOM      6  C   UNL d   1     -39.465  14.241  20.495  0.00  0.00     0.105 A 
ATOM      7  C   UNL d   1     -39.262  14.354  18.377  0.00  0.00     0.218 A 
ATOM      8  C   UNL d   1     -40.315  15.307  18.148  0.00  0.00     0.042 A 
ATOM      9  C   UNL d   1     -39.698  14.808  17.850  0.00  0.00     0.044 A 
ATOM     10  O   UNL d   1     -41.067  15.815  19.251  0.00  0.00    -0.286 OA
ATOM     11  O   UNL d   1     -38.661  13.867  18.086  0.00  0.00    -0.284 OA
ATOM     12  C   UNL d   1     -39.297  13.989  21.265  0.00  0.00     0.027 C 
ATOM     13  C   UNL d   1     -40.754  15.761  17.640  0.00  0.00     0.003 A 
ATOM     14  C   UNL d   1     -39.550  14.787  17.058  0.00  0.00     0.003 A 
ATOM     15  C   UNL d   1     -40.606  15.745  16.815  0.00  0.00     0.000 A 
ATOM     16  C   UNL d   1     -39.989  15.246  16.516  0.00  0.00     0.000 A 
ENDROOT
BRANCH   3  17
ATOM     17  C   UNL d   1     -40.568  15.161  20.832  0.00  0.00     0.281 C 
ATOM     18  N   UNL d   1     -41.226  14.764  21.101  0.00  0.00    -0.206 NA
ATOM     19  O   UNL d   1     -40.396  15.921  21.074  0.00  0.00    -0.265 OA
BRANCH  18  20
ATOM     20  C   UNL d   1     -41.380  14.020  20.854  0.00  0.00     0.102 C 
BRANCH  20  21
ATOM     21  C   UNL d   1     -42.077  13.655  21.098  0.00  0.00     0.019 A 
ATOM     22  C   UNL d   1     -42.074  12.866  21.328  0.00  0.00     0.004 A 
ATOM     23  C   UNL d   1     -42.755  12.490  21.571  0.00  0.00     0.024 A 
ATOM     24  C   UNL d   1     -43.458  12.890  21.592  0.00  0.00     0.094 A 
ATOM     25  C   UNL d   1     -43.474  13.695  21.360  0.00  0.00     0.024 A 
ATOM     26  C   UNL d   1     -42.783  14.052  21.120  0.00  0.00     0.004 A 
BRANCH  24  27
ATOM     27  O   UNL d   1     -44.141  12.482  21.846  0.00  0.00    -0.328 OA
ATOM     28  C   UNL d   1     -44.847  12.866  21.855  0.00  0.00     0.181 C 
ENDBRANCH  24  27
ENDBRANCH  20  21
ENDBRANCH  18  20
ENDBRANCH   3  17
TORSDOF 4
ENDMDL
MODEL 8
REMARK VINA RESULT:      -4.4      1.409      4.865
REMARK  4 active torsions:
REMARK  status: ('A' for Active; 'I' for Inactive)
REMARK    1  A    between atoms: C_10  and  C_3 
REMARK       I    between atoms: N_11  and  C_10 
REMARK    2  A    between atoms: C_15  and  N_11 
REMARK    3  A    between atoms: C_17  and  C_15 
REMARK    4  A    between atoms: O_25  and  C_18 
ROOT
ATOM      1  C   UNL d   1     -39.287  14.773  20.348  0.00  0.00     0.071 A 
ATOM      2  C   UNL d   1     -40.119  14.725  20.498  0.00  0.00     0.142 A 
ATOM      3  C   UNL d   1     -39.173  15.203  19.652  0.00  0.00     0.086 A 
ATOM      4  C   UNL d   1     -38.758  14.421  20.863  0.00  0.00     0.198 A 
ATOM      5  O   UNL d   1     -40.517  15.125  19.895  0.00  0.00    -0.304 OA
ATOM      6  C   UNL d   1     -39.925  15.414  19.381  0.00  0.00     0.105 A 
ATOM      7  C   UNL d   1     -40.383  14.327  21.156  0.00  0.00     0.218 A 
ATOM      8  C   UNL d   1     -39.030  14.018  21.531  0.00  0.00     0.042 A 
ATOM      9  C   UNL d   1     -39.862  13.970  21.681  0.00  0.00     0.044 A 
ATOM     10  O   UNL d   1     -37.946  14.468  20.716  0.00  0.00    -0.286 OA
ATOM     11  O   UNL d   1     -41.196  14.280  21.303  0.00  0.00    -0.284 OA
ATOM     12  C   UNL d   1     -40.074  15.852  18.696  0.00  0.00     0.027 C 
ATOM     13  C   UNL d   1     -38.503  13.671  22.039  0.00  0.00     0.003 A 
ATOM     14  C   UNL d   1     -40.128  13.577  22.332  0.00  0.00     0.003 A 
ATOM     15  C   UNL d   1     -38.771  13.259  22.719  0.00  0.00     0.000 A 
ATOM     16  C   UNL d   1     -39.603  13.211  22.869  0.00  0.00     0.000 A 
ENDROOT
BRANCH   3  17
ATOM     17  C   UNL d   1     -38.454  15.396  19.281  0.00  0.00     0.281 C 
ATOM     18  N   UNL d   1     -38.281  15.075  18.552  0.00  0.00    -0.206 NA
ATOM     19  O   UNL d   1     -37.940  15.903  19.661  0.00  0.00    -0.265 OA
BRANCH  18  20
ATOM     20  C   UNL d   1     -38.796  14.580  18.195  0.00  0.00     0.102 C 
BRANCH  20  21
ATOM     21  C   UNL d   1     -38.588  14.243  17.472  0.00  0.00     0.019 A 
ATOM     22  C   UNL d   1     -38.302  14.716  16.862  0.00  0.00     0.004 A 
ATOM     23  C   UNL d   1     -38.092  14.400  16.141  0.00  0.00     0.024 A 
ATOM     24  C   UNL d   1     -38.162  13.605  16.007  0.00  0.00     0.094 A 
ATOM     25  C   UNL d   1     -38.452  13.113  16.620  0.00  0.00     0.024 A 
ATOM     26  C   UNL d   1     -38.656  13.448  17.334  0.00  0.00     0.004 A 
BRANCH  24  27
ATOM     27  O   UNL d   1     -37.940  13.307  15.259  0.00  0.00    -0.328 OA
ATOM     28  C   UNL d   1     -38.277  13.617  14.598  0.00  0.00     0.181 C 
ENDBRANCH  24  27
ENDBRANCH  20  21
ENDBRANCH  18  20
ENDBRANCH   3  17
TORSDOF 4
ENDMDL
