MODEL 1
REMARK VINA RESULT:      -9.5      0.000      0.000
REMARK  5 active torsions:
REMARK  status: ('A' for Active; 'I' for Inactive)
REMARK    1  A    between atoms: N_9  and  C_3 
REMARK    2  A    between atoms: C_13  and  C_5 
REMARK    3  A    between atoms: C_12  and  N_10 
REMARK    4  A    between atoms: C_20  and  C_11 
REMARK    5  A    between atoms: C_25  and  C_20 
ROOT
ATOM      1  N   UNL d   1      52.123  34.112  53.426  0.00  0.00    -0.196 N 
ATOM      2  C   UNL d   1      52.834  33.820  53.726  0.00  0.00     0.167 A 
ATOM      3  C   UNL d   1      51.692  33.639  52.936  0.00  0.00     0.152 A 
ATOM      4  N   UNL d   1      52.325  35.314  54.117  0.00  0.00    -0.163 NA
ATOM      5  C   UNL d   1      53.278  34.273  54.212  0.00  0.00     0.055 A 
ATOM      6  C   UNL d   1      53.036  35.022  54.417  0.00  0.00     0.104 A 
ATOM      7  N   UNL d   1      53.077  33.071  53.521  0.00  0.00    -0.227 NA
ATOM      8  C   UNL d   1      51.921  32.903  52.731  0.00  0.00     0.057 A 
ATOM      9  C   UNL d   1      52.632  32.611  53.031  0.00  0.00     0.086 A 
ATOM     10  C   UNL d   1      53.476  35.483  54.906  0.00  0.00     0.023 C 
ENDROOT
BRANCH   3  11
ATOM     11  N   UNL d   1      50.958  33.940  52.627  0.00  0.00    -0.286 N 
ATOM     12  C   UNL d   1      50.285  34.013  53.125  0.00  0.00     0.101 A 
ATOM     13  C   UNL d   1      49.551  34.313  52.815  0.00  0.00     0.101 A 
ATOM     14  N   UNL d   1      49.492  34.541  52.008  0.00  0.00    -0.286 N 
ATOM     15  C   UNL d   1      50.173  34.470  51.494  0.00  0.00     0.101 A 
ATOM     16  C   UNL d   1      50.907  34.169  51.804  0.00  0.00     0.101 A 
BRANCH  14  17
ATOM     17  C   UNL d   1      48.763  34.840  51.699  0.00  0.00     0.148 A 
ATOM     18  N   UNL d   1      48.441  34.502  50.986  0.00  0.00    -0.227 NA
ATOM     19  C   UNL d   1      47.712  34.801  50.678  0.00  0.00     0.101 A 
ATOM     20  C   UNL d   1      47.308  35.437  51.085  0.00  0.00     0.021 A 
ATOM     21  C   UNL d   1      47.634  35.762  51.786  0.00  0.00     0.005 A 
ATOM     22  C   UNL d   1      48.366  35.462  52.096  0.00  0.00     0.037 A 
ENDBRANCH  14  17
ENDBRANCH   3  11
BRANCH   9  23
ATOM     23  C   UNL d   1      52.889  31.832  52.822  0.00  0.00     0.019 C 
BRANCH  23  24
ATOM     24  C   UNL d   1      52.588  31.148  53.235  0.00  0.00     0.002 C 
ATOM     25  C   UNL d   1      52.966  30.403  53.155  0.00  0.00     0.000 C 
ENDBRANCH  23  24
ENDBRANCH   9  23
BRANCH   5  26
ATOM     26  C   UNL d   1      53.977  33.986  54.508  0.00  0.00     0.004 A 
ATOM     27  C   UNL d   1      54.659  34.063  54.069  0.00  0.00     0.000 A 
ATOM     28  C   UNL d   1      55.370  33.772  54.369  0.00  0.00     0.000 A 
ATOM     29  C   UNL d   1      55.377  33.412  55.099  0.00  0.00     0.000 A 
ATOM     30  C   UNL d   1      54.687  33.340  55.530  0.00  0.00     0.000 A 
ATOM     31  C   UNL d   1      53.987  33.627  55.235  0.00  0.00     0.000 A 
ENDBRANCH   5  26
TORSDOF 5
ENDMDL
MODEL 2
REMARK VINA RESULT:      -7.0      1.015      2.348
REMARK  5 active torsions:
REMARK  status: ('A' for Active; 'I' for Inactive)
REMARK    1  A    between atoms: N_9  and  C_3 
REMARK    2  A    between atoms: C_13  and  C_5 
REMARK    3  A    between atoms: C_12  and  N_10 
REMARK    4  A    between atoms: C_20  and  C_11 
REMARK    5  A    between atoms: C_25  and  C_20 
ROOT
ATOM      1  N   UNL d   1      51.560  33.552  52.943  0.00  0.00    -0.196 N 
ATOM      2  C   UNL d   1      52.310  33.384  53.244  0.00  0.00     0.167 A 
ATOM      3  C   UNL d   1      51.320  34.320  52.921  0.00  0.00     0.152 A 
ATOM      4  N   UNL d   1      51.349  32.187  52.709  0.00  0.00    -0.163 NA
ATOM      5  C   UNL d   1      52.568  32.629  53.275  0.00  0.00     0.055 A 
ATOM      6  C   UNL d   1      52.099  32.019  53.010  0.00  0.00     0.104 A 
ATOM      7  N   UNL d   1      52.779  33.994  53.508  0.00  0.00    -0.227 NA
ATOM      8  C   UNL d   1      51.773  34.925  53.178  0.00  0.00     0.057 A 
ATOM      9  C   UNL d   1      52.522  34.757  53.479  0.00  0.00     0.086 A 
ATOM     10  C   UNL d   1      52.352  31.257  53.038  0.00  0.00     0.023 C 
ENDROOT
BRANCH   3  11
ATOM     11  N   UNL d   1      50.547  34.493  52.610  0.00  0.00    -0.286 N 
ATOM     12  C   UNL d   1      50.397  34.432  51.784  0.00  0.00     0.101 A 
ATOM     13  C   UNL d   1      49.624  34.605  51.473  0.00  0.00     0.101 A 
ATOM     14  N   UNL d   1      49.002  34.839  51.988  0.00  0.00    -0.286 N 
ATOM     15  C   UNL d   1      49.145  34.904  52.829  0.00  0.00     0.101 A 
ATOM     16  C   UNL d   1      49.918  34.731  53.140  0.00  0.00     0.101 A 
BRANCH  14  17
ATOM     17  C   UNL d   1      48.232  35.011  51.678  0.00  0.00     0.148 A 
ATOM     18  N   UNL d   1      47.961  34.600  50.983  0.00  0.00    -0.227 NA
ATOM     19  C   UNL d   1      47.192  34.772  50.674  0.00  0.00     0.101 A 
ATOM     20  C   UNL d   1      46.699  35.354  51.061  0.00  0.00     0.021 A 
ATOM     21  C   UNL d   1      46.977  35.754  51.745  0.00  0.00     0.005 A 
ATOM     22  C   UNL d   1      47.749  35.581  52.056  0.00  0.00     0.037 A 
ENDBRANCH  14  17
ENDBRANCH   3  11
BRANCH   9  23
ATOM     23  C   UNL d   1      53.016  35.388  53.756  0.00  0.00     0.019 C 
BRANCH  23  24
ATOM     24  C   UNL d   1      52.895  35.727  54.530  0.00  0.00     0.002 C 
ATOM     25  C   UNL d   1      53.330  36.404  54.769  0.00  0.00     0.000 C 
ENDBRANCH  23  24
ENDBRANCH   9  23
BRANCH   5  26
ATOM     26  C   UNL d   1      53.305  32.464  53.571  0.00  0.00     0.004 A 
ATOM     27  C   UNL d   1      53.950  32.483  53.075  0.00  0.00     0.000 A 
ATOM     28  C   UNL d   1      54.699  32.315  53.376  0.00  0.00     0.000 A 
ATOM     29  C   UNL d   1      54.781  32.134  54.165  0.00  0.00     0.000 A 
ATOM     30  C   UNL d   1      54.127  32.118  54.654  0.00  0.00     0.000 A 
ATOM     31  C   UNL d   1      53.389  32.283  54.357  0.00  0.00     0.000 A 
ENDBRANCH   5  26
TORSDOF 5
ENDMDL
