MODEL 1
REMARK VINA RESULT:      71.9      0.000      0.000
REMARK  6 active torsions:
REMARK  status: ('A' for Active; 'I' for Inactive)
REMARK    1  A    between atoms: N_6  and  S_1 
REMARK    2  A    between atoms: C_7  and  S_1 
REMARK       I    between atoms: C_2  and  N_4 
REMARK    3  A    between atoms: C_8  and  C_2 
REMARK    4  A    between atoms: C_3  and  C_12 
REMARK       I    between atoms: N_5  and  C_3 
REMARK    5  A    between atoms: C_23  and  N_6 
REMARK    6  A    between atoms: O_29  and  C_26 
ROOT
ATOM      1  C   UNL d   1      13.791  14.647  -4.482  0.00  0.00     0.057 A 
ATOM      2  C   UNL d   1      14.589  16.026  -4.901  0.00  0.00     0.094 A 
ATOM      3  C   UNL d   1      13.915  14.833  -5.279  0.00  0.00     0.006 A 
ATOM      4  C   UNL d   1      14.067  15.153  -3.895  0.00  0.00     0.006 A 
ATOM      5  C   UNL d   1      14.317  15.529  -5.484  0.00  0.00     0.020 A 
ATOM      6  C   UNL d   1      14.467  15.844  -4.105  0.00  0.00     0.020 A 
ENDROOT
BRANCH   1   7
ATOM      7  C   UNL d   1      13.387  13.949  -4.272  0.00  0.00     0.265 C 
ATOM      8  N   UNL d   1      13.542  13.572  -3.549  0.00  0.00    -0.269 N 
ATOM      9  C   UNL d   1      13.141  12.881  -3.343  0.00  0.00     0.102 A 
ATOM     10  C   UNL d   1      14.101  13.892  -3.032  0.00  0.00     0.102 A 
ATOM     11  C   UNL d   1      13.299  12.512  -2.623  0.00  0.00     0.102 A 
ATOM     12  N   UNL d   1      13.860  12.840  -2.116  0.00  0.00    -0.267 N 
ATOM     13  C   UNL d   1      14.021  12.474  -1.397  0.00  0.00     0.288 C 
ATOM     14  C   UNL d   1      14.259  13.525  -2.317  0.00  0.00     0.102 A 
ATOM     15  O   UNL d   1      13.618  11.779  -1.190  0.00  0.00    -0.264 OA
ATOM     16  O   UNL d   1      12.825  13.629  -4.792  0.00  0.00    -0.267 OA
BRANCH  13  17
ATOM     17  C   UNL d   1      14.574  12.792  -0.887  0.00  0.00     0.156 A 
ATOM     18  O   UNL d   1      14.535  13.534  -0.515  0.00  0.00    -0.300 OA
ATOM     19  C   UNL d   1      15.208  13.620  -0.054  0.00  0.00     0.123 A 
ATOM     20  C   UNL d   1      15.672  12.942  -0.131  0.00  0.00     0.029 A 
ATOM     21  C   UNL d   1      15.280  12.430  -0.645  0.00  0.00     0.032 A 
ENDBRANCH  13  17
ENDBRANCH   1   7
BRANCH   2  22
ATOM     22  N   UNL d   1      14.989  16.718  -5.108  0.00  0.00    -0.158 NA
BRANCH  22  23
ATOM     23  S   UNL d   1      14.570  17.360  -5.388  0.00  0.00     0.285 S 
ATOM     24  O   UNL d   1      14.945  17.288  -6.120  0.00  0.00    -0.198 OA
ATOM     25  O   UNL d   1      14.191  17.439  -4.661  0.00  0.00    -0.198 OA
BRANCH  23  26
ATOM     26  C   UNL d   1      14.146  18.009  -5.674  0.00  0.00     0.107 A 
ATOM     27  C   UNL d   1      14.418  18.775  -5.530  0.00  0.00     0.037 A 
ATOM     28  C   UNL d   1      13.995  19.424  -5.816  0.00  0.00     0.095 A 
ATOM     29  C   UNL d   1      13.301  19.304  -6.245  0.00  0.00     0.024 A 
ATOM     30  C   UNL d   1      13.031  18.545  -6.388  0.00  0.00     0.003 A 
ATOM     31  C   UNL d   1      13.451  17.894  -6.104  0.00  0.00     0.013 A 
BRANCH  28  32
ATOM     32  O   UNL d   1      14.264  20.201  -5.674  0.00  0.00    -0.328 OA
ATOM     33  C   UNL d   1      14.786  20.565  -6.202  0.00  0.00     0.181 C 
ENDBRANCH  28  32
ENDBRANCH  23  26
ENDBRANCH  22  23
ENDBRANCH   2  22
TORSDOF 6
ENDMDL
MODEL 2
REMARK VINA RESULT:      72.9      1.459      6.416
REMARK  6 active torsions:
REMARK  status: ('A' for Active; 'I' for Inactive)
REMARK    1  A    between atoms: N_6  and  S_1 
REMARK    2  A    between atoms: C_7  and  S_1 
REMARK       I    between atoms: C_2  and  N_4 
REMARK    3  A    between atoms: C_8  and  C_2 
REMARK    4  A    between atoms: C_3  and  C_12 
REMARK       I    between atoms: N_5  and  C_3 
REMARK    5  A    between atoms: C_23  and  N_6 
REMARK    6  A    between atoms: O_29  and  C_26 
ROOT
ATOM      1  C   UNL d   1      14.769  16.265  -4.909  0.00  0.00     0.057 A 
ATOM      2  C   UNL d   1      13.518  15.199  -4.792  0.00  0.00     0.094 A 
ATOM      3  C   UNL d   1      14.512  15.846  -5.575  0.00  0.00     0.006 A 
ATOM      4  C   UNL d   1      14.398  16.149  -4.184  0.00  0.00     0.006 A 
ATOM      5  C   UNL d   1      13.881  15.311  -5.510  0.00  0.00     0.020 A 
ATOM      6  C   UNL d   1      13.771  15.615  -4.125  0.00  0.00     0.020 A 
ENDROOT
BRANCH   1   7
ATOM      7  C   UNL d   1      15.402  16.804  -4.970  0.00  0.00     0.265 C 
ATOM      8  N   UNL d   1      15.259  17.607  -5.124  0.00  0.00    -0.269 N 
ATOM      9  C   UNL d   1      15.887  18.139  -5.185  0.00  0.00     0.102 A 
ATOM     10  C   UNL d   1      14.484  17.875  -5.216  0.00  0.00     0.102 A 
ATOM     11  C   UNL d   1      15.739  18.935  -5.338  0.00  0.00     0.102 A 
ATOM     12  N   UNL d   1      14.960  19.191  -5.428  0.00  0.00    -0.267 N 
ATOM     13  C   UNL d   1      14.809  19.985  -5.580  0.00  0.00     0.288 C 
ATOM     14  C   UNL d   1      14.336  18.666  -5.368  0.00  0.00     0.102 A 
ATOM     15  O   UNL d   1      15.440  20.519  -5.642  0.00  0.00    -0.264 OA
ATOM     16  O   UNL d   1      16.181  16.533  -4.878  0.00  0.00    -0.267 OA
BRANCH  13  17
ATOM     17  C   UNL d   1      14.041  20.248  -5.671  0.00  0.00     0.156 A 
ATOM     18  O   UNL d   1      13.677  20.471  -6.384  0.00  0.00    -0.300 OA
ATOM     19  C   UNL d   1      12.907  20.697  -6.213  0.00  0.00     0.123 A 
ATOM     20  C   UNL d   1      12.781  20.620  -5.401  0.00  0.00     0.029 A 
ATOM     21  C   UNL d   1      13.481  20.343  -5.067  0.00  0.00     0.032 A 
ENDBRANCH  13  17
ENDBRANCH   1   7
BRANCH   2  22
ATOM     22  N   UNL d   1      12.891  14.666  -4.729  0.00  0.00    -0.158 NA
BRANCH  22  23
ATOM     23  S   UNL d   1      13.005  13.949  -4.354  0.00  0.00     0.285 S 
ATOM     24  O   UNL d   1      12.772  14.285  -3.637  0.00  0.00    -0.198 OA
ATOM     25  O   UNL d   1      13.238  13.607  -5.066  0.00  0.00    -0.198 OA
BRANCH  23  26
ATOM     26  C   UNL d   1      13.120  13.225  -3.973  0.00  0.00     0.107 A 
ATOM     27  C   UNL d   1      13.433  13.206  -3.210  0.00  0.00     0.037 A 
ATOM     28  C   UNL d   1      13.548  12.482  -2.829  0.00  0.00     0.095 A 
ATOM     29  C   UNL d   1      13.348  11.780  -3.214  0.00  0.00     0.024 A 
ATOM     30  C   UNL d   1      13.037  11.799  -3.971  0.00  0.00     0.003 A 
ATOM     31  C   UNL d   1      12.921  12.520  -4.354  0.00  0.00     0.013 A 
BRANCH  28  32
ATOM     32  O   UNL d   1      13.864  12.455  -2.058  0.00  0.00    -0.328 OA
ATOM     33  C   UNL d   1      14.619  12.757  -1.906  0.00  0.00     0.181 C 
ENDBRANCH  28  32
ENDBRANCH  23  26
ENDBRANCH  22  23
ENDBRANCH   2  22
TORSDOF 6
ENDMDL
