MODEL 1
REMARK VINA RESULT:      -7.0      0.000      0.000
REMARK  5 active torsions:
REMARK  status: ('A' for Active; 'I' for Inactive)
REMARK    1  A    between atoms: C_10  and  N_1 
REMARK    2  A    between atoms: S_7  and  C_4 
REMARK    3  A    between atoms: C_9  and  C_6 
REMARK    4  A    between atoms: C_8  and  S_7 
REMARK    5  A    between atoms: N_14  and  C_13 
ROOT
ATOM      1  N   UNL d   1     -46.752  13.322  22.563  0.00  0.00    -0.241 N 
ATOM      2  C   UNL d   1     -46.896  13.827  23.168  0.00  0.00     0.268 A 
ATOM      3  C   UNL d   1     -47.436  13.168  22.142  0.00  0.00     0.273 A 
ATOM      4  C   UNL d   1     -48.037  13.602  22.506  0.00  0.00     0.091 A 
ATOM      5  C   UNL d   1     -47.700  14.012  23.145  0.00  0.00     0.072 A 
ATOM      6  O   UNL d   1     -46.327  14.095  23.697  0.00  0.00    -0.267 OA
ATOM      7  O   UNL d   1     -47.501  12.665  21.472  0.00  0.00    -0.266 OA
ENDROOT
BRANCH   4   8
ATOM      8  S   UNL d   1     -48.792  13.559  22.205  0.00  0.00    -0.082 SA
BRANCH   8   9
ATOM      9  C   UNL d   1     -49.380  14.120  22.422  0.00  0.00     0.035 A 
ATOM     10  C   UNL d   1     -50.196  13.906  22.436  0.00  0.00     0.070 A 
ATOM     11  C   UNL d   1     -50.737  14.486  22.654  0.00  0.00     0.007 A 
ATOM     12  C   UNL d   1     -50.477  15.255  22.853  0.00  0.00     0.000 A 
ATOM     13  C   UNL d   1     -49.659  15.449  22.833  0.00  0.00     0.001 A 
ATOM     14  C   UNL d   1     -49.117  14.878  22.618  0.00  0.00     0.007 A 
BRANCH  10  15
ATOM     15  C   UNL d   1     -50.438  13.164  22.243  0.00  0.00     0.211 C 
ATOM     16  O   UNL d   1     -50.591  12.977  21.460  0.00  0.00    -0.644 OA
ATOM     17  O   UNL d   1     -50.542  12.569  22.797  0.00  0.00    -0.644 OA
ENDBRANCH  10  15
ENDBRANCH   8   9
ENDBRANCH   4   8
BRANCH   1  18
ATOM     18  C   UNL d   1     -45.957  13.021  22.433  0.00  0.00     0.070 A 
ATOM     19  C   UNL d   1     -45.713  12.343  22.802  0.00  0.00     0.019 A 
ATOM     20  C   UNL d   1     -44.941  12.065  22.666  0.00  0.00     0.019 A 
ATOM     21  C   UNL d   1     -44.438  12.480  22.163  0.00  0.00     0.064 A 
ATOM     22  C   UNL d   1     -44.691  13.172  21.789  0.00  0.00     0.019 A 
ATOM     23  C   UNL d   1     -45.453  13.448  21.921  0.00  0.00     0.019 A 
BRANCH  21  24
ATOM     24  N   UNL d   1     -43.681  12.208  22.030  0.00  0.00    -0.301 N 
ATOM     25  C   UNL d   1     -43.216  12.571  21.451  0.00  0.00     0.100 C 
ATOM     26  C   UNL d   1     -43.396  11.583  22.470  0.00  0.00     0.100 C 
ENDBRANCH  21  24
ENDBRANCH   1  18
TORSDOF 5
ENDMDL
MODEL 2
REMARK VINA RESULT:      -5.4      8.512     10.045
REMARK  5 active torsions:
REMARK  status: ('A' for Active; 'I' for Inactive)
REMARK    1  A    between atoms: C_10  and  N_1 
REMARK    2  A    between atoms: S_7  and  C_4 
REMARK    3  A    between atoms: C_9  and  C_6 
REMARK    4  A    between atoms: C_8  and  S_7 
REMARK    5  A    between atoms: N_14  and  C_13 
ROOT
ATOM      1  N   UNL d   1     -39.205  14.678  19.843  0.00  0.00    -0.241 N 
ATOM      2  C   UNL d   1     -39.869  14.328  19.564  0.00  0.00     0.268 A 
ATOM      3  C   UNL d   1     -38.745  14.963  19.231  0.00  0.00     0.273 A 
ATOM      4  C   UNL d   1     -39.146  14.778  18.532  0.00  0.00     0.091 A 
ATOM      5  C   UNL d   1     -39.846  14.383  18.742  0.00  0.00     0.072 A 
ATOM      6  O   UNL d   1     -40.449  13.985  20.036  0.00  0.00    -0.267 OA
ATOM      7  O   UNL d   1     -38.010  15.363  19.309  0.00  0.00    -0.266 OA
ENDROOT
BRANCH   4   8
ATOM      8  S   UNL d   1     -38.817  14.995  17.820  0.00  0.00    -0.082 SA
BRANCH   8   9
ATOM      9  C   UNL d   1     -38.585  14.418  17.254  0.00  0.00     0.035 A 
ATOM     10  C   UNL d   1     -38.463  14.630  16.447  0.00  0.00     0.070 A 
ATOM     11  C   UNL d   1     -38.236  14.034  15.927  0.00  0.00     0.007 A 
ATOM     12  C   UNL d   1     -38.133  13.251  16.200  0.00  0.00     0.000 A 
ATOM     13  C   UNL d   1     -38.259  13.059  17.009  0.00  0.00     0.001 A 
ATOM     14  C   UNL d   1     -38.484  13.645  17.529  0.00  0.00     0.007 A 
BRANCH  10  15
ATOM     15  C   UNL d   1     -38.564  15.386  16.193  0.00  0.00     0.211 C 
ATOM     16  O   UNL d   1     -39.318  15.662  16.031  0.00  0.00    -0.644 OA
ATOM     17  O   UNL d   1     -37.942  15.909  16.083  0.00  0.00    -0.644 OA
ENDBRANCH  10  15
ENDBRANCH   8   9
ENDBRANCH   4   8
BRANCH   1  18
ATOM     18  C   UNL d   1     -39.061  14.714  20.690  0.00  0.00     0.070 A 
ATOM     19  C   UNL d   1     -38.636  14.130  21.056  0.00  0.00     0.019 A 
ATOM     20  C   UNL d   1     -38.505  14.179  21.876  0.00  0.00     0.019 A 
ATOM     21  C   UNL d   1     -38.807  14.815  22.303  0.00  0.00     0.064 A 
ATOM     22  C   UNL d   1     -39.241  15.409  21.925  0.00  0.00     0.019 A 
ATOM     23  C   UNL d   1     -39.372  15.363  21.116  0.00  0.00     0.019 A 
BRANCH  21  24
ATOM     24  N   UNL d   1     -38.680  14.863  23.107  0.00  0.00    -0.301 N 
ATOM     25  C   UNL d   1     -38.643  15.606  23.467  0.00  0.00     0.100 C 
ATOM     26  C   UNL d   1     -38.591  14.178  23.541  0.00  0.00     0.100 C 
ENDBRANCH  21  24
ENDBRANCH   1  18
TORSDOF 5
ENDMDL
MODEL 3
REMARK VINA RESULT:      -5.1      1.591      5.077
REMARK  5 active torsions:
REMARK  status: ('A' for Active; 'I' for Inactive)
REMARK    1  A    between atoms: C_10  and  N_1 
REMARK    2  A    between atoms: S_7  and  C_4 
REMARK    3  A    between atoms: C_9  and  C_6 
REMARK    4  A    between atoms: C_8  and  S_7 
REMARK    5  A    between atoms: N_14  and  C_13 
ROOT
ATOM      1  N   UNL d   1     -47.401  13.693  22.706  0.00  0.00    -0.241 N 
ATOM      2  C   UNL d   1     -46.836  14.259  22.766  0.00  0.00     0.268 A 
ATOM      3  C   UNL d   1     -47.068  12.947  22.704  0.00  0.00     0.273 A 
ATOM      4  C   UNL d   1     -46.251  13.055  22.766  0.00  0.00     0.091 A 
ATOM      5  C   UNL d   1     -46.108  13.873  22.804  0.00  0.00     0.072 A 
ATOM      6  O   UNL d   1     -46.985  15.067  22.783  0.00  0.00    -0.267 OA
ATOM      7  O   UNL d   1     -47.486  12.219  22.649  0.00  0.00    -0.266 OA
ENDROOT
BRANCH   4   8
ATOM      8  S   UNL d   1     -45.767  12.401  22.778  0.00  0.00    -0.082 SA
BRANCH   8   9
ATOM      9  C   UNL d   1     -45.011  12.412  22.408  0.00  0.00     0.035 A 
ATOM     10  C   UNL d   1     -44.424  11.841  22.610  0.00  0.00     0.070 A 
ATOM     11  C   UNL d   1     -43.699  11.889  22.225  0.00  0.00     0.007 A 
ATOM     12  C   UNL d   1     -43.559  12.486  21.656  0.00  0.00     0.000 A 
ATOM     13  C   UNL d   1     -44.158  13.046  21.469  0.00  0.00     0.001 A 
ATOM     14  C   UNL d   1     -44.879  13.004  21.847  0.00  0.00     0.007 A 
BRANCH  10  15
ATOM     15  C   UNL d   1     -44.566  11.271  23.159  0.00  0.00     0.211 C 
ATOM     16  O   UNL d   1     -45.303  10.915  23.194  0.00  0.00    -0.644 OA
ATOM     17  O   UNL d   1     -44.003  11.018  23.698  0.00  0.00    -0.644 OA
ENDBRANCH  10  15
ENDBRANCH   8   9
ENDBRANCH   4   8
BRANCH   1  18
ATOM     18  C   UNL d   1     -48.229  13.917  22.654  0.00  0.00     0.070 A 
ATOM     19  C   UNL d   1     -48.695  13.910  23.317  0.00  0.00     0.019 A 
ATOM     20  C   UNL d   1     -49.494  14.130  23.251  0.00  0.00     0.019 A 
ATOM     21  C   UNL d   1     -49.801  14.349  22.518  0.00  0.00     0.064 A 
ATOM     22  C   UNL d   1     -49.322  14.355  21.844  0.00  0.00     0.019 A 
ATOM     23  C   UNL d   1     -48.532  14.139  21.907  0.00  0.00     0.019 A 
BRANCH  21  24
ATOM     24  N   UNL d   1     -50.584  14.564  22.452  0.00  0.00    -0.301 N 
ATOM     25  C   UNL d   1     -51.053  14.212  21.870  0.00  0.00     0.100 C 
ATOM     26  C   UNL d   1     -50.892  15.122  22.963  0.00  0.00     0.100 C 
ENDBRANCH  21  24
ENDBRANCH   1  18
TORSDOF 5
ENDMDL
