MODEL 1
REMARK VINA RESULT:      -8.0      0.000      0.000
REMARK  8 active torsions:
REMARK  status: ('A' for Active; 'I' for Inactive)
REMARK    1  A    between atoms: N_10  and  C_4 
REMARK    2  A    between atoms: C_17  and  N_5 
REMARK    3  A    between atoms: C_16  and  N_10 
REMARK    4  A    between atoms: C_11  and  S_19 
REMARK    5  A    between atoms: C_20  and  C_16 
REMARK    6  A    between atoms: C_21  and  C_17 
REMARK    7  A    between atoms: S_19  and  C_26 
REMARK    8  A    between atoms: C_26  and  C_21 
ROOT
ATOM      1  C   UNL d   1      53.723  33.602  54.419  0.00  0.00     0.191 A 
ATOM      2  C   UNL d   1      53.157  34.062  54.033  0.00  0.00     0.174 A 
ATOM      3  N   UNL d   1      53.654  32.820  54.148  0.00  0.00    -0.042 NA
ATOM      4  C   UNL d   1      53.032  32.820  53.590  0.00  0.00     0.722 A 
ATOM      5  N   UNL d   1      52.673  33.550  53.463  0.00  0.00    -0.132 N 
ATOM      6  N   UNL d   1      54.231  33.947  54.967  0.00  0.00    -0.239 N 
ATOM      7  C   UNL d   1      54.183  34.776  55.145  0.00  0.00     0.358 A 
ATOM      8  N   UNL d   1      53.617  35.236  54.759  0.00  0.00    -0.152 NA
ATOM      9  C   UNL d   1      53.099  34.867  54.196  0.00  0.00     0.303 A 
ATOM     10  O   UNL d   1      54.697  35.137  55.703  0.00  0.00    -0.244 OA
ATOM     11  O   UNL d   1      52.533  35.327  53.810  0.00  0.00    -0.263 OA
ATOM     12  C   UNL d   1      54.797  33.487  55.352  0.00  0.00     0.105 C 
ENDROOT
BRANCH   5  13
ATOM     13  C   UNL d   1      52.117  34.017  53.088  0.00  0.00     0.099 C 
BRANCH  13  14
ATOM     14  C   UNL d   1      51.332  33.773  53.084  0.00  0.00     0.027 C 
BRANCH  14  15
ATOM     15  C   UNL d   1      50.778  34.195  52.659  0.00  0.00     0.040 C 
BRANCH  15  16
ATOM     16  S   UNL d   1      49.972  34.066  52.797  0.00  0.00    -0.048 SA
BRANCH  16  17
ATOM     17  C   UNL d   1      49.412  34.513  52.387  0.00  0.00     0.194 A 
ATOM     18  N   UNL d   1      49.269  34.363  51.590  0.00  0.00    -0.220 NA
ATOM     19  C   UNL d   1      48.716  34.807  51.193  0.00  0.00     0.103 A 
ATOM     20  C   UNL d   1      48.300  35.405  51.583  0.00  0.00     0.041 A 
ATOM     21  C   UNL d   1      48.442  35.560  52.387  0.00  0.00     0.103 A 
ATOM     22  N   UNL d   1      49.004  35.106  52.786  0.00  0.00    -0.220 NA
ENDBRANCH  16  17
ENDBRANCH  15  16
ENDBRANCH  14  15
ENDBRANCH  13  14
ENDBRANCH   5  13
BRANCH   4  23
ATOM     23  N   UNL d   1      52.771  32.155  53.179  0.00  0.00    -0.137 N 
ATOM     24  C   UNL d   1      52.885  32.097  52.373  0.00  0.00     0.118 C 
BRANCH  23  25
ATOM     25  C   UNL d   1      52.394  31.543  53.580  0.00  0.00     0.098 C 
BRANCH  25  26
ATOM     26  C   UNL d   1      52.649  30.765  53.483  0.00  0.00     0.018 A 
ATOM     27  C   UNL d   1      53.018  30.370  54.113  0.00  0.00     0.002 A 
ATOM     28  C   UNL d   1      53.274  29.596  54.021  0.00  0.00     0.000 A 
ATOM     29  C   UNL d   1      53.163  29.208  53.296  0.00  0.00     0.000 A 
ATOM     30  C   UNL d   1      52.793  29.606  52.667  0.00  0.00     0.000 A 
ATOM     31  C   UNL d   1      52.538  30.381  52.763  0.00  0.00     0.002 A 
ENDBRANCH  25  26
ENDBRANCH  23  25
ENDBRANCH   4  23
TORSDOF 8
ENDMDL
MODEL 2
REMARK VINA RESULT:      -8.0      1.518      4.602
REMARK  8 active torsions:
REMARK  status: ('A' for Active; 'I' for Inactive)
REMARK    1  A    between atoms: N_10  and  C_4 
REMARK    2  A    between atoms: C_17  and  N_5 
REMARK    3  A    between atoms: C_16  and  N_10 
REMARK    4  A    between atoms: C_11  and  S_19 
REMARK    5  A    between atoms: C_20  and  C_16 
REMARK    6  A    between atoms: C_21  and  C_17 
REMARK    7  A    between atoms: S_19  and  C_26 
REMARK    8  A    between atoms: C_26  and  C_21 
ROOT
ATOM      1  C   UNL d   1      53.395  33.919  54.312  0.00  0.00     0.191 A 
ATOM      2  C   UNL d   1      53.611  33.218  53.935  0.00  0.00     0.174 A 
ATOM      3  N   UNL d   1      52.623  34.114  54.080  0.00  0.00    -0.042 NA
ATOM      4  C   UNL d   1      52.378  33.514  53.553  0.00  0.00     0.722 A 
ATOM      5  N   UNL d   1      52.933  32.923  53.412  0.00  0.00    -0.132 N 
ATOM      6  N   UNL d   1      53.924  34.294  54.820  0.00  0.00    -0.239 N 
ATOM      7  C   UNL d   1      54.695  33.970  54.963  0.00  0.00     0.358 A 
ATOM      8  N   UNL d   1      54.911  33.269  54.586  0.00  0.00    -0.152 NA
ATOM      9  C   UNL d   1      54.357  32.892  54.065  0.00  0.00     0.303 A 
ATOM     10  O   UNL d   1      55.242  34.345  55.480  0.00  0.00    -0.244 OA
ATOM     11  O   UNL d   1      54.573  32.191  53.688  0.00  0.00    -0.263 OA
ATOM     12  C   UNL d   1      53.708  34.995  55.197  0.00  0.00     0.105 C 
ENDROOT
BRANCH   5  13
ATOM     13  C   UNL d   1      53.159  32.229  53.044  0.00  0.00     0.099 C 
BRANCH  13  14
ATOM     14  C   UNL d   1      52.675  31.569  53.111  0.00  0.00     0.027 C 
BRANCH  14  15
ATOM     15  C   UNL d   1      52.995  30.822  53.035  0.00  0.00     0.040 C 
BRANCH  15  16
ATOM     16  S   UNL d   1      52.549  30.161  53.260  0.00  0.00    -0.048 SA
BRANCH  16  17
ATOM     17  C   UNL d   1      52.871  29.612  53.784  0.00  0.00     0.194 A 
ATOM     18  N   UNL d   1      53.417  29.057  53.516  0.00  0.00    -0.220 NA
ATOM     19  C   UNL d   1      53.730  28.518  54.039  0.00  0.00     0.103 A 
ATOM     20  C   UNL d   1      53.504  28.527  54.834  0.00  0.00     0.041 A 
ATOM     21  C   UNL d   1      52.954  29.085  55.109  0.00  0.00     0.103 A 
ATOM     22  N   UNL d   1      52.639  29.629  54.574  0.00  0.00    -0.220 NA
ENDBRANCH  16  17
ENDBRANCH  15  16
ENDBRANCH  14  15
ENDBRANCH  13  14
ENDBRANCH   5  13
BRANCH   4  23
ATOM     23  N   UNL d   1      51.641  33.486  53.184  0.00  0.00    -0.137 N 
ATOM     24  C   UNL d   1      51.049  33.008  53.481  0.00  0.00     0.118 C 
BRANCH  23  25
ATOM     25  C   UNL d   1      51.497  33.940  52.513  0.00  0.00     0.098 C 
BRANCH  25  26
ATOM     26  C   UNL d   1      50.732  34.196  52.343  0.00  0.00     0.018 A 
ATOM     27  C   UNL d   1      50.408  34.057  51.592  0.00  0.00     0.002 A 
ATOM     28  C   UNL d   1      49.647  34.311  51.419  0.00  0.00     0.000 A 
ATOM     29  C   UNL d   1      49.202  34.707  51.996  0.00  0.00     0.000 A 
ATOM     30  C   UNL d   1      49.530  34.845  52.748  0.00  0.00     0.000 A 
ATOM     31  C   UNL d   1      50.292  34.589  52.917  0.00  0.00     0.002 A 
ENDBRANCH  25  26
ENDBRANCH  23  25
ENDBRANCH   4  23
TORSDOF 8
ENDMDL
MODEL 3
REMARK VINA RESULT:      -7.1      1.719      3.488
REMARK  8 active torsions:
REMARK  status: ('A' for Active; 'I' for Inactive)
REMARK    1  A    between atoms: N_10  and  C_4 
REMARK    2  A    between atoms: C_17  and  N_5 
REMARK    3  A    between atoms: C_16  and  N_10 
REMARK    4  A    between atoms: C_11  and  S_19 
REMARK    5  A    between atoms: C_20  and  C_16 
REMARK    6  A    between atoms: C_21  and  C_17 
REMARK    7  A    between atoms: S_19  and  C_26 
REMARK    8  A    between atoms: C_26  and  C_21 
ROOT
ATOM      1  C   UNL d   1      53.214  30.908  53.479  0.00  0.00     0.191 A 
ATOM      2  C   UNL d   1      52.462  31.239  53.399  0.00  0.00     0.174 A 
ATOM      3  N   UNL d   1      53.763  31.524  53.569  0.00  0.00    -0.042 NA
ATOM      4  C   UNL d   1      53.324  32.234  53.543  0.00  0.00     0.722 A 
ATOM      5  N   UNL d   1      52.512  32.143  53.440  0.00  0.00    -0.132 N 
ATOM      6  N   UNL d   1      53.308  30.091  53.459  0.00  0.00    -0.239 N 
ATOM      7  C   UNL d   1      52.641  29.577  53.358  0.00  0.00     0.358 A 
ATOM      8  N   UNL d   1      51.889  29.907  53.278  0.00  0.00    -0.152 NA
ATOM      9  C   UNL d   1      51.805  30.752  53.300  0.00  0.00     0.303 A 
ATOM     10  O   UNL d   1      52.727  28.740  53.336  0.00  0.00    -0.244 OA
ATOM     11  O   UNL d   1      51.053  31.083  53.221  0.00  0.00    -0.263 OA
ATOM     12  C   UNL d   1      54.060  29.760  53.538  0.00  0.00     0.105 C 
ENDROOT
BRANCH   5  13
ATOM     13  C   UNL d   1      51.762  32.458  53.360  0.00  0.00     0.099 C 
BRANCH  13  14
ATOM     14  C   UNL d   1      51.673  33.174  52.967  0.00  0.00     0.027 C 
BRANCH  14  15
ATOM     15  C   UNL d   1      50.945  33.543  52.958  0.00  0.00     0.040 C 
BRANCH  15  16
ATOM     16  S   UNL d   1      50.822  34.192  52.458  0.00  0.00    -0.048 SA
BRANCH  16  17
ATOM     17  C   UNL d   1      50.066  34.514  52.387  0.00  0.00     0.194 A 
ATOM     18  N   UNL d   1      49.731  34.922  53.019  0.00  0.00    -0.220 NA
ATOM     19  C   UNL d   1      48.985  35.237  52.942  0.00  0.00     0.103 A 
ATOM     20  C   UNL d   1      48.565  35.148  52.235  0.00  0.00     0.041 A 
ATOM     21  C   UNL d   1      48.899  34.737  51.596  0.00  0.00     0.103 A 
ATOM     22  N   UNL d   1      49.656  34.420  51.679  0.00  0.00    -0.220 NA
ENDBRANCH  16  17
ENDBRANCH  15  16
ENDBRANCH  14  15
ENDBRANCH  13  14
ENDBRANCH   5  13
BRANCH   4  23
ATOM     23  N   UNL d   1      53.649  32.989  53.611  0.00  0.00    -0.137 N 
ATOM     24  C   UNL d   1      54.006  33.345  52.970  0.00  0.00     0.118 C 
BRANCH  23  25
ATOM     25  C   UNL d   1      53.614  33.390  54.329  0.00  0.00     0.098 C 
BRANCH  25  26
ATOM     26  C   UNL d   1      54.310  33.609  54.715  0.00  0.00     0.018 A 
ATOM     27  C   UNL d   1      54.392  33.467  55.529  0.00  0.00     0.002 A 
ATOM     28  C   UNL d   1      55.082  33.684  55.916  0.00  0.00     0.000 A 
ATOM     29  C   UNL d   1      55.698  34.045  55.493  0.00  0.00     0.000 A 
ATOM     30  C   UNL d   1      55.611  34.185  54.678  0.00  0.00     0.000 A 
ATOM     31  C   UNL d   1      54.919  33.967  54.294  0.00  0.00     0.002 A 
ENDBRANCH  25  26
ENDBRANCH  23  25
ENDBRANCH   4  23
TORSDOF 8
ENDMDL
MODEL 4
REMARK VINA RESULT:      -5.2      1.947      4.886
REMARK  8 active torsions:
REMARK  status: ('A' for Active; 'I' for Inactive)
REMARK    1  A    between atoms: N_10  and  C_4 
REMARK    2  A    between atoms: C_17  and  N_5 
REMARK    3  A    between atoms: C_16  and  N_10 
REMARK    4  A    between atoms: C_11  and  S_19 
REMARK    5  A    between atoms: C_20  and  C_16 
REMARK    6  A    between atoms: C_21  and  C_17 
REMARK    7  A    between atoms: S_19  and  C_26 
REMARK    8  A    between atoms: C_26  and  C_21 
ROOT
ATOM      1  C   UNL d   1      51.697  33.957  53.179  0.00  0.00     0.191 A 
ATOM      2  C   UNL d   1      51.509  33.154  53.155  0.00  0.00     0.174 A 
ATOM      3  N   UNL d   1      52.508  34.031  53.338  0.00  0.00    -0.042 NA
ATOM      4  C   UNL d   1      52.804  33.254  53.410  0.00  0.00     0.722 A 
ATOM      5  N   UNL d   1      52.248  32.654  53.310  0.00  0.00    -0.132 N 
ATOM      6  N   UNL d   1      51.111  34.522  53.053  0.00  0.00    -0.239 N 
ATOM      7  C   UNL d   1      50.309  34.292  52.898  0.00  0.00     0.358 A 
ATOM      8  N   UNL d   1      50.121  33.489  52.875  0.00  0.00    -0.152 NA
ATOM      9  C   UNL d   1      50.734  32.917  53.006  0.00  0.00     0.303 A 
ATOM     10  O   UNL d   1      49.704  34.861  52.769  0.00  0.00    -0.244 OA
ATOM     11  O   UNL d   1      50.545  32.114  52.982  0.00  0.00    -0.263 OA
ATOM     12  C   UNL d   1      51.300  35.325  53.077  0.00  0.00     0.105 C 
ENDROOT
BRANCH   5  13
ATOM     13  C   UNL d   1      52.049  31.862  53.284  0.00  0.00     0.099 C 
BRANCH  13  14
ATOM     14  C   UNL d   1      52.639  31.309  53.144  0.00  0.00     0.027 C 
BRANCH  14  15
ATOM     15  C   UNL d   1      52.512  30.525  53.329  0.00  0.00     0.040 C 
BRANCH  15  16
ATOM     16  S   UNL d   1      53.149  29.996  53.328  0.00  0.00    -0.048 SA
BRANCH  16  17
ATOM     17  C   UNL d   1      53.232  29.457  53.948  0.00  0.00     0.194 A 
ATOM     18  N   UNL d   1      53.295  29.727  54.723  0.00  0.00    -0.220 NA
ATOM     19  C   UNL d   1      53.377  29.190  55.328  0.00  0.00     0.103 A 
ATOM     20  C   UNL d   1      53.396  28.379  55.169  0.00  0.00     0.041 A 
ATOM     21  C   UNL d   1      53.332  28.103  54.388  0.00  0.00     0.103 A 
ATOM     22  N   UNL d   1      53.250  28.651  53.777  0.00  0.00    -0.220 NA
ENDBRANCH  16  17
ENDBRANCH  15  16
ENDBRANCH  14  15
ENDBRANCH  13  14
ENDBRANCH   5  13
BRANCH   4  23
ATOM     23  N   UNL d   1      53.591  33.064  53.569  0.00  0.00    -0.137 N 
ATOM     24  C   UNL d   1      54.138  33.032  52.965  0.00  0.00     0.118 C 
BRANCH  23  25
ATOM     25  C   UNL d   1      53.830  32.905  54.341  0.00  0.00     0.098 C 
BRANCH  25  26
ATOM     26  C   UNL d   1      54.476  33.302  54.664  0.00  0.00     0.018 A 
ATOM     27  C   UNL d   1      54.436  33.591  55.442  0.00  0.00     0.002 A 
ATOM     28  C   UNL d   1      55.077  33.986  55.767  0.00  0.00     0.000 A 
ATOM     29  C   UNL d   1      55.766  34.098  55.318  0.00  0.00     0.000 A 
ATOM     30  C   UNL d   1      55.802  33.807  54.539  0.00  0.00     0.000 A 
ATOM     31  C   UNL d   1      55.158  33.411  54.217  0.00  0.00     0.002 A 
ENDBRANCH  25  26
ENDBRANCH  23  25
ENDBRANCH   4  23
TORSDOF 8
ENDMDL
