MODEL 1
REMARK VINA RESULT:      -3.5      0.000      0.000
REMARK  5 active torsions:
REMARK  status: ('A' for Active; 'I' for Inactive)
REMARK    1  A    between atoms: C_9  and  N_1 
REMARK    2  A    between atoms: C_2  and  C_9 
REMARK    3  A    between atoms: S_14  and  C_5 
REMARK    4  A    between atoms: C_12  and  C_16 
REMARK       I    between atoms: N_13  and  C_12 
REMARK    5  A    between atoms: C_16  and  S_14 
ROOT
ATOM      1  C   UNL d   1      32.689  18.234 -23.621  0.00  0.00     0.189 A 
ATOM      2  N   UNL d   1      32.928  18.985 -23.846  0.00  0.00    -0.265 N 
ATOM      3  C   UNL d   1      33.007  19.441 -23.164  0.00  0.00     0.202 A 
ATOM      4  N   UNL d   1      32.619  18.223 -22.803  0.00  0.00    -0.126 NA
ATOM      5  N   UNL d   1      32.816  18.969 -22.517  0.00  0.00    -0.121 NA
ATOM      6  C   UNL d   1      33.070  19.253 -24.614  0.00  0.00     0.103 C 
ENDROOT
BRANCH   1   7
ATOM      7  C   UNL d   1      32.565  17.658 -24.188  0.00  0.00     0.123 C 
BRANCH   7   8
ATOM      8  N   UNL d   1      32.153  16.967 -23.999  0.00  0.00    -0.265 N 
ATOM      9  C   UNL d   1      32.465  16.305 -23.609  0.00  0.00     0.296 A 
ATOM     10  S   UNL d   1      31.859  15.750 -23.539  0.00  0.00    -0.025 SA
ATOM     11  O   UNL d   1      33.239  16.221 -23.342  0.00  0.00    -0.259 OA
ATOM     12  C   UNL d   1      31.174  16.076 -23.888  0.00  0.00     0.050 A 
ATOM     13  C   UNL d   1      31.363  16.827 -24.169  0.00  0.00     0.074 A 
ATOM     14  C   UNL d   1      30.408  15.776 -23.980  0.00  0.00     0.008 A 
ATOM     15  C   UNL d   1      30.780  17.283 -24.547  0.00  0.00     0.018 A 
ATOM     16  C   UNL d   1      30.014  16.988 -24.641  0.00  0.00     0.002 A 
ATOM     17  C   UNL d   1      29.835  16.228 -24.352  0.00  0.00     0.001 A 
ENDBRANCH   7   8
ENDBRANCH   1   7
BRANCH   3  18
ATOM     18  S   UNL d   1      33.238  20.232 -23.132  0.00  0.00    -0.043 SA
BRANCH  18  19
ATOM     19  C   UNL d   1      33.094  20.686 -22.456  0.00  0.00     0.099 C 
BRANCH  19  20
ATOM     20  C   UNL d   1      33.075  21.512 -22.503  0.00  0.00     0.271 C 
ATOM     21  N   UNL d   1      32.891  21.959 -21.837  0.00  0.00    -0.272 N 
ATOM     22  C   UNL d   1      32.903  22.763 -22.002  0.00  0.00     0.083 A 
ATOM     23  C   UNL d   1      32.724  21.583 -21.120  0.00  0.00     0.083 A 
ATOM     24  C   UNL d   1      32.752  23.397 -21.496  0.00  0.00     0.019 A 
ATOM     25  C   UNL d   1      32.553  23.382 -20.703  0.00  0.00     0.002 A 
ATOM     26  C   UNL d   1      32.453  22.705 -20.210  0.00  0.00     0.002 A 
ATOM     27  C   UNL d   1      32.527  21.920 -20.386  0.00  0.00     0.019 A 
ATOM     28  O   UNL d   1      33.241  21.884 -23.213  0.00  0.00    -0.266 OA
ENDBRANCH  19  20
ENDBRANCH  18  19
ENDBRANCH   3  18
TORSDOF 5
ENDMDL
