MODEL 1
REMARK VINA RESULT:      -9.5      0.000      0.000
REMARK  7 active torsions:
REMARK  status: ('A' for Active; 'I' for Inactive)
REMARK    1  A    between atoms: C_7  and  C_1 
REMARK    2  A    between atoms: C_9  and  N_2 
REMARK    3  A    between atoms: C_15  and  C_7 
REMARK    4  A    between atoms: C_8  and  C_9 
REMARK       I    between atoms: N_14  and  C_8 
REMARK    5  A    between atoms: C_20  and  N_14 
REMARK    6  A    between atoms: C_33  and  C_27 
REMARK    7  A    between atoms: C_34  and  C_32 
ROOT
ATOM      1  C   UNL d   1      52.994  32.070  53.264  0.00  0.00     0.095 A 
ATOM      2  N   UNL d   1      52.326  33.193  53.852  0.00  0.00    -0.300 N 
ATOM      3  C   UNL d   1      53.737  32.391  53.533  0.00  0.00     0.202 A 
ATOM      4  C   UNL d   1      52.295  32.467  53.422  0.00  0.00     0.087 A 
ATOM      5  C   UNL d   1      53.740  33.108  53.955  0.00  0.00     0.055 A 
ATOM      6  C   UNL d   1      53.047  33.513  54.119  0.00  0.00     0.067 A 
ATOM      7  C   UNL d   1      53.080  34.226  54.542  0.00  0.00     0.018 A 
ATOM      8  C   UNL d   1      54.468  33.437  54.228  0.00  0.00     0.005 A 
ATOM      9  O   UNL d   1      54.428  31.999  53.377  0.00  0.00    -0.286 OA
ATOM     10  C   UNL d   1      54.486  34.145  54.647  0.00  0.00     0.000 A 
ATOM     11  C   UNL d   1      53.791  34.540  54.804  0.00  0.00     0.002 A 
ENDROOT
BRANCH   2  12
ATOM     12  C   UNL d   1      51.631  33.588  54.009  0.00  0.00     0.144 C 
BRANCH  12  13
ATOM     13  C   UNL d   1      51.053  33.655  53.425  0.00  0.00     0.297 C 
ATOM     14  N   UNL d   1      50.955  34.362  53.024  0.00  0.00    -0.207 NA
ATOM     15  O   UNL d   1      50.574  33.008  53.245  0.00  0.00    -0.264 OA
BRANCH  14  16
ATOM     16  C   UNL d   1      50.377  34.429  52.440  0.00  0.00     0.087 A 
ATOM     17  C   UNL d   1      49.657  34.761  52.625  0.00  0.00     0.045 A 
ATOM     18  C   UNL d   1      49.078  34.829  52.044  0.00  0.00     0.121 A 
ATOM     19  O   UNL d   1      48.303  35.141  52.078  0.00  0.00    -0.299 OA
ATOM     20  C   UNL d   1      49.231  34.561  51.277  0.00  0.00     0.119 A 
ATOM     21  C   UNL d   1      47.967  35.065  51.317  0.00  0.00     0.304 A 
ATOM     22  O   UNL d   1      48.543  34.705  50.819  0.00  0.00    -0.300 OA
ATOM     23  C   UNL d   1      49.951  34.229  51.092  0.00  0.00     0.028 A 
ATOM     24  C   UNL d   1      50.530  34.162  51.676  0.00  0.00     0.021 A 
ENDBRANCH  14  16
ENDBRANCH  12  13
ENDBRANCH   2  12
BRANCH   1  25
ATOM     25  C   UNL d   1      52.976  31.362  52.845  0.00  0.00     0.200 C 
ATOM     26  O   UNL d   1      52.946  31.374  52.027  0.00  0.00    -0.286 OA
BRANCH  25  27
ATOM     27  C   UNL d   1      52.989  30.642  53.243  0.00  0.00     0.039 A 
ATOM     28  C   UNL d   1      53.709  30.306  53.496  0.00  0.00     0.003 A 
ATOM     29  C   UNL d   1      53.728  29.578  53.900  0.00  0.00     0.000 A 
ATOM     30  C   UNL d   1      53.026  29.184  54.052  0.00  0.00     0.000 A 
ATOM     31  C   UNL d   1      52.307  29.533  53.792  0.00  0.00     0.000 A 
ATOM     32  C   UNL d   1      52.284  30.260  53.389  0.00  0.00     0.003 A 
BRANCH  30  33
ATOM     33  C   UNL d   1      53.045  28.455  54.456  0.00  0.00     0.000 C 
ATOM     34  C   UNL d   1      53.436  28.417  55.169  0.00  0.00     0.000 C 
ENDBRANCH  30  33
ENDBRANCH  25  27
ENDBRANCH   1  25
BRANCH  10  35
ATOM     35  C   UNL d   1      55.212  34.451  54.906  0.00  0.00     0.000 C 
ATOM     36  C   UNL d   1      55.596  34.109  55.564  0.00  0.00     0.000 C 
ENDBRANCH  10  35
TORSDOF 7
ENDMDL
MODEL 2
REMARK VINA RESULT:      -8.7      0.958      3.630
REMARK  7 active torsions:
REMARK  status: ('A' for Active; 'I' for Inactive)
REMARK    1  A    between atoms: C_7  and  C_1 
REMARK    2  A    between atoms: C_9  and  N_2 
REMARK    3  A    between atoms: C_15  and  C_7 
REMARK    4  A    between atoms: C_8  and  C_9 
REMARK       I    between atoms: N_14  and  C_8 
REMARK    5  A    between atoms: C_20  and  N_14 
REMARK    6  A    between atoms: C_33  and  C_27 
REMARK    7  A    between atoms: C_34  and  C_32 
ROOT
ATOM      1  C   UNL d   1      53.839  32.686  53.641  0.00  0.00     0.095 A 
ATOM      2  N   UNL d   1      52.752  32.172  52.861  0.00  0.00    -0.300 N 
ATOM      3  C   UNL d   1      53.986  31.896  53.927  0.00  0.00     0.202 A 
ATOM      4  C   UNL d   1      53.228  32.823  53.113  0.00  0.00     0.087 A 
ATOM      5  C   UNL d   1      53.503  31.273  53.664  0.00  0.00     0.055 A 
ATOM      6  C   UNL d   1      52.889  31.398  53.136  0.00  0.00     0.067 A 
ATOM      7  C   UNL d   1      52.422  30.757  52.890  0.00  0.00     0.018 A 
ATOM      8  C   UNL d   1      53.637  30.485  53.940  0.00  0.00     0.005 A 
ATOM      9  O   UNL d   1      54.590  31.761  54.450  0.00  0.00    -0.286 OA
ATOM     10  C   UNL d   1      53.166  29.859  53.687  0.00  0.00     0.000 A 
ATOM     11  C   UNL d   1      52.558  29.995  53.162  0.00  0.00     0.002 A 
ENDROOT
BRANCH   2  12
ATOM     12  C   UNL d   1      52.145  32.308  52.336  0.00  0.00     0.144 C 
BRANCH  12  13
ATOM     13  C   UNL d   1      51.521  32.806  52.546  0.00  0.00     0.297 C 
ATOM     14  N   UNL d   1      51.296  33.415  52.047  0.00  0.00    -0.207 NA
ATOM     15  O   UNL d   1      51.124  32.688  53.260  0.00  0.00    -0.264 OA
BRANCH  14  16
ATOM     16  C   UNL d   1      50.673  33.912  52.257  0.00  0.00     0.087 A 
ATOM     17  C   UNL d   1      50.083  34.066  51.717  0.00  0.00     0.045 A 
ATOM     18  C   UNL d   1      49.460  34.561  51.923  0.00  0.00     0.121 A 
ATOM     19  O   UNL d   1      48.791  34.811  51.487  0.00  0.00    -0.299 OA
ATOM     20  C   UNL d   1      49.436  34.900  52.677  0.00  0.00     0.119 A 
ATOM     21  C   UNL d   1      48.343  35.315  51.979  0.00  0.00     0.304 A 
ATOM     22  O   UNL d   1      48.742  35.370  52.718  0.00  0.00    -0.300 OA
ATOM     23  C   UNL d   1      50.025  34.746  53.218  0.00  0.00     0.028 A 
ATOM     24  C   UNL d   1      50.649  34.249  53.008  0.00  0.00     0.021 A 
ENDBRANCH  14  16
ENDBRANCH  12  13
ENDBRANCH   2  12
BRANCH   1  25
ATOM     25  C   UNL d   1      54.310  33.312  53.893  0.00  0.00     0.200 C 
ATOM     26  O   UNL d   1      55.122  33.272  53.805  0.00  0.00    -0.286 OA
BRANCH  25  27
ATOM     27  C   UNL d   1      53.968  33.979  54.234  0.00  0.00     0.039 A 
ATOM     28  C   UNL d   1      53.669  33.955  55.013  0.00  0.00     0.003 A 
ATOM     29  C   UNL d   1      53.322  34.627  55.363  0.00  0.00     0.000 A 
ATOM     30  C   UNL d   1      53.273  35.324  54.934  0.00  0.00     0.000 A 
ATOM     31  C   UNL d   1      53.578  35.334  54.151  0.00  0.00     0.000 A 
ATOM     32  C   UNL d   1      53.925  34.666  53.799  0.00  0.00     0.003 A 
BRANCH  30  33
ATOM     33  C   UNL d   1      52.926  35.996  55.285  0.00  0.00     0.000 C 
ATOM     34  C   UNL d   1      52.909  36.690  54.860  0.00  0.00     0.000 C 
ENDBRANCH  30  33
ENDBRANCH  25  27
ENDBRANCH   1  25
BRANCH  10  35
ATOM     35  C   UNL d   1      53.315  29.094  53.970  0.00  0.00     0.000 C 
ATOM     36  C   UNL d   1      53.222  28.927  54.783  0.00  0.00     0.000 C 
ENDBRANCH  10  35
TORSDOF 7
ENDMDL
MODEL 3
REMARK VINA RESULT:      -7.7      1.412      5.024
REMARK  7 active torsions:
REMARK  status: ('A' for Active; 'I' for Inactive)
REMARK    1  A    between atoms: C_7  and  C_1 
REMARK    2  A    between atoms: C_9  and  N_2 
REMARK    3  A    between atoms: C_15  and  C_7 
REMARK    4  A    between atoms: C_8  and  C_9 
REMARK       I    between atoms: N_14  and  C_8 
REMARK    5  A    between atoms: C_20  and  N_14 
REMARK    6  A    between atoms: C_33  and  C_27 
REMARK    7  A    between atoms: C_34  and  C_32 
ROOT
ATOM      1  C   UNL d   1      52.417  34.536  53.267  0.00  0.00     0.095 A 
ATOM      2  N   UNL d   1      51.771  33.421  52.639  0.00  0.00    -0.300 N 
ATOM      3  C   UNL d   1      51.669  34.946  53.269  0.00  0.00     0.202 A 
ATOM      4  C   UNL d   1      52.467  33.780  52.955  0.00  0.00     0.087 A 
ATOM      5  C   UNL d   1      50.998  34.571  52.952  0.00  0.00     0.055 A 
ATOM      6  C   UNL d   1      51.037  33.815  52.638  0.00  0.00     0.067 A 
ATOM      7  C   UNL d   1      50.353  33.464  52.328  0.00  0.00     0.018 A 
ATOM      8  C   UNL d   1      50.252  34.966  52.948  0.00  0.00     0.005 A 
ATOM      9  O   UNL d   1      51.619  35.694  53.578  0.00  0.00    -0.286 OA
ATOM     10  C   UNL d   1      49.580  34.606  52.638  0.00  0.00     0.000 A 
ATOM     11  C   UNL d   1      49.631  33.854  52.327  0.00  0.00     0.002 A 
ENDROOT
BRANCH   2  12
ATOM     12  C   UNL d   1      51.821  32.670  52.329  0.00  0.00     0.144 C 
BRANCH  12  13
ATOM     13  C   UNL d   1      52.105  32.049  52.793  0.00  0.00     0.297 C 
ATOM     14  N   UNL d   1      52.661  31.531  52.488  0.00  0.00    -0.207 NA
ATOM     15  O   UNL d   1      51.828  31.952  53.564  0.00  0.00    -0.264 OA
BRANCH  14  16
ATOM     16  C   UNL d   1      52.944  30.910  52.952  0.00  0.00     0.087 A 
ATOM     17  C   UNL d   1      52.455  30.282  53.124  0.00  0.00     0.045 A 
ATOM     18  C   UNL d   1      52.735  29.662  53.586  0.00  0.00     0.121 A 
ATOM     19  O   UNL d   1      52.362  28.960  53.845  0.00  0.00    -0.299 OA
ATOM     20  C   UNL d   1      53.511  29.680  53.873  0.00  0.00     0.119 A 
ATOM     21  C   UNL d   1      52.916  28.533  54.301  0.00  0.00     0.304 A 
ATOM     22  O   UNL d   1      53.629  28.979  54.320  0.00  0.00    -0.300 OA
ATOM     23  C   UNL d   1      54.000  30.308  53.702  0.00  0.00     0.028 A 
ATOM     24  C   UNL d   1      53.716  30.929  53.238  0.00  0.00     0.021 A 
ENDBRANCH  14  16
ENDBRANCH  12  13
ENDBRANCH   2  12
BRANCH   1  25
ATOM     25  C   UNL d   1      53.088  34.896  53.578  0.00  0.00     0.200 C 
ATOM     26  O   UNL d   1      53.313  35.635  53.310  0.00  0.00    -0.286 OA
BRANCH  25  27
ATOM     27  C   UNL d   1      53.535  34.516  54.155  0.00  0.00     0.039 A 
ATOM     28  C   UNL d   1      53.241  34.425  54.931  0.00  0.00     0.003 A 
ATOM     29  C   UNL d   1      53.689  34.041  55.520  0.00  0.00     0.000 A 
ATOM     30  C   UNL d   1      54.431  33.748  55.334  0.00  0.00     0.000 A 
ATOM     31  C   UNL d   1      54.715  33.847  54.549  0.00  0.00     0.000 A 
ATOM     32  C   UNL d   1      54.272  34.229  53.959  0.00  0.00     0.003 A 
BRANCH  30  33
ATOM     33  C   UNL d   1      54.879  33.365  55.924  0.00  0.00     0.000 C 
ATOM     34  C   UNL d   1      55.557  33.726  56.192  0.00  0.00     0.000 C 
ENDBRANCH  30  33
ENDBRANCH  25  27
ENDBRANCH   1  25
BRANCH  10  35
ATOM     35  C   UNL d   1      48.858  35.011  52.643  0.00  0.00     0.000 C 
ATOM     36  C   UNL d   1      48.429  35.108  51.933  0.00  0.00     0.000 C 
ENDBRANCH  10  35
TORSDOF 7
ENDMDL
