MODEL 1
REMARK VINA RESULT:      75.2      0.000      0.000
REMARK  5 active torsions:
REMARK  status: ('A' for Active; 'I' for Inactive)
REMARK    1  A    between atoms: N_2  and  S_1 
REMARK    2  A    between atoms: C_6  and  S_1 
REMARK       I    between atoms: C_3  and  N_4 
REMARK    3  A    between atoms: C_5  and  C_3 
REMARK    4  A    between atoms: C_11  and  O_13 
REMARK    5  A    between atoms: O_13  and  C_23 
ROOT
ATOM      1  S   UNL d   1     -48.615  28.483  34.698  0.00  0.00     0.271 S 
ATOM      2  O   UNL d   1     -48.682  29.217  34.315  0.00  0.00    -0.200 OA
ATOM      3  O   UNL d   1     -48.160  28.417  35.383  0.00  0.00    -0.200 OA
ENDROOT
BRANCH   1   4
ATOM      4  N   UNL d   1     -48.315  29.246  34.837  0.00  0.00    -0.226 N 
ATOM      5  C   UNL d   1     -48.481  29.859  34.310  0.00  0.00     0.111 A 
ATOM      6  C   UNL d   1     -48.180  30.614  34.454  0.00  0.00     0.103 A 
ATOM      7  N   UNL d   1     -47.720  30.754  35.114  0.00  0.00    -0.267 N 
ATOM      8  C   UNL d   1     -47.419  31.511  35.255  0.00  0.00     0.288 C 
ATOM      9  C   UNL d   1     -47.548  30.144  35.647  0.00  0.00     0.103 A 
ATOM     10  O   UNL d   1     -46.949  31.658  35.928  0.00  0.00    -0.264 OA
ATOM     11  C   UNL d   1     -47.849  29.385  35.505  0.00  0.00     0.111 A 
BRANCH   8  12
ATOM     12  C   UNL d   1     -47.584  32.131  34.729  0.00  0.00     0.156 A 
ATOM     13  O   UNL d   1     -48.325  32.488  34.606  0.00  0.00    -0.300 OA
ATOM     14  C   UNL d   1     -48.232  33.079  34.033  0.00  0.00     0.123 A 
ATOM     15  C   UNL d   1     -47.433  33.092  33.797  0.00  0.00     0.029 A 
ATOM     16  C   UNL d   1     -47.036  32.500  34.233  0.00  0.00     0.032 A 
ENDBRANCH   8  12
ENDBRANCH   1   4
BRANCH   1  17
ATOM     17  C   UNL d   1     -49.005  27.822  34.390  0.00  0.00     0.104 A 
ATOM     18  C   UNL d   1     -49.455  27.890  33.708  0.00  0.00     0.015 A 
ATOM     19  C   UNL d   1     -49.843  27.230  33.402  0.00  0.00     0.025 A 
ATOM     20  C   UNL d   1     -49.777  26.504  33.782  0.00  0.00     0.100 A 
ATOM     21  C   UNL d   1     -49.324  26.437  34.467  0.00  0.00     0.025 A 
ATOM     22  C   UNL d   1     -48.939  27.096  34.769  0.00  0.00     0.015 A 
BRANCH  20  23
ATOM     23  O   UNL d   1     -50.166  25.831  33.480  0.00  0.00    -0.307 OA
BRANCH  23  24
ATOM     24  C   UNL d   1     -50.989  25.823  33.434  0.00  0.00     0.100 A 
ATOM     25  C   UNL d   1     -51.389  25.111  33.353  0.00  0.00     0.023 A 
ATOM     26  C   UNL d   1     -50.966  24.408  33.316  0.00  0.00     0.002 C 
ATOM     27  C   UNL d   1     -52.217  25.096  33.307  0.00  0.00     0.002 A 
ATOM     28  C   UNL d   1     -52.645  25.802  33.343  0.00  0.00     0.000 A 
ATOM     29  C   UNL d   1     -52.238  26.518  33.426  0.00  0.00     0.002 A 
ATOM     30  C   UNL d   1     -51.415  26.525  33.471  0.00  0.00     0.025 A 
ENDBRANCH  23  24
ENDBRANCH  20  23
ENDBRANCH   1  17
TORSDOF 5
ENDMDL
MODEL 2
REMARK VINA RESULT:      76.7      1.061      1.735
REMARK  5 active torsions:
REMARK  status: ('A' for Active; 'I' for Inactive)
REMARK    1  A    between atoms: N_2  and  S_1 
REMARK    2  A    between atoms: C_6  and  S_1 
REMARK       I    between atoms: C_3  and  N_4 
REMARK    3  A    between atoms: C_5  and  C_3 
REMARK    4  A    between atoms: C_11  and  O_13 
REMARK    5  A    between atoms: O_13  and  C_23 
ROOT
ATOM      1  S   UNL d   1     -49.284  27.499  34.724  0.00  0.00     0.271 S 
ATOM      2  O   UNL d   1     -49.075  28.224  34.379  0.00  0.00    -0.200 OA
ATOM      3  O   UNL d   1     -48.891  27.237  35.400  0.00  0.00    -0.200 OA
ENDROOT
BRANCH   1   4
ATOM      4  N   UNL d   1     -48.727  28.090  34.898  0.00  0.00    -0.226 N 
ATOM      5  C   UNL d   1     -48.948  28.886  34.876  0.00  0.00     0.111 A 
ATOM      6  C   UNL d   1     -48.390  29.469  35.050  0.00  0.00     0.103 A 
ATOM      7  N   UNL d   1     -47.625  29.261  35.243  0.00  0.00    -0.267 N 
ATOM      8  C   UNL d   1     -47.068  29.847  35.417  0.00  0.00     0.288 C 
ATOM      9  C   UNL d   1     -47.396  28.465  35.268  0.00  0.00     0.103 A 
ATOM     10  O   UNL d   1     -46.286  29.639  35.615  0.00  0.00    -0.264 OA
ATOM     11  C   UNL d   1     -47.954  27.878  35.094  0.00  0.00     0.111 A 
BRANCH   8  12
ATOM     12  C   UNL d   1     -47.285  30.648  35.396  0.00  0.00     0.156 A 
ATOM     13  O   UNL d   1     -47.657  31.073  36.006  0.00  0.00    -0.300 OA
ATOM     14  C   UNL d   1     -47.768  31.851  35.745  0.00  0.00     0.123 A 
ATOM     15  C   UNL d   1     -47.466  31.913  34.971  0.00  0.00     0.029 A 
ATOM     16  C   UNL d   1     -47.167  31.162  34.760  0.00  0.00     0.032 A 
ENDBRANCH   8  12
ENDBRANCH   1   4
BRANCH   1  17
ATOM     17  C   UNL d   1     -49.886  27.042  34.387  0.00  0.00     0.104 A 
ATOM     18  C   UNL d   1     -50.589  26.923  34.792  0.00  0.00     0.015 A 
ATOM     19  C   UNL d   1     -51.187  26.467  34.455  0.00  0.00     0.025 A 
ATOM     20  C   UNL d   1     -51.078  26.132  33.713  0.00  0.00     0.100 A 
ATOM     21  C   UNL d   1     -50.371  26.252  33.306  0.00  0.00     0.025 A 
ATOM     22  C   UNL d   1     -49.777  26.706  33.645  0.00  0.00     0.015 A 
BRANCH  20  23
ATOM     23  O   UNL d   1     -51.678  25.670  33.364  0.00  0.00    -0.307 OA
BRANCH  23  24
ATOM     24  C   UNL d   1     -51.601  24.849  33.347  0.00  0.00     0.100 A 
ATOM     25  C   UNL d   1     -52.269  24.374  33.326  0.00  0.00     0.023 A 
ATOM     26  C   UNL d   1     -53.015  24.720  33.322  0.00  0.00     0.002 C 
ATOM     27  C   UNL d   1     -52.199  23.548  33.309  0.00  0.00     0.002 A 
ATOM     28  C   UNL d   1     -51.451  23.198  33.313  0.00  0.00     0.000 A 
ATOM     29  C   UNL d   1     -50.779  23.681  33.334  0.00  0.00     0.002 A 
ATOM     30  C   UNL d   1     -50.856  24.501  33.351  0.00  0.00     0.025 A 
ENDBRANCH  23  24
ENDBRANCH  20  23
ENDBRANCH   1  17
TORSDOF 5
ENDMDL
