MODEL 1
REMARK VINA RESULT:      35.1      0.000      0.000
REMARK  10 active torsions:
REMARK  status: ('A' for Active; 'I' for Inactive)
REMARK    1  A    between atoms: N_9  and  C_1 
REMARK    2  A    between atoms: C_4  and  S_21 
REMARK    3  A    between atoms: C_23  and  C_8 
REMARK       I    between atoms: C_19  and  N_9 
REMARK    4  A    between atoms: O_26  and  C_10 
REMARK    5  A    between atoms: C_11  and  C_12 
REMARK       I    between atoms: C_12  and  N_20 
REMARK    6  A    between atoms: O_27  and  C_13 
REMARK    7  A    between atoms: O_28  and  C_14 
REMARK    8  A    between atoms: C_25  and  C_19 
REMARK    9  A    between atoms: N_20  and  C_23 
REMARK   10  A    between atoms: S_21  and  C_25 
ROOT
ATOM      1  O   UNL d   1     -41.132-122.123 -53.425  0.00  0.00    -0.262 OA
ATOM      2  C   UNL d   1     -41.696-122.251 -54.021  0.00  0.00     0.236 A 
ATOM      3  N   UNL d   1     -42.412-122.406 -53.657  0.00  0.00    -0.114 NA
ATOM      4  N   UNL d   1     -42.296-122.375 -52.842  0.00  0.00    -0.119 NA
ATOM      5  C   UNL d   1     -41.508-122.201 -52.700  0.00  0.00     0.224 A 
ENDROOT
BRANCH   5   6
ATOM      6  C   UNL d   1     -41.156-122.119 -51.958  0.00  0.00     0.149 C 
BRANCH   6   7
ATOM      7  N   UNL d   1     -41.452-122.527 -51.309  0.00  0.00    -0.203 NA
ATOM      8  C   UNL d   1     -41.485-122.158 -50.569  0.00  0.00     0.279 C 
ATOM      9  O   UNL d   1     -41.224-121.384 -50.478  0.00  0.00    -0.265 OA
BRANCH   8  10
ATOM     10  C   UNL d   1     -41.783-122.573 -49.919  0.00  0.00     0.062 A 
ATOM     11  C   UNL d   1     -42.564-122.857 -49.936  0.00  0.00     0.031 A 
ATOM     12  C   UNL d   1     -42.847-123.265 -49.289  0.00  0.00     0.118 A 
ATOM     13  C   UNL d   1     -42.387-123.399 -48.635  0.00  0.00     0.138 A 
ATOM     14  C   UNL d   1     -41.601-123.109 -48.628  0.00  0.00     0.118 A 
ATOM     15  C   UNL d   1     -41.316-122.698 -49.279  0.00  0.00     0.031 A 
BRANCH  12  16
ATOM     16  O   UNL d   1     -43.628-123.554 -49.293  0.00  0.00    -0.326 OA
ATOM     17  C   UNL d   1     -44.194-123.186 -49.776  0.00  0.00     0.181 C 
ENDBRANCH  12  16
BRANCH  13  18
ATOM     18  O   UNL d   1     -42.669-123.808 -47.985  0.00  0.00    -0.324 OA
ATOM     19  C   UNL d   1     -43.392-123.589 -47.634  0.00  0.00     0.182 C 
ENDBRANCH  13  18
BRANCH  14  20
ATOM     20  O   UNL d   1     -41.123-123.241 -47.962  0.00  0.00    -0.326 OA
ATOM     21  C   UNL d   1     -41.156-122.743 -47.316  0.00  0.00     0.181 C 
ENDBRANCH  14  20
ENDBRANCH   8  10
ENDBRANCH   6   7
ENDBRANCH   5   6
BRANCH   2  22
ATOM     22  S   UNL d   1     -41.553-122.225 -54.833  0.00  0.00    -0.036 SA
BRANCH  22  23
ATOM     23  C   UNL d   1     -42.161-122.060 -55.353  0.00  0.00     0.101 C 
BRANCH  23  24
ATOM     24  C   UNL d   1     -41.996-121.710 -56.097  0.00  0.00     0.288 C 
ATOM     25  N   UNL d   1     -42.347-120.990 -56.297  0.00  0.00    -0.182 NA
ATOM     26  O   UNL d   1     -41.491-122.082 -56.622  0.00  0.00    -0.265 OA
BRANCH  25  27
ATOM     27  C   UNL d   1     -42.190-120.636 -57.032  0.00  0.00     0.197 A 
ATOM     28  N   UNL d   1     -42.682-120.679 -57.699  0.00  0.00    -0.221 NA
ATOM     29  C   UNL d   1     -42.320-120.253 -58.308  0.00  0.00     0.090 A 
ATOM     30  C   UNL d   1     -42.540-120.103 -59.080  0.00  0.00     0.020 A 
ATOM     31  C   UNL d   1     -41.599-119.946 -58.013  0.00  0.00     0.050 A 
ATOM     32  C   UNL d   1     -42.059-119.648 -59.578  0.00  0.00     0.002 A 
ATOM     33  C   UNL d   1     -41.344-119.345 -59.281  0.00  0.00     0.001 A 
ATOM     34  C   UNL d   1     -41.124-119.496 -58.508  0.00  0.00     0.008 A 
ATOM     35  S   UNL d   1     -41.521-120.184 -57.223  0.00  0.00    -0.047 SA
ENDBRANCH  25  27
ENDBRANCH  23  24
ENDBRANCH  22  23
ENDBRANCH   2  22
TORSDOF 10
ENDMDL
MODEL 2
REMARK VINA RESULT:      37.7      5.548      7.857
REMARK  10 active torsions:
REMARK  status: ('A' for Active; 'I' for Inactive)
REMARK    1  A    between atoms: N_9  and  C_1 
REMARK    2  A    between atoms: C_4  and  S_21 
REMARK    3  A    between atoms: C_23  and  C_8 
REMARK       I    between atoms: C_19  and  N_9 
REMARK    4  A    between atoms: O_26  and  C_10 
REMARK    5  A    between atoms: C_11  and  C_12 
REMARK       I    between atoms: C_12  and  N_20 
REMARK    6  A    between atoms: O_27  and  C_13 
REMARK    7  A    between atoms: O_28  and  C_14 
REMARK    8  A    between atoms: C_25  and  C_19 
REMARK    9  A    between atoms: N_20  and  C_23 
REMARK   10  A    between atoms: S_21  and  C_25 
ROOT
ATOM      1  O   UNL d   1     -45.882-119.703 -48.958  0.00  0.00    -0.262 OA
ATOM      2  C   UNL d   1     -46.271-118.969 -48.972  0.00  0.00     0.236 A 
ATOM      3  N   UNL d   1     -46.681-118.917 -49.678  0.00  0.00    -0.114 NA
ATOM      4  N   UNL d   1     -46.549-119.612 -50.102  0.00  0.00    -0.119 NA
ATOM      5  C   UNL d   1     -46.058-120.095 -49.658  0.00  0.00     0.224 A 
ENDROOT
BRANCH   5   6
ATOM      6  C   UNL d   1     -45.788-120.843 -49.878  0.00  0.00     0.149 C 
BRANCH   6   7
ATOM      7  N   UNL d   1     -45.000-121.050 -49.773  0.00  0.00    -0.203 NA
ATOM      8  C   UNL d   1     -44.724-121.779 -50.049  0.00  0.00     0.279 C 
ATOM      9  O   UNL d   1     -45.233-122.300 -50.429  0.00  0.00    -0.265 OA
BRANCH   8  10
ATOM     10  C   UNL d   1     -43.929-121.982 -49.941  0.00  0.00     0.062 A 
ATOM     11  C   UNL d   1     -43.372-121.785 -50.525  0.00  0.00     0.031 A 
ATOM     12  C   UNL d   1     -42.591-121.991 -50.407  0.00  0.00     0.118 A 
ATOM     13  C   UNL d   1     -42.349-122.380 -49.737  0.00  0.00     0.138 A 
ATOM     14  C   UNL d   1     -42.919-122.574 -49.156  0.00  0.00     0.118 A 
ATOM     15  C   UNL d   1     -43.705-122.367 -49.274  0.00  0.00     0.031 A 
BRANCH  12  16
ATOM     16  O   UNL d   1     -42.023-121.799 -50.984  0.00  0.00    -0.326 OA
ATOM     17  C   UNL d   1     -42.266-121.681 -51.769  0.00  0.00     0.181 C 
ENDBRANCH  12  16
BRANCH  13  18
ATOM     18  O   UNL d   1     -41.567-122.587 -49.618  0.00  0.00    -0.324 OA
ATOM     19  C   UNL d   1     -41.245-123.249 -50.008  0.00  0.00     0.182 C 
ENDBRANCH  13  18
BRANCH  14  20
ATOM     20  O   UNL d   1     -42.681-122.972 -48.467  0.00  0.00    -0.326 OA
ATOM     21  C   UNL d   1     -43.000-123.698 -48.271  0.00  0.00     0.181 C 
ENDBRANCH  14  20
ENDBRANCH   8  10
ENDBRANCH   6   7
ENDBRANCH   5   6
BRANCH   2  22
ATOM     22  S   UNL d   1     -46.244-118.399 -48.376  0.00  0.00    -0.036 SA
BRANCH  22  23
ATOM     23  C   UNL d   1     -46.205-117.606 -48.567  0.00  0.00     0.101 C 
BRANCH  23  24
ATOM     24  C   UNL d   1     -45.685-117.097 -48.151  0.00  0.00     0.288 C 
ATOM     25  N   UNL d   1     -45.285-116.499 -48.557  0.00  0.00    -0.182 NA
ATOM     26  O   UNL d   1     -45.574-117.192 -47.346  0.00  0.00    -0.265 OA
BRANCH  25  27
ATOM     27  C   UNL d   1     -44.768-115.990 -48.154  0.00  0.00     0.197 A 
ATOM     28  N   UNL d   1     -43.939-116.006 -48.210  0.00  0.00    -0.221 NA
ATOM     29  C   UNL d   1     -43.642-115.410 -47.721  0.00  0.00     0.090 A 
ATOM     30  C   UNL d   1     -42.881-115.165 -47.553  0.00  0.00     0.020 A 
ATOM     31  C   UNL d   1     -44.292-115.025 -47.362  0.00  0.00     0.050 A 
ATOM     32  C   UNL d   1     -42.742-114.538 -47.030  0.00  0.00     0.002 A 
ATOM     33  C   UNL d   1     -43.391-114.158 -46.676  0.00  0.00     0.001 A 
ATOM     34  C   UNL d   1     -44.153-114.403 -46.843  0.00  0.00     0.008 A 
ATOM     35  S   UNL d   1     -44.988-115.385 -47.631  0.00  0.00    -0.047 SA
ENDBRANCH  25  27
ENDBRANCH  23  24
ENDBRANCH  22  23
ENDBRANCH   2  22
TORSDOF 10
ENDMDL
