MODEL 1
REMARK VINA RESULT:       3.1      0.000      0.000
REMARK  6 active torsions:
REMARK  status: ('A' for Active; 'I' for Inactive)
REMARK    1  A    between atoms: C_10  and  N_1 
REMARK    2  A    between atoms: S_8  and  C_6 
REMARK    3  A    between atoms: C_13  and  S_8 
REMARK    4  A    between atoms: C_11  and  C_13 
REMARK    5  A    between atoms: O_18  and  C_11 
REMARK    6  A    between atoms: C_23  and  O_18 
ROOT
ATOM      1  N   UNL d   1     -42.149-122.503 -51.514  0.00  0.00    -0.193 N 
ATOM      2  N   UNL d   1     -42.675-121.930 -51.767  0.00  0.00    -0.058 NA
ATOM      3  C   UNL d   1     -41.861-122.888 -52.179  0.00  0.00     0.188 A 
ATOM      4  C   UNL d   1     -42.217-122.544 -52.839  0.00  0.00     0.164 A 
ATOM      5  N   UNL d   1     -42.718-121.952 -52.569  0.00  0.00    -0.125 NA
ATOM      6  C   UNL d   1     -42.041-122.809 -53.588  0.00  0.00     0.135 A 
ATOM      7  N   UNL d   1     -41.330-123.498 -52.269  0.00  0.00    -0.203 NA
ATOM      8  N   UNL d   1     -41.501-123.429 -53.686  0.00  0.00    -0.216 NA
ATOM      9  C   UNL d   1     -41.146-123.774 -53.026  0.00  0.00     0.201 A 
ENDROOT
BRANCH   6  10
ATOM     10  S   UNL d   1     -42.396-122.465 -54.248  0.00  0.00    -0.061 SA
BRANCH  10  11
ATOM     11  C   UNL d   1     -41.948-122.249 -54.892  0.00  0.00     0.094 C 
ATOM     12  C   UNL d   1     -41.130-122.264 -54.837  0.00  0.00     0.013 C 
BRANCH  11  13
ATOM     13  C   UNL d   1     -42.319-122.017 -55.592  0.00  0.00     0.306 C 
ATOM     14  O   UNL d   1     -43.137-122.018 -55.652  0.00  0.00    -0.258 OA
BRANCH  13  15
ATOM     15  O   UNL d   1     -41.857-121.783 -56.237  0.00  0.00    -0.271 OA
BRANCH  15  16
ATOM     16  C   UNL d   1     -42.069-121.116 -56.673  0.00  0.00     0.126 C 
ATOM     17  C   UNL d   1     -41.530-120.784 -57.208  0.00  0.00     0.029 C 
ENDBRANCH  15  16
ENDBRANCH  13  15
ENDBRANCH  11  13
ENDBRANCH  10  11
ENDBRANCH   6  10
BRANCH   1  18
ATOM     18  C   UNL d   1     -41.972-122.635 -50.729  0.00  0.00     0.086 A 
ATOM     19  C   UNL d   1     -42.464-122.333 -50.138  0.00  0.00     0.022 A 
ATOM     20  C   UNL d   1     -42.288-122.464 -49.342  0.00  0.00     0.031 A 
ATOM     21  C   UNL d   1     -41.626-122.893 -49.132  0.00  0.00     0.140 A 
ATOM     22  C   UNL d   1     -41.134-123.196 -49.723  0.00  0.00     0.031 A 
ATOM     23  F   UNL d   1     -41.474-123.010 -48.304  0.00  0.00    -0.204 F 
ATOM     24  C   UNL d   1     -41.300-123.071 -50.517  0.00  0.00     0.022 A 
ENDBRANCH   1  18
TORSDOF 6
ENDMDL
