MODEL 1
REMARK VINA RESULT:      16.7      0.000      0.000
REMARK  3 active torsions:
REMARK  status: ('A' for Active; 'I' for Inactive)
REMARK    1  A    between atoms: O_10  and  C_9 
REMARK    2  A    between atoms: C_13  and  O_10 
REMARK    3  A    between atoms: C_12  and  C_13 
ROOT
ATOM      1  C   UNL d   1      14.715  13.361  -0.944  0.00  0.00     0.066 A 
ATOM      2  O   UNL d   1      15.695  13.344  -0.033  0.00  0.00    -0.302 OA
ATOM      3  C   UNL d   1      14.765  14.114  -0.607  0.00  0.00     0.222 A 
ATOM      4  C   UNL d   1      15.290  12.889  -0.587  0.00  0.00     0.103 A 
ATOM      5  C   UNL d   1      14.231  13.040  -1.521  0.00  0.00     0.030 A 
ATOM      6  C   UNL d   1      15.369  14.102  -0.046  0.00  0.00     0.165 A 
ATOM      7  O   UNL d   1      14.288  14.761  -0.805  0.00  0.00    -0.284 OA
ATOM      8  C   UNL d   1      15.376  12.105  -0.808  0.00  0.00     0.027 A 
ATOM      9  C   UNL d   1      14.318  12.251  -1.743  0.00  0.00     0.100 A 
ATOM     10  C   UNL d   1      14.894  11.782  -1.383  0.00  0.00     0.027 A 
ENDROOT
BRANCH   9  11
ATOM     11  O   UNL d   1      13.826  11.927  -2.328  0.00  0.00    -0.305 OA
BRANCH  11  12
ATOM     12  C   UNL d   1      13.226  12.382  -2.663  0.00  0.00     0.122 C 
BRANCH  12  13
ATOM     13  C   UNL d   1      13.189  12.457  -3.488  0.00  0.00     0.025 A 
ATOM     14  C   UNL d   1      13.050  11.784  -3.949  0.00  0.00     0.004 A 
ATOM     15  C   UNL d   1      13.012  11.854  -4.766  0.00  0.00     0.030 A 
ATOM     16  C   UNL d   1      13.113  12.599  -5.125  0.00  0.00     0.140 A 
ATOM     17  C   UNL d   1      13.251  13.264  -4.661  0.00  0.00     0.030 A 
ATOM     18  F   UNL d   1      13.075  12.663  -5.946  0.00  0.00    -0.204 F 
ATOM     19  C   UNL d   1      13.289  13.195  -3.843  0.00  0.00     0.004 A 
ENDBRANCH  12  13
ENDBRANCH  11  12
ENDBRANCH   9  11
TORSDOF 3
ENDMDL
