MODEL 1
REMARK VINA RESULT:      -5.4      0.000      0.000
REMARK  2 active torsions:
REMARK  status: ('A' for Active; 'I' for Inactive)
REMARK    1  A    between atoms: C_4  and  C_1 
REMARK    2  A    between atoms: C_8  and  C_4 
ROOT
ATOM      1  C   UNL d   1      57.348   0.118  30.837  0.00  0.00     0.139 A 
ATOM      2  O   UNL d   1      57.147  -0.658  31.048  0.00  0.00    -0.304 OA
ATOM      3  C   UNL d   1      57.080   0.630  31.401  0.00  0.00     0.030 A 
ATOM      4  C   UNL d   1      56.741  -0.608  31.770  0.00  0.00     0.100 A 
ATOM      5  C   UNL d   1      56.699   0.185  31.987  0.00  0.00     0.025 A 
ATOM      6  C   UNL d   1      56.404  -1.195  32.252  0.00  0.00     0.025 A 
ATOM      7  C   UNL d   1      56.321   0.412  32.692  0.00  0.00     0.002 A 
ATOM      8  C   UNL d   1      56.029  -0.968  32.951  0.00  0.00     0.002 A 
ATOM      9  C   UNL d   1      55.988  -0.175  33.168  0.00  0.00     0.000 A 
ENDROOT
BRANCH   1  10
ATOM     10  C   UNL d   1      57.768   0.331  30.139  0.00  0.00     0.218 C 
ATOM     11  O   UNL d   1      57.373   0.682  29.497  0.00  0.00    -0.284 OA
BRANCH  10  12
ATOM     12  C   UNL d   1      58.580   0.196  30.076  0.00  0.00     0.041 A 
ATOM     13  C   UNL d   1      58.840  -0.439  29.613  0.00  0.00     0.003 A 
ATOM     14  C   UNL d   1      59.658  -0.578  29.548  0.00  0.00     0.000 A 
ATOM     15  C   UNL d   1      60.196  -0.094  29.936  0.00  0.00     0.000 A 
ATOM     16  C   UNL d   1      59.929   0.539  30.398  0.00  0.00     0.000 A 
ATOM     17  C   UNL d   1      59.119   0.680  30.465  0.00  0.00     0.003 A 
ENDBRANCH  10  12
ENDBRANCH   1  10
TORSDOF 2
ENDMDL
MODEL 2
REMARK VINA RESULT:      -4.7      1.287      4.116
REMARK  2 active torsions:
REMARK  status: ('A' for Active; 'I' for Inactive)
REMARK    1  A    between atoms: C_4  and  C_1 
REMARK    2  A    between atoms: C_8  and  C_4 
ROOT
ATOM      1  C   UNL d   1      56.763  -0.544  32.471  0.00  0.00     0.139 A 
ATOM      2  O   UNL d   1      57.329   0.054  32.575  0.00  0.00    -0.304 OA
ATOM      3  C   UNL d   1      56.773  -0.794  31.703  0.00  0.00     0.030 A 
ATOM      4  C   UNL d   1      57.693   0.164  31.839  0.00  0.00     0.100 A 
ATOM      5  C   UNL d   1      57.351  -0.357  31.302  0.00  0.00     0.025 A 
ATOM      6  C   UNL d   1      58.297   0.682  31.598  0.00  0.00     0.025 A 
ATOM      7  C   UNL d   1      57.604  -0.376  30.510  0.00  0.00     0.002 A 
ATOM      8  C   UNL d   1      58.546   0.662  30.811  0.00  0.00     0.002 A 
ATOM      9  C   UNL d   1      58.204   0.140  30.275  0.00  0.00     0.000 A 
ENDROOT
BRANCH   1  10
ATOM     10  C   UNL d   1      56.258  -0.837  33.078  0.00  0.00     0.218 C 
ATOM     11  O   UNL d   1      56.244  -1.649  33.260  0.00  0.00    -0.284 OA
BRANCH  10  12
ATOM     12  C   UNL d   1      55.768  -0.328  33.504  0.00  0.00     0.041 A 
ATOM     13  C   UNL d   1      54.968  -0.282  33.295  0.00  0.00     0.003 A 
ATOM     14  C   UNL d   1      54.472   0.230  33.722  0.00  0.00     0.000 A 
ATOM     15  C   UNL d   1      54.770   0.682  34.341  0.00  0.00     0.000 A 
ATOM     16  C   UNL d   1      55.571   0.631  34.544  0.00  0.00     0.000 A 
ATOM     17  C   UNL d   1      56.067   0.124  34.123  0.00  0.00     0.003 A 
ENDBRANCH  10  12
ENDBRANCH   1  10
TORSDOF 2
ENDMDL
MODEL 3
REMARK VINA RESULT:      -4.6      1.098      3.654
REMARK  2 active torsions:
REMARK  status: ('A' for Active; 'I' for Inactive)
REMARK    1  A    between atoms: C_4  and  C_1 
REMARK    2  A    between atoms: C_8  and  C_4 
ROOT
ATOM      1  C   UNL d   1      57.700   0.112  31.425  0.00  0.00     0.139 A 
ATOM      2  O   UNL d   1      57.968  -0.602  31.099  0.00  0.00    -0.304 OA
ATOM      3  C   UNL d   1      57.687   0.682  30.853  0.00  0.00     0.030 A 
ATOM      4  C   UNL d   1      58.122  -0.452  30.298  0.00  0.00     0.100 A 
ATOM      5  C   UNL d   1      57.949   0.338  30.146  0.00  0.00     0.025 A 
ATOM      6  C   UNL d   1      58.400  -0.947  29.690  0.00  0.00     0.025 A 
ATOM      7  C   UNL d   1      58.049   0.655  29.384  0.00  0.00     0.002 A 
ATOM      8  C   UNL d   1      58.498  -0.630  28.935  0.00  0.00     0.002 A 
ATOM      9  C   UNL d   1      58.325   0.160  28.784  0.00  0.00     0.000 A 
ENDROOT
BRANCH   1  10
ATOM     10  C   UNL d   1      57.478   0.218  32.230  0.00  0.00     0.218 C 
ATOM     11  O   UNL d   1      57.965   0.646  32.751  0.00  0.00    -0.284 OA
BRANCH  10  12
ATOM     12  C   UNL d   1      56.774  -0.102  32.520  0.00  0.00     0.041 A 
ATOM     13  C   UNL d   1      56.166   0.417  32.739  0.00  0.00     0.003 A 
ATOM     14  C   UNL d   1      55.456   0.098  33.031  0.00  0.00     0.000 A 
ATOM     15  C   UNL d   1      55.360  -0.715  33.101  0.00  0.00     0.000 A 
ATOM     16  C   UNL d   1      55.972  -1.227  32.880  0.00  0.00     0.000 A 
ATOM     17  C   UNL d   1      56.678  -0.915  32.590  0.00  0.00     0.003 A 
ENDBRANCH  10  12
ENDBRANCH   1  10
TORSDOF 2
ENDMDL
MODEL 4
REMARK VINA RESULT:      -3.9      0.901      3.562
REMARK  2 active torsions:
REMARK  status: ('A' for Active; 'I' for Inactive)
REMARK    1  A    between atoms: C_4  and  C_1 
REMARK    2  A    between atoms: C_8  and  C_4 
ROOT
ATOM      1  C   UNL d   1      58.167  -0.249  30.027  0.00  0.00     0.139 A 
ATOM      2  O   UNL d   1      58.133  -1.050  29.813  0.00  0.00    -0.304 OA
ATOM      3  C   UNL d   1      58.896   0.047  29.846  0.00  0.00     0.030 A 
ATOM      4  C   UNL d   1      58.873  -1.240  29.490  0.00  0.00     0.100 A 
ATOM      5  C   UNL d   1      59.343  -0.564  29.510  0.00  0.00     0.025 A 
ATOM      6  C   UNL d   1      59.170  -1.951  29.181  0.00  0.00     0.025 A 
ATOM      7  C   UNL d   1      60.122  -0.582  29.222  0.00  0.00     0.002 A 
ATOM      8  C   UNL d   1      59.944  -1.967  28.895  0.00  0.00     0.002 A 
ATOM      9  C   UNL d   1      60.414  -1.291  28.915  0.00  0.00     0.000 A 
ENDROOT
BRANCH   1  10
ATOM     10  C   UNL d   1      57.534   0.180  30.379  0.00  0.00     0.218 C 
ATOM     11  O   UNL d   1      57.056   0.682  29.919  0.00  0.00    -0.284 OA
BRANCH  10  12
ATOM     12  C   UNL d   1      57.375   0.113  31.186  0.00  0.00     0.041 A 
ATOM     13  C   UNL d   1      57.715   0.664  31.703  0.00  0.00     0.003 A 
ATOM     14  C   UNL d   1      57.556   0.599  32.517  0.00  0.00     0.000 A 
ATOM     15  C   UNL d   1      57.071  -0.000  32.801  0.00  0.00     0.000 A 
ATOM     16  C   UNL d   1      56.734  -0.547  32.279  0.00  0.00     0.000 A 
ATOM     17  C   UNL d   1      56.889  -0.486  31.471  0.00  0.00     0.003 A 
ENDBRANCH  10  12
ENDBRANCH   1  10
TORSDOF 2
ENDMDL
MODEL 5
REMARK VINA RESULT:      -3.6      1.151      1.699
REMARK  2 active torsions:
REMARK  status: ('A' for Active; 'I' for Inactive)
REMARK    1  A    between atoms: C_4  and  C_1 
REMARK    2  A    between atoms: C_8  and  C_4 
ROOT
ATOM      1  C   UNL d   1      57.374   0.144  32.069  0.00  0.00     0.139 A 
ATOM      2  O   UNL d   1      56.861   0.682  32.438  0.00  0.00    -0.304 OA
ATOM      3  C   UNL d   1      57.098  -0.607  32.174  0.00  0.00     0.030 A 
ATOM      4  C   UNL d   1      56.253   0.232  32.778  0.00  0.00     0.100 A 
ATOM      5  C   UNL d   1      56.399  -0.562  32.615  0.00  0.00     0.025 A 
ATOM      6  C   UNL d   1      55.584   0.457  33.216  0.00  0.00     0.025 A 
ATOM      7  C   UNL d   1      55.879  -1.152  32.887  0.00  0.00     0.002 A 
ATOM      8  C   UNL d   1      55.070  -0.130  33.485  0.00  0.00     0.002 A 
ATOM      9  C   UNL d   1      55.215  -0.924  33.322  0.00  0.00     0.000 A 
ENDROOT
BRANCH   1  10
ATOM     10  C   UNL d   1      58.073   0.358  31.652  0.00  0.00     0.218 C 
ATOM     11  O   UNL d   1      58.725   0.680  32.055  0.00  0.00    -0.284 OA
BRANCH  10  12
ATOM     12  C   UNL d   1      58.126   0.254  30.834  0.00  0.00     0.041 A 
ATOM     13  C   UNL d   1      57.610   0.682  30.348  0.00  0.00     0.003 A 
ATOM     14  C   UNL d   1      57.661   0.579  29.524  0.00  0.00     0.000 A 
ATOM     15  C   UNL d   1      58.213   0.064  29.200  0.00  0.00     0.000 A 
ATOM     16  C   UNL d   1      58.726  -0.360  29.693  0.00  0.00     0.000 A 
ATOM     17  C   UNL d   1      58.678  -0.261  30.510  0.00  0.00     0.003 A 
ENDBRANCH  10  12
ENDBRANCH   1  10
TORSDOF 2
ENDMDL
MODEL 6
REMARK VINA RESULT:      -2.7      1.907      3.965
REMARK  2 active torsions:
REMARK  status: ('A' for Active; 'I' for Inactive)
REMARK    1  A    between atoms: C_4  and  C_1 
REMARK    2  A    between atoms: C_8  and  C_4 
ROOT
ATOM      1  C   UNL d   1      59.523  -1.091  29.024  0.00  0.00     0.139 A 
ATOM      2  O   UNL d   1      58.983  -1.678  28.795  0.00  0.00    -0.304 OA
ATOM      3  C   UNL d   1      60.236  -1.429  29.191  0.00  0.00     0.030 A 
ATOM      4  C   UNL d   1      59.393  -2.398  28.826  0.00  0.00     0.100 A 
ATOM      5  C   UNL d   1      60.164  -2.245  29.070  0.00  0.00     0.025 A 
ATOM      6  C   UNL d   1      59.149  -3.175  28.660  0.00  0.00     0.025 A 
ATOM      7  C   UNL d   1      60.712  -2.865  29.154  0.00  0.00     0.002 A 
ATOM      8  C   UNL d   1      59.695  -3.789  28.744  0.00  0.00     0.002 A 
ATOM      9  C   UNL d   1      60.466  -3.636  28.988  0.00  0.00     0.000 A 
ENDROOT
BRANCH   1  10
ATOM     10  C   UNL d   1      59.344  -0.269  29.073  0.00  0.00     0.218 C 
ATOM     11  O   UNL d   1      59.560   0.248  28.458  0.00  0.00    -0.284 OA
BRANCH  10  12
ATOM     12  C   UNL d   1      58.952   0.041  29.730  0.00  0.00     0.041 A 
ATOM     13  C   UNL d   1      59.404   0.369  30.341  0.00  0.00     0.003 A 
ATOM     14  C   UNL d   1      59.012   0.682  31.004  0.00  0.00     0.000 A 
ATOM     15  C   UNL d   1      58.192   0.665  31.052  0.00  0.00     0.000 A 
ATOM     16  C   UNL d   1      57.746   0.335  30.437  0.00  0.00     0.000 A 
ATOM     17  C   UNL d   1      58.132   0.023  29.777  0.00  0.00     0.003 A 
ENDBRANCH  10  12
ENDBRANCH   1  10
TORSDOF 2
ENDMDL
