MODEL 1
REMARK VINA RESULT:      89.2      0.000      0.000
REMARK  4 active torsions:
REMARK  status: ('A' for Active; 'I' for Inactive)
REMARK    1  A    between atoms: C_2  and  S_1 
REMARK    2  A    between atoms: N_7  and  S_1 
REMARK    3  A    between atoms: C_3  and  C_12 
REMARK    4  A    between atoms: C_15  and  N_7 
ROOT
ATOM      1  C   UNL d   1      60.973  47.172  50.337  0.00  0.00     0.024 A 
ATOM      2  C   UNL d   1      60.265  48.619  50.735  0.00  0.00     0.094 A 
ATOM      3  C   UNL d   1      61.094  47.845  49.877  0.00  0.00     0.004 A 
ATOM      4  C   UNL d   1      60.490  47.221  51.007  0.00  0.00     0.004 A 
ATOM      5  C   UNL d   1      60.746  48.557  50.074  0.00  0.00     0.020 A 
ATOM      6  C   UNL d   1      60.138  47.935  51.207  0.00  0.00     0.020 A 
ENDROOT
BRANCH   2   7
ATOM      7  N   UNL d   1      59.915  49.328  50.935  0.00  0.00    -0.158 NA
BRANCH   7   8
ATOM      8  S   UNL d   1      59.093  49.417  50.865  0.00  0.00     0.287 S 
ATOM      9  O   UNL d   1      59.185  49.704  50.098  0.00  0.00    -0.198 OA
ATOM     10  O   UNL d   1      58.999  49.132  51.631  0.00  0.00    -0.198 OA
BRANCH   8  11
ATOM     11  C   UNL d   1      58.278  49.508  50.790  0.00  0.00     0.135 A 
ATOM     12  C   UNL d   1      57.918  49.505  50.054  0.00  0.00     0.045 A 
ATOM     13  C   UNL d   1      57.108  49.595  49.981  0.00  0.00     0.141 A 
ATOM     14  F   UNL d   1      56.753  49.591  49.238  0.00  0.00    -0.204 F 
ATOM     15  C   UNL d   1      56.647  49.690  50.659  0.00  0.00     0.032 A 
ATOM     16  C   UNL d   1      56.996  49.695  51.409  0.00  0.00     0.033 A 
ATOM     17  C   UNL d   1      57.817  49.603  51.467  0.00  0.00     0.152 A 
ATOM     18  F   UNL d   1      58.171  49.608  52.220  0.00  0.00    -0.203 F 
ENDBRANCH   8  11
ENDBRANCH   7   8
ENDBRANCH   2   7
BRANCH   1  19
ATOM     19  C   UNL d   1      61.325  46.453  50.139  0.00  0.00     0.112 A 
ATOM     20  S   UNL d   1      61.843  46.333  49.514  0.00  0.00    -0.047 SA
ATOM     21  C   UNL d   1      62.067  45.524  49.512  0.00  0.00     0.130 A 
ATOM     22  N   UNL d   1      62.566  45.088  49.023  0.00  0.00    -0.236 NA
ATOM     23  C   UNL d   1      61.674  45.157  50.149  0.00  0.00     0.106 A 
ATOM     24  C   UNL d   1      62.674  44.281  49.171  0.00  0.00     0.100 A 
ATOM     25  C   UNL d   1      62.286  43.912  49.803  0.00  0.00     0.022 A 
ATOM     26  C   UNL d   1      61.788  44.350  50.289  0.00  0.00     0.023 A 
ATOM     27  N   UNL d   1      61.214  45.736  50.537  0.00  0.00    -0.237 NA
ENDBRANCH   1  19
TORSDOF 4
ENDMDL
