MODEL 1
REMARK VINA RESULT:      20.5      0.000      0.000
REMARK  1 active torsions:
REMARK  status: ('A' for Active; 'I' for Inactive)
REMARK    1  A    between atoms: C_8  and  C_1 
ROOT
ATOM      1  C   UNL d   1     -51.236  24.878  33.323  0.00  0.00     0.010 A 
ATOM      2  C   UNL d   1     -51.944  24.449  33.319  0.00  0.00     0.062 A 
ATOM      3  C   UNL d   1     -52.668  24.854  33.310  0.00  0.00     0.106 A 
ATOM      4  C   UNL d   1     -51.935  23.627  33.323  0.00  0.00     0.198 A 
ATOM      5  O   UNL d   1     -52.680  25.676  33.306  0.00  0.00    -0.273 OA
ATOM      6  C   UNL d   1     -51.245  25.700  33.319  0.00  0.00     0.069 A 
ATOM      7  C   UNL d   1     -51.966  26.103  33.310  0.00  0.00     0.300 A 
ATOM      8  C   UNL d   1     -53.375  24.432  33.306  0.00  0.00     0.025 A 
ATOM      9  C   UNL d   1     -52.641  23.202  33.319  0.00  0.00     0.042 A 
ATOM     10  O   UNL d   1     -51.979  26.932  33.306  0.00  0.00    -0.259 OA
ATOM     11  C   UNL d   1     -53.362  23.604  33.311  0.00  0.00     0.005 A 
ATOM     12  O   UNL d   1     -51.211  23.223  33.332  0.00  0.00    -0.286 OA
ATOM     13  C   UNL d   1     -54.071  23.188  33.306  0.00  0.00     0.000 C 
ENDROOT
BRANCH   1  14
ATOM     14  C   UNL d   1     -50.513  24.474  33.332  0.00  0.00     0.000 A 
ATOM     15  C   UNL d   1     -49.802  24.901  33.306  0.00  0.00     0.000 A 
ATOM     16  C   UNL d   1     -49.070  24.492  33.315  0.00  0.00     0.000 A 
ATOM     17  C   UNL d   1     -49.058  23.671  33.349  0.00  0.00     0.000 A 
ATOM     18  C   UNL d   1     -49.780  23.249  33.375  0.00  0.00     0.000 A 
ATOM     19  C   UNL d   1     -50.501  23.651  33.366  0.00  0.00     0.000 A 
ENDBRANCH   1  14
TORSDOF 1
ENDMDL
