MODEL 1
REMARK VINA RESULT:      46.2      0.000      0.000
REMARK  4 active torsions:
REMARK  status: ('A' for Active; 'I' for Inactive)
REMARK    1  A    between atoms: C_3  and  N_1 
REMARK       I    between atoms: C_2  and  N_5 
REMARK       I    between atoms: N_4  and  C_2 
REMARK    2  A    between atoms: C_17  and  N_4 
REMARK    3  A    between atoms: N_5  and  C_16 
REMARK    4  A    between atoms: C_8  and  C_9 
ROOT
ATOM      1  C   UNL d   1      13.508  13.399  -4.012  0.00  0.00     0.369 C 
ATOM      2  N   UNL d   1      13.303  13.615  -4.802  0.00  0.00    -0.191 NA
ATOM      3  N   UNL d   1      13.424  12.640  -3.759  0.00  0.00    -0.191 NA
ATOM      4  O   UNL d   1      13.792  13.991  -3.523  0.00  0.00    -0.242 OA
ENDROOT
BRANCH   3   5
ATOM      5  C   UNL d   1      13.640  12.463  -2.959  0.00  0.00     0.086 A 
ATOM      6  C   UNL d   1      14.336  12.772  -2.636  0.00  0.00     0.021 A 
ATOM      7  C   UNL d   1      14.560  12.608  -1.858  0.00  0.00     0.025 A 
ATOM      8  C   UNL d   1      14.060  12.125  -1.424  0.00  0.00     0.127 A 
ATOM      9  C   UNL d   1      13.342  11.792  -1.719  0.00  0.00     0.025 A 
ATOM     10  C   UNL d   1      13.160  11.983  -2.501  0.00  0.00     0.021 A 
BRANCH   8  11
ATOM     11  N   UNL d   1      14.300  11.953  -0.597  0.00  0.00    -0.114 N 
ATOM     12  O   UNL d   1      15.103  11.922  -0.413  0.00  0.00    -0.532 OA
ATOM     13  O   UNL d   1      13.725  11.823  -0.014  0.00  0.00    -0.532 OA
ENDBRANCH   8  11
ENDBRANCH   3   5
BRANCH   2  14
ATOM     14  C   UNL d   1      13.384  14.388  -5.074  0.00  0.00     0.086 A 
ATOM     15  C   UNL d   1      14.039  14.597  -5.531  0.00  0.00     0.019 A 
ATOM     16  C   UNL d   1      14.119  15.356  -5.799  0.00  0.00     0.005 A 
ATOM     17  C   UNL d   1      13.545  15.952  -5.624  0.00  0.00     0.039 A 
ATOM     18  C   UNL d   1      12.901  15.728  -5.170  0.00  0.00     0.005 A 
ATOM     19  C   UNL d   1      12.820  14.950  -4.896  0.00  0.00     0.019 A 
BRANCH  17  20
ATOM     20  C   UNL d   1      13.603  16.709  -5.878  0.00  0.00     0.196 C 
ATOM     21  O   UNL d   1      12.944  17.122  -6.081  0.00  0.00    -0.287 OA
ATOM     22  C   UNL d   1      14.332  17.077  -5.936  0.00  0.00     0.045 C 
ENDBRANCH  17  20
ENDBRANCH   2  14
TORSDOF 4
ENDMDL
MODEL 2
REMARK VINA RESULT:      46.8      2.749      3.878
REMARK  4 active torsions:
REMARK  status: ('A' for Active; 'I' for Inactive)
REMARK    1  A    between atoms: C_3  and  N_1 
REMARK       I    between atoms: C_2  and  N_5 
REMARK       I    between atoms: N_4  and  C_2 
REMARK    2  A    between atoms: C_17  and  N_4 
REMARK    3  A    between atoms: N_5  and  C_16 
REMARK    4  A    between atoms: C_8  and  C_9 
ROOT
ATOM      1  C   UNL d   1      14.154  13.752  -2.101  0.00  0.00     0.369 C 
ATOM      2  N   UNL d   1      13.782  13.021  -2.305  0.00  0.00    -0.191 NA
ATOM      3  N   UNL d   1      14.224  13.976  -1.332  0.00  0.00    -0.191 NA
ATOM      4  O   UNL d   1      14.435  14.212  -2.717  0.00  0.00    -0.242 OA
ENDROOT
BRANCH   3   5
ATOM      5  C   UNL d   1      14.604  14.717  -1.169  0.00  0.00     0.086 A 
ATOM      6  C   UNL d   1      15.136  14.783  -0.539  0.00  0.00     0.021 A 
ATOM      7  C   UNL d   1      15.513  15.498  -0.368  0.00  0.00     0.025 A 
ATOM      8  C   UNL d   1      15.335  16.135  -0.852  0.00  0.00     0.127 A 
ATOM      9  C   UNL d   1      14.798  16.104  -1.504  0.00  0.00     0.025 A 
ATOM     10  C   UNL d   1      14.445  15.370  -1.637  0.00  0.00     0.021 A 
BRANCH   8  11
ATOM     11  N   UNL d   1      15.738  16.893  -0.668  0.00  0.00    -0.114 N 
ATOM     12  O   UNL d   1      16.512  16.876  -0.387  0.00  0.00    -0.532 OA
ATOM     13  O   UNL d   1      15.341  17.613  -0.778  0.00  0.00    -0.532 OA
ENDBRANCH   8  11
ENDBRANCH   3   5
BRANCH   2  14
ATOM     14  C   UNL d   1      13.703  12.778  -3.087  0.00  0.00     0.086 A 
ATOM     15  C   UNL d   1      13.427  12.019  -3.256  0.00  0.00     0.019 A 
ATOM     16  C   UNL d   1      13.349  11.780  -4.025  0.00  0.00     0.005 A 
ATOM     17  C   UNL d   1      13.545  12.290  -4.671  0.00  0.00     0.039 A 
ATOM     18  C   UNL d   1      13.818  13.039  -4.486  0.00  0.00     0.005 A 
ATOM     19  C   UNL d   1      13.897  13.283  -3.698  0.00  0.00     0.019 A 
BRANCH  17  20
ATOM     20  C   UNL d   1      13.476  12.075  -5.440  0.00  0.00     0.196 C 
ATOM     21  O   UNL d   1      12.770  12.139  -5.819  0.00  0.00    -0.287 OA
ATOM     22  C   UNL d   1      14.121  11.786  -5.854  0.00  0.00     0.045 C 
ENDBRANCH  17  20
ENDBRANCH   2  14
TORSDOF 4
ENDMDL
