MODEL 1
REMARK VINA RESULT:      -2.7      0.000      0.000
REMARK  5 active torsions:
REMARK  status: ('A' for Active; 'I' for Inactive)
REMARK    1  A    between atoms: N_2  and  S_1 
REMARK    2  A    between atoms: C_3  and  S_1 
REMARK    3  A    between atoms: C_4  and  N_2 
REMARK    4  A    between atoms: C_5  and  C_4 
REMARK       I    between atoms: C_8  and  N_9 
REMARK    5  A    between atoms: N_9  and  C_14 
ROOT
ATOM      1  C   UNL d   1      31.273  16.542 -23.967  0.00  0.00     0.105 A 
ATOM      2  C   UNL d   1      31.053  15.978 -23.395  0.00  0.00     0.015 A 
ATOM      3  C   UNL d   1      30.751  16.740 -24.571  0.00  0.00     0.015 A 
ATOM      4  C   UNL d   1      29.791  15.816 -24.038  0.00  0.00     0.085 A 
ATOM      5  C   UNL d   1      30.009  16.375 -24.604  0.00  0.00     0.020 A 
ATOM      6  C   UNL d   1      30.314  15.617 -23.432  0.00  0.00     0.020 A 
ENDROOT
BRANCH   1   7
ATOM      7  S   UNL d   1      32.012  16.901 -23.929  0.00  0.00     0.285 S 
ATOM      8  O   UNL d   1      32.671  16.528 -24.257  0.00  0.00    -0.198 OA
ATOM      9  O   UNL d   1      31.505  17.431 -23.549  0.00  0.00    -0.198 OA
BRANCH   7  10
ATOM     10  N   UNL d   1      32.103  17.638 -23.562  0.00  0.00    -0.150 NA
BRANCH  10  11
ATOM     11  C   UNL d   1      32.852  17.958 -23.447  0.00  0.00     0.182 C 
BRANCH  11  12
ATOM     12  C   UNL d   1      32.942  18.694 -23.091  0.00  0.00     0.232 C 
ATOM     13  O   UNL d   1      33.046  18.739 -22.273  0.00  0.00    -0.643 OA
ATOM     14  O   UNL d   1      32.930  19.382 -23.543  0.00  0.00    -0.643 OA
ENDBRANCH  11  12
ENDBRANCH  10  11
ENDBRANCH   7  10
ENDBRANCH   1   7
BRANCH   4  15
ATOM     15  N   UNL d   1      29.048  15.456 -24.077  0.00  0.00    -0.208 NA
ATOM     16  C   UNL d   1      28.397  15.815 -23.724  0.00  0.00     0.279 C 
ATOM     17  O   UNL d   1      28.485  16.535 -23.331  0.00  0.00    -0.265 OA
ATOM     18  C   UNL d   1      27.650  15.455 -23.763  0.00  0.00     0.068 C 
ENDBRANCH   4  15
TORSDOF 5
ENDMDL
MODEL 2
REMARK VINA RESULT:      -2.3      2.662      5.089
REMARK  5 active torsions:
REMARK  status: ('A' for Active; 'I' for Inactive)
REMARK    1  A    between atoms: N_2  and  S_1 
REMARK    2  A    between atoms: C_3  and  S_1 
REMARK    3  A    between atoms: C_4  and  N_2 
REMARK    4  A    between atoms: C_5  and  C_4 
REMARK       I    between atoms: C_8  and  N_9 
REMARK    5  A    between atoms: N_9  and  C_14 
ROOT
ATOM      1  C   UNL d   1      33.113  19.709 -22.685  0.00  0.00     0.105 A 
ATOM      2  C   UNL d   1      33.156  19.545 -21.870  0.00  0.00     0.015 A 
ATOM      3  C   UNL d   1      33.111  20.488 -22.949  0.00  0.00     0.015 A 
ATOM      4  C   UNL d   1      33.194  20.942 -21.591  0.00  0.00     0.085 A 
ATOM      5  C   UNL d   1      33.151  21.104 -22.398  0.00  0.00     0.020 A 
ATOM      6  C   UNL d   1      33.197  20.161 -21.326  0.00  0.00     0.020 A 
ENDROOT
BRANCH   1   7
ATOM      7  S   UNL d   1      33.072  19.091 -23.229  0.00  0.00     0.285 S 
ATOM      8  O   UNL d   1      33.241  19.230 -24.024  0.00  0.00    -0.198 OA
ATOM      9  O   UNL d   1      32.871  18.745 -22.506  0.00  0.00    -0.198 OA
BRANCH   7  10
ATOM     10  N   UNL d   1      32.863  18.329 -22.983  0.00  0.00    -0.150 NA
BRANCH  10  11
ATOM     11  C   UNL d   1      32.798  17.717 -23.529  0.00  0.00     0.182 C 
BRANCH  11  12
ATOM     12  C   UNL d   1      32.561  16.966 -23.291  0.00  0.00     0.232 C 
ATOM     13  O   UNL d   1      31.759  16.772 -23.301  0.00  0.00    -0.643 OA
ATOM     14  O   UNL d   1      33.117  16.412 -23.044  0.00  0.00    -0.643 OA
ENDBRANCH  11  12
ENDBRANCH  10  11
ENDBRANCH   7  10
ENDBRANCH   1   7
BRANCH   4  15
ATOM     15  N   UNL d   1      33.235  21.563 -21.046  0.00  0.00    -0.208 NA
ATOM     16  C   UNL d   1      32.543  21.881 -20.733  0.00  0.00     0.279 C 
ATOM     17  O   UNL d   1      31.809  21.581 -20.962  0.00  0.00    -0.265 OA
ATOM     18  C   UNL d   1      32.582  22.505 -20.186  0.00  0.00     0.068 C 
ENDBRANCH   4  15
TORSDOF 5
ENDMDL
MODEL 3
REMARK VINA RESULT:      -1.9      1.257      4.009
REMARK  5 active torsions:
REMARK  status: ('A' for Active; 'I' for Inactive)
REMARK    1  A    between atoms: N_2  and  S_1 
REMARK    2  A    between atoms: C_3  and  S_1 
REMARK    3  A    between atoms: C_4  and  N_2 
REMARK    4  A    between atoms: C_5  and  C_4 
REMARK       I    between atoms: C_8  and  N_9 
REMARK    5  A    between atoms: N_9  and  C_14 
ROOT
ATOM      1  C   UNL d   1      32.026  17.234 -24.100  0.00  0.00     0.105 A 
ATOM      2  C   UNL d   1      32.422  17.185 -23.369  0.00  0.00     0.015 A 
ATOM      3  C   UNL d   1      32.028  17.939 -24.523  0.00  0.00     0.015 A 
ATOM      4  C   UNL d   1      32.819  18.548 -23.492  0.00  0.00     0.085 A 
ATOM      5  C   UNL d   1      32.426  18.597 -24.216  0.00  0.00     0.020 A 
ATOM      6  C   UNL d   1      32.817  17.841 -23.068  0.00  0.00     0.020 A 
ENDROOT
BRANCH   1   7
ATOM      7  S   UNL d   1      31.632  16.576 -24.400  0.00  0.00     0.285 S 
ATOM      8  O   UNL d   1      32.062  15.941 -24.704  0.00  0.00    -0.198 OA
ATOM      9  O   UNL d   1      31.029  17.083 -24.152  0.00  0.00    -0.198 OA
BRANCH   7  10
ATOM     10  N   UNL d   1      30.804  16.546 -24.399  0.00  0.00    -0.150 NA
BRANCH  10  11
ATOM     11  C   UNL d   1      30.413  15.845 -24.578  0.00  0.00     0.182 C 
BRANCH  11  12
ATOM     12  C   UNL d   1      29.595  15.790 -24.498  0.00  0.00     0.232 C 
ATOM     13  O   UNL d   1      29.276  15.453 -23.816  0.00  0.00    -0.643 OA
ATOM     14  O   UNL d   1      29.098  16.068 -25.093  0.00  0.00    -0.643 OA
ENDBRANCH  11  12
ENDBRANCH  10  11
ENDBRANCH   7  10
ENDBRANCH   1   7
BRANCH   4  15
ATOM     15  N   UNL d   1      33.214  19.210 -23.191  0.00  0.00    -0.208 NA
ATOM     16  C   UNL d   1      32.842  19.696 -22.641  0.00  0.00     0.279 C 
ATOM     17  O   UNL d   1      32.076  19.525 -22.389  0.00  0.00    -0.265 OA
ATOM     18  C   UNL d   1      33.238  20.361 -22.338  0.00  0.00     0.068 C 
ENDBRANCH   4  15
TORSDOF 5
ENDMDL
MODEL 4
REMARK VINA RESULT:      -1.7      1.220      3.986
REMARK  5 active torsions:
REMARK  status: ('A' for Active; 'I' for Inactive)
REMARK    1  A    between atoms: N_2  and  S_1 
REMARK    2  A    between atoms: C_3  and  S_1 
REMARK    3  A    between atoms: C_4  and  N_2 
REMARK    4  A    between atoms: C_5  and  C_4 
REMARK       I    between atoms: C_8  and  N_9 
REMARK    5  A    between atoms: N_9  and  C_14 
ROOT
ATOM      1  C   UNL d   1      30.980  16.605 -24.198  0.00  0.00     0.105 A 
ATOM      2  C   UNL d   1      30.904  17.300 -24.651  0.00  0.00     0.015 A 
ATOM      3  C   UNL d   1      31.644  16.491 -23.726  0.00  0.00     0.015 A 
ATOM      4  C   UNL d   1      32.158  17.760 -24.155  0.00  0.00     0.085 A 
ATOM      5  C   UNL d   1      32.233  17.071 -23.707  0.00  0.00     0.020 A 
ATOM      6  C   UNL d   1      31.493  17.874 -24.628  0.00  0.00     0.020 A 
ENDROOT
BRANCH   1   7
ATOM      7  S   UNL d   1      30.390  16.031 -24.222  0.00  0.00     0.285 S 
ATOM      8  O   UNL d   1      30.391  15.462 -24.819  0.00  0.00    -0.198 OA
ATOM      9  O   UNL d   1      30.205  16.490 -23.560  0.00  0.00    -0.198 OA
BRANCH   7  10
ATOM     10  N   UNL d   1      29.791  16.019 -23.649  0.00  0.00    -0.150 NA
BRANCH  10  11
ATOM     11  C   UNL d   1      29.118  15.559 -23.759  0.00  0.00     0.182 C 
BRANCH  11  12
ATOM     12  C   UNL d   1      28.479  15.625 -23.245  0.00  0.00     0.232 C 
ATOM     13  O   UNL d   1      28.607  15.582 -22.431  0.00  0.00    -0.643 OA
ATOM     14  O   UNL d   1      27.717  15.732 -23.537  0.00  0.00    -0.643 OA
ENDBRANCH  11  12
ENDBRANCH  10  11
ENDBRANCH   7  10
ENDBRANCH   1   7
BRANCH   4  15
ATOM     15  N   UNL d   1      32.752  18.336 -24.130  0.00  0.00    -0.208 NA
ATOM     16  C   UNL d   1      32.646  19.015 -23.678  0.00  0.00     0.279 C 
ATOM     17  O   UNL d   1      31.950  19.122 -23.249  0.00  0.00    -0.265 OA
ATOM     18  C   UNL d   1      33.241  19.594 -23.652  0.00  0.00     0.068 C 
ENDBRANCH   4  15
TORSDOF 5
ENDMDL
MODEL 5
REMARK VINA RESULT:      -1.1      5.110      7.432
REMARK  5 active torsions:
REMARK  status: ('A' for Active; 'I' for Inactive)
REMARK    1  A    between atoms: N_2  and  S_1 
REMARK    2  A    between atoms: C_3  and  S_1 
REMARK    3  A    between atoms: C_4  and  N_2 
REMARK    4  A    between atoms: C_5  and  C_4 
REMARK       I    between atoms: C_8  and  N_9 
REMARK    5  A    between atoms: N_9  and  C_14 
ROOT
ATOM      1  C   UNL d   1      32.654  22.340 -20.435  0.00  0.00     0.105 A 
ATOM      2  C   UNL d   1      33.225  22.173 -19.852  0.00  0.00     0.015 A 
ATOM      3  C   UNL d   1      32.106  22.941 -20.315  0.00  0.00     0.015 A 
ATOM      4  C   UNL d   1      32.691  23.210 -19.033  0.00  0.00     0.085 A 
ATOM      5  C   UNL d   1      32.126  23.376 -19.611  0.00  0.00     0.020 A 
ATOM      6  C   UNL d   1      33.241  22.608 -19.153  0.00  0.00     0.020 A 
ENDROOT
BRANCH   1   7
ATOM      7  S   UNL d   1      32.639  21.904 -21.133  0.00  0.00     0.285 S 
ATOM      8  O   UNL d   1      32.422  22.266 -21.842  0.00  0.00    -0.198 OA
ATOM      9  O   UNL d   1      32.878  21.363 -20.557  0.00  0.00    -0.198 OA
BRANCH   7  10
ATOM     10  N   UNL d   1      32.842  21.101 -21.132  0.00  0.00    -0.150 NA
BRANCH  10  11
ATOM     11  C   UNL d   1      32.775  20.652 -21.818  0.00  0.00     0.182 C 
BRANCH  11  12
ATOM     12  C   UNL d   1      32.998  19.860 -21.824  0.00  0.00     0.232 C 
ATOM     13  O   UNL d   1      32.984  19.440 -22.534  0.00  0.00    -0.643 OA
ATOM     14  O   UNL d   1      33.235  19.488 -21.129  0.00  0.00    -0.643 OA
ENDBRANCH  11  12
ENDBRANCH  10  11
ENDBRANCH   7  10
ENDBRANCH   1   7
BRANCH   4  15
ATOM     15  N   UNL d   1      32.706  23.649 -18.332  0.00  0.00    -0.208 NA
ATOM     16  C   UNL d   1      32.766  23.263 -17.607  0.00  0.00     0.279 C 
ATOM     17  O   UNL d   1      32.812  22.440 -17.578  0.00  0.00    -0.265 OA
ATOM     18  C   UNL d   1      32.780  23.702 -16.902  0.00  0.00     0.068 C 
ENDBRANCH   4  15
TORSDOF 5
ENDMDL
MODEL 6
REMARK VINA RESULT:      -0.8      4.519      6.444
REMARK  5 active torsions:
REMARK  status: ('A' for Active; 'I' for Inactive)
REMARK    1  A    between atoms: N_2  and  S_1 
REMARK    2  A    between atoms: C_3  and  S_1 
REMARK    3  A    between atoms: C_4  and  N_2 
REMARK    4  A    between atoms: C_5  and  C_4 
REMARK       I    between atoms: C_8  and  N_9 
REMARK    5  A    between atoms: N_9  and  C_14 
ROOT
ATOM      1  C   UNL d   1      32.896  21.805 -20.614  0.00  0.00     0.105 A 
ATOM      2  C   UNL d   1      33.241  21.136 -20.256  0.00  0.00     0.015 A 
ATOM      3  C   UNL d   1      32.544  21.740 -21.354  0.00  0.00     0.015 A 
ATOM      4  C   UNL d   1      32.878  20.345 -21.385  0.00  0.00     0.085 A 
ATOM      5  C   UNL d   1      32.536  21.007 -21.739  0.00  0.00     0.020 A 
ATOM      6  C   UNL d   1      33.231  20.409 -20.643  0.00  0.00     0.020 A 
ENDROOT
BRANCH   1   7
ATOM      7  S   UNL d   1      32.907  22.531 -20.226  0.00  0.00     0.285 S 
ATOM      8  O   UNL d   1      33.241  23.190 -20.593  0.00  0.00    -0.198 OA
ATOM      9  O   UNL d   1      32.535  22.018 -19.695  0.00  0.00    -0.198 OA
BRANCH   7  10
ATOM     10  N   UNL d   1      32.583  22.607 -19.467  0.00  0.00    -0.150 NA
BRANCH  10  11
ATOM     11  C   UNL d   1      32.776  23.252 -18.994  0.00  0.00     0.182 C 
BRANCH  11  12
ATOM     12  C   UNL d   1      32.577  23.260 -18.196  0.00  0.00     0.232 C 
ATOM     13  O   UNL d   1      31.783  23.311 -17.977  0.00  0.00    -0.643 OA
ATOM     14  O   UNL d   1      33.163  23.217 -17.619  0.00  0.00    -0.643 OA
ENDBRANCH  11  12
ENDBRANCH  10  11
ENDBRANCH   7  10
ENDBRANCH   1   7
BRANCH   4  15
ATOM     15  N   UNL d   1      32.867  19.616 -21.775  0.00  0.00    -0.208 NA
ATOM     16  C   UNL d   1      32.909  19.589 -22.597  0.00  0.00     0.279 C 
ATOM     17  O   UNL d   1      32.963  20.288 -23.032  0.00  0.00    -0.265 OA
ATOM     18  C   UNL d   1      32.898  18.858 -22.991  0.00  0.00     0.068 C 
ENDBRANCH   4  15
TORSDOF 5
ENDMDL
