MODEL 1
REMARK VINA RESULT:       1.0      0.000      0.000
REMARK  8 active torsions:
REMARK  status: ('A' for Active; 'I' for Inactive)
REMARK    1  A    between atoms: C_6  and  C_1 
REMARK    2  A    between atoms: C_8  and  C_2 
REMARK    3  A    between atoms: S_10  and  C_3 
REMARK    4  A    between atoms: C_15  and  C_4 
REMARK       I    between atoms: N_9  and  C_6 
REMARK    5  A    between atoms: C_19  and  N_9 
REMARK    6  A    between atoms: C_18  and  S_10 
REMARK    7  A    between atoms: C_12  and  C_18 
REMARK       I    between atoms: N_14  and  C_12 
REMARK    8  A    between atoms: C_21  and  N_14 
ROOT
ATOM      1  C   UNL d   1      58.526  -1.332  30.139  0.00  0.00     0.076 A 
ATOM      2  C   UNL d   1      58.771  -0.037  30.670  0.00  0.00     0.045 A 
ATOM      3  C   UNL d   1      58.089  -0.104  31.148  0.00  0.00     0.112 A 
ATOM      4  C   UNL d   1      58.982  -0.652  30.170  0.00  0.00     0.010 A 
ATOM      5  C   UNL d   1      57.844  -1.399  30.617  0.00  0.00     0.087 A 
ATOM      6  N   UNL d   1      57.629  -0.785  31.119  0.00  0.00    -0.239 NA
ATOM      7  C   UNL d   1      57.363  -2.106  30.588  0.00  0.00     0.021 C 
ENDROOT
BRANCH   3   8
ATOM      8  S   UNL d   1      57.864   0.534  31.671  0.00  0.00    -0.062 SA
BRANCH   8   9
ATOM      9  C   UNL d   1      57.342   0.386  32.324  0.00  0.00     0.099 C 
BRANCH   9  10
ATOM     10  C   UNL d   1      57.615   0.464  33.111  0.00  0.00     0.286 C 
ATOM     11  N   UNL d   1      57.098   0.350  33.738  0.00  0.00    -0.208 NA
ATOM     12  O   UNL d   1      58.414   0.657  33.259  0.00  0.00    -0.265 OA
BRANCH  11  13
ATOM     13  C   UNL d   1      56.317   0.161  33.593  0.00  0.00     0.085 A 
ATOM     14  C   UNL d   1      55.873   0.658  33.138  0.00  0.00     0.019 A 
ATOM     15  C   UNL d   1      55.087   0.471  32.990  0.00  0.00     0.002 A 
ATOM     16  C   UNL d   1      54.753  -0.218  33.303  0.00  0.00     0.000 A 
ATOM     17  C   UNL d   1      55.214  -0.707  33.759  0.00  0.00     0.002 A 
ATOM     18  C   UNL d   1      55.996  -0.517  33.904  0.00  0.00     0.019 A 
ENDBRANCH  11  13
ENDBRANCH   9  10
ENDBRANCH   8   9
ENDBRANCH   3   8
BRANCH   2  19
ATOM     19  C   UNL d   1      59.252   0.670  30.698  0.00  0.00     0.124 C 
ATOM     20  N   UNL d   1      59.996   0.664  31.106  0.00  0.00    -0.146 N 
ENDBRANCH   2  19
BRANCH   4  21
ATOM     21  C   UNL d   1      59.664  -0.586  29.692  0.00  0.00     0.003 A 
ATOM     22  C   UNL d   1      59.609  -0.276  28.933  0.00  0.00     0.021 A 
ATOM     23  C   UNL d   1      60.290  -0.210  28.455  0.00  0.00     0.099 A 
ATOM     24  N   UNL d   1      61.025  -0.453  28.739  0.00  0.00    -0.242 NA
ATOM     25  C   UNL d   1      61.077  -0.762  29.501  0.00  0.00     0.099 A 
ATOM     26  C   UNL d   1      60.396  -0.829  29.979  0.00  0.00     0.021 A 
ENDBRANCH   4  21
BRANCH   1  27
ATOM     27  C   UNL d   1      58.751  -1.970  29.616  0.00  0.00     0.281 C 
ATOM     28  N   UNL d   1      59.010  -2.713  29.936  0.00  0.00    -0.208 NA
ATOM     29  O   UNL d   1      58.713  -1.853  28.775  0.00  0.00    -0.265 OA
BRANCH  28  30
ATOM     30  C   UNL d   1      59.223  -3.316  29.455  0.00  0.00     0.085 A 
ATOM     31  C   UNL d   1      58.688  -3.662  28.962  0.00  0.00     0.019 A 
ATOM     32  C   UNL d   1      58.892  -4.291  28.455  0.00  0.00     0.002 A 
ATOM     33  C   UNL d   1      59.663  -4.564  28.460  0.00  0.00     0.000 A 
ATOM     34  C   UNL d   1      60.212  -4.213  28.962  0.00  0.00     0.002 A 
ATOM     35  C   UNL d   1      60.007  -3.590  29.463  0.00  0.00     0.019 A 
ENDBRANCH  28  30
ENDBRANCH   1  27
TORSDOF 8
ENDMDL
