MODEL 1
REMARK VINA RESULT:      52.9      0.000      0.000
REMARK  5 active torsions:
REMARK  status: ('A' for Active; 'I' for Inactive)
REMARK    1  A    between atoms: C_10  and  N_1 
REMARK    2  A    between atoms: C_7  and  C_4 
REMARK    3  A    between atoms: O_16  and  C_9 
REMARK    4  A    between atoms: C_15  and  C_10 
REMARK    5  A    between atoms: O_17  and  C_11 
ROOT
ATOM      1  N   UNL d   1     -55.777 -99.387 -44.061  0.00  0.00    -0.193 N 
ATOM      2  N   UNL d   1     -55.667 -99.956 -43.471  0.00  0.00    -0.163 NA
ATOM      3  C   UNL d   1     -55.375 -99.464 -44.767  0.00  0.00     0.281 A 
ATOM      4  C   UNL d   1     -55.157-100.591 -43.601  0.00  0.00     0.102 A 
ATOM      5  C   UNL d   1     -54.867-100.088 -44.908  0.00  0.00     0.064 A 
ATOM      6  C   UNL d   1     -54.757-100.658 -44.319  0.00  0.00     0.026 A 
ATOM      7  O   UNL d   1     -55.485 -98.895 -45.356  0.00  0.00    -0.265 OA
ENDROOT
BRANCH   4   8
ATOM      8  C   UNL d   1     -55.048-101.152 -43.021  0.00  0.00     0.021 A 
ATOM      9  C   UNL d   1     -54.973-100.922 -42.220  0.00  0.00     0.028 A 
ATOM     10  C   UNL d   1     -54.864-101.491 -41.643  0.00  0.00     0.116 A 
ATOM     11  C   UNL d   1     -54.828-102.291 -41.842  0.00  0.00     0.116 A 
ATOM     12  C   UNL d   1     -54.904-102.527 -42.642  0.00  0.00     0.026 A 
ATOM     13  C   UNL d   1     -55.013-101.952 -43.220  0.00  0.00     0.004 A 
BRANCH  10  14
ATOM     14  O   UNL d   1     -54.790-101.264 -40.856  0.00  0.00    -0.326 OA
ATOM     15  C   UNL d   1     -54.765-100.468 -40.651  0.00  0.00     0.181 C 
ENDBRANCH  10  14
BRANCH  11  16
ATOM     16  O   UNL d   1     -54.719-102.869 -41.261  0.00  0.00    -0.326 OA
ATOM     17  C   UNL d   1     -55.099-102.787 -40.534  0.00  0.00     0.181 C 
ENDBRANCH  11  16
ENDBRANCH   4   8
BRANCH   1  18
ATOM     18  C   UNL d   1     -56.286 -98.757 -43.925  0.00  0.00     0.104 C 
BRANCH  18  19
ATOM     19  C   UNL d   1     -57.089 -98.854 -44.048  0.00  0.00     0.019 A 
ATOM     20  C   UNL d   1     -57.612 -98.825 -43.410  0.00  0.00     0.002 A 
ATOM     21  C   UNL d   1     -58.419 -98.922 -43.534  0.00  0.00     0.000 A 
ATOM     22  C   UNL d   1     -58.698 -99.049 -44.307  0.00  0.00     0.000 A 
ATOM     23  C   UNL d   1     -58.176 -99.077 -44.942  0.00  0.00     0.000 A 
ATOM     24  C   UNL d   1     -57.366 -98.978 -44.809  0.00  0.00     0.002 A 
ENDBRANCH  18  19
ENDBRANCH   1  18
TORSDOF 5
ENDMDL
