MODEL 1
REMARK VINA RESULT:      36.0      0.000      0.000
REMARK  8 active torsions:
REMARK  status: ('A' for Active; 'I' for Inactive)
REMARK    1  A    between atoms: C_2  and  S_1 
REMARK    2  A    between atoms: N_11  and  S_1 
REMARK    3  A    between atoms: C_10  and  C_3 
REMARK    4  A    between atoms: N_6  and  C_18 
REMARK    5  A    between atoms: C_20  and  N_11 
REMARK    6  A    between atoms: O_17  and  C_12 
REMARK    7  A    between atoms: C_18  and  C_19 
REMARK    8  A    between atoms: C_19  and  C_20 
ROOT
ATOM      1  C   UNL d   1      13.757  14.431  -3.787  0.00  0.00     0.105 A 
ATOM      2  C   UNL d   1      13.444  13.040  -3.875  0.00  0.00     0.000 A 
ATOM      3  C   UNL d   1      13.419  13.798  -4.196  0.00  0.00     0.011 A 
ATOM      4  C   UNL d   1      13.808  12.914  -3.144  0.00  0.00     0.090 A 
ATOM      5  C   UNL d   1      14.123  14.306  -3.053  0.00  0.00     0.015 A 
ATOM      6  C   UNL d   1      14.148  13.548  -2.732  0.00  0.00     0.025 A 
ENDROOT
BRANCH   1   7
ATOM      7  S   UNL d   1      13.732  15.189  -4.108  0.00  0.00     0.285 S 
ATOM      8  O   UNL d   1      14.269  15.448  -3.539  0.00  0.00    -0.198 OA
ATOM      9  O   UNL d   1      13.195  14.930  -4.677  0.00  0.00    -0.198 OA
BRANCH   7  10
ATOM     10  N   UNL d   1      13.707  15.951  -4.431  0.00  0.00    -0.157 NA
BRANCH  10  11
ATOM     11  C   UNL d   1      14.404  16.396  -4.493  0.00  0.00     0.114 C 
BRANCH  11  12
ATOM     12  C   UNL d   1      14.362  17.205  -4.643  0.00  0.00     0.041 C 
BRANCH  12  13
ATOM     13  C   UNL d   1      14.657  17.518  -5.348  0.00  0.00     0.083 C 
BRANCH  13  14
ATOM     14  N   UNL d   1      14.480  18.291  -5.570  0.00  0.00    -0.285 N 
ATOM     15  C   UNL d   1      14.989  18.936  -5.509  0.00  0.00     0.183 A 
ATOM     16  N   UNL d   1      14.583  19.599  -5.794  0.00  0.00    -0.222 NA
ATOM     17  C   UNL d   1      13.830  19.359  -6.027  0.00  0.00     0.120 A 
ATOM     18  C   UNL d   1      13.768  18.547  -5.887  0.00  0.00     0.102 A 
ENDBRANCH  13  14
ENDBRANCH  12  13
ENDBRANCH  11  12
ENDBRANCH  10  11
ENDBRANCH   7  10
ENDBRANCH   1   7
BRANCH   2  19
ATOM     19  C   UNL d   1      13.107  12.409  -4.282  0.00  0.00     0.021 C 
ATOM     20  C   UNL d   1      12.771  11.779  -4.684  0.00  0.00     0.004 C 
ATOM     21  C   UNL d   1      13.442  12.682  -4.982  0.00  0.00     0.004 C 
ATOM     22  C   UNL d   1      12.769  12.130  -3.582  0.00  0.00     0.004 C 
ENDBRANCH   2  19
BRANCH   4  23
ATOM     23  O   UNL d   1      13.833  12.155  -2.823  0.00  0.00    -0.328 OA
ATOM     24  C   UNL d   1      14.304  12.003  -2.161  0.00  0.00     0.181 C 
ENDBRANCH   4  23
TORSDOF 8
ENDMDL
MODEL 2
REMARK VINA RESULT:      36.1      2.445      3.213
REMARK  8 active torsions:
REMARK  status: ('A' for Active; 'I' for Inactive)
REMARK    1  A    between atoms: C_2  and  S_1 
REMARK    2  A    between atoms: N_11  and  S_1 
REMARK    3  A    between atoms: C_10  and  C_3 
REMARK    4  A    between atoms: N_6  and  C_18 
REMARK    5  A    between atoms: C_20  and  N_11 
REMARK    6  A    between atoms: O_17  and  C_12 
REMARK    7  A    between atoms: C_18  and  C_19 
REMARK    8  A    between atoms: C_19  and  C_20 
ROOT
ATOM      1  C   UNL d   1      14.953  14.387  -0.708  0.00  0.00     0.105 A 
ATOM      2  C   UNL d   1      14.592  13.006  -0.663  0.00  0.00     0.000 A 
ATOM      3  C   UNL d   1      14.423  13.780  -0.890  0.00  0.00     0.011 A 
ATOM      4  C   UNL d   1      15.290  12.839  -0.253  0.00  0.00     0.090 A 
ATOM      5  C   UNL d   1      15.654  14.222  -0.297  0.00  0.00     0.015 A 
ATOM      6  C   UNL d   1      15.823  13.448  -0.069  0.00  0.00     0.025 A 
ENDROOT
BRANCH   1   7
ATOM      7  S   UNL d   1      14.784  15.161  -0.935  0.00  0.00     0.285 S 
ATOM      8  O   UNL d   1      15.049  15.434  -0.204  0.00  0.00    -0.198 OA
ATOM      9  O   UNL d   1      14.519  14.889  -1.666  0.00  0.00    -0.198 OA
BRANCH   7  10
ATOM     10  N   UNL d   1      14.615  15.939  -1.163  0.00  0.00    -0.157 NA
BRANCH  10  11
ATOM     11  C   UNL d   1      14.504  16.118  -1.966  0.00  0.00     0.114 C 
BRANCH  11  12
ATOM     12  C   UNL d   1      15.061  16.578  -2.363  0.00  0.00     0.041 C 
BRANCH  12  13
ATOM     13  C   UNL d   1      14.826  17.100  -2.958  0.00  0.00     0.083 C 
BRANCH  13  14
ATOM     14  N   UNL d   1      14.885  16.884  -3.752  0.00  0.00    -0.285 N 
ATOM     15  C   UNL d   1      14.390  16.355  -4.143  0.00  0.00     0.183 A 
ATOM     16  N   UNL d   1      14.651  16.305  -4.927  0.00  0.00    -0.222 NA
ATOM     17  C   UNL d   1      15.302  16.802  -5.013  0.00  0.00     0.120 A 
ATOM     18  C   UNL d   1      15.446  17.161  -4.282  0.00  0.00     0.102 A 
ENDBRANCH  13  14
ENDBRANCH  12  13
ENDBRANCH  11  12
ENDBRANCH  10  11
ENDBRANCH   7  10
ENDBRANCH   1   7
BRANCH   2  19
ATOM     19  C   UNL d   1      14.066  12.400  -0.844  0.00  0.00     0.021 C 
ATOM     20  C   UNL d   1      13.543  11.796  -1.026  0.00  0.00     0.004 C 
ATOM     21  C   UNL d   1      13.781  12.417  -0.072  0.00  0.00     0.004 C 
ATOM     22  C   UNL d   1      14.347  12.377  -1.620  0.00  0.00     0.004 C 
ENDBRANCH   2  19
BRANCH   4  23
ATOM     23  O   UNL d   1      15.459  12.065  -0.026  0.00  0.00    -0.328 OA
ATOM     24  C   UNL d   1      16.239  11.793  -0.036  0.00  0.00     0.181 C 
ENDBRANCH   4  23
TORSDOF 8
ENDMDL
