MODEL 1
REMARK VINA RESULT:      -4.3      0.000      0.000
REMARK  4 active torsions:
REMARK  status: ('A' for Active; 'I' for Inactive)
REMARK    1  A    between atoms: C_2  and  C_1 
REMARK    2  A    between atoms: C_4  and  C_1 
REMARK    3  A    between atoms: C_5  and  C_2 
REMARK    4  A    between atoms: N_6  and  C_5 
ROOT
ATOM      1  C   UNL d   1      57.007  -0.690  31.454  0.00  0.00     0.197 C 
ATOM      2  O   UNL d   1      57.002  -1.434  31.081  0.00  0.00    -0.286 OA
ENDROOT
BRANCH   1   3
ATOM      3  C   UNL d   1      57.492  -0.098  31.186  0.00  0.00     0.061 C 
BRANCH   3   4
ATOM      4  C   UNL d   1      57.936  -0.203  30.510  0.00  0.00     0.084 C 
BRANCH   4   5
ATOM      5  N   UNL d   1      58.457   0.388  30.265  0.00  0.00    -0.300 N 
ATOM      6  C   UNL d   1      58.413   0.682  29.499  0.00  0.00     0.100 C 
ATOM      7  C   UNL d   1      59.021   0.682  30.788  0.00  0.00     0.100 C 
ENDBRANCH   4   5
ENDBRANCH   3   4
ENDBRANCH   1   3
BRANCH   1   8
ATOM      8  C   UNL d   1      56.504  -0.546  32.118  0.00  0.00     0.039 A 
ATOM      9  C   UNL d   1      56.258  -1.175  32.596  0.00  0.00     0.003 A 
ATOM     10  C   UNL d   1      55.776  -1.042  33.235  0.00  0.00     0.000 A 
ATOM     11  C   UNL d   1      55.530  -0.273  33.406  0.00  0.00     0.000 A 
ATOM     12  C   UNL d   1      55.766   0.368  32.940  0.00  0.00     0.000 A 
ATOM     13  C   UNL d   1      56.267   0.212  32.280  0.00  0.00     0.003 A 
ENDBRANCH   1   8
TORSDOF 4
ENDMDL
MODEL 2
REMARK VINA RESULT:      -4.1      0.840      1.150
REMARK  4 active torsions:
REMARK  status: ('A' for Active; 'I' for Inactive)
REMARK    1  A    between atoms: C_2  and  C_1 
REMARK    2  A    between atoms: C_4  and  C_1 
REMARK    3  A    between atoms: C_5  and  C_2 
REMARK    4  A    between atoms: N_6  and  C_5 
ROOT
ATOM      1  C   UNL d   1      56.653  -0.464  32.250  0.00  0.00     0.197 C 
ATOM      2  O   UNL d   1      56.633  -1.284  32.111  0.00  0.00    -0.286 OA
ENDROOT
BRANCH   1   3
ATOM      3  C   UNL d   1      57.048   0.029  31.741  0.00  0.00     0.061 C 
BRANCH   3   4
ATOM      4  C   UNL d   1      57.386  -0.264  31.060  0.00  0.00     0.084 C 
BRANCH   4   5
ATOM      5  N   UNL d   1      57.795   0.241  30.552  0.00  0.00    -0.300 N 
ATOM      6  C   UNL d   1      57.387   0.671  29.984  0.00  0.00     0.100 C 
ATOM      7  C   UNL d   1      58.613   0.313  30.615  0.00  0.00     0.100 C 
ENDBRANCH   4   5
ENDBRANCH   3   4
ENDBRANCH   1   3
BRANCH   1   8
ATOM      8  C   UNL d   1      56.261  -0.138  32.923  0.00  0.00     0.039 A 
ATOM      9  C   UNL d   1      56.681   0.329  33.462  0.00  0.00     0.003 A 
ATOM     10  C   UNL d   1      56.309   0.644  34.111  0.00  0.00     0.000 A 
ATOM     11  C   UNL d   1      55.506   0.497  34.231  0.00  0.00     0.000 A 
ATOM     12  C   UNL d   1      55.070   0.033  33.703  0.00  0.00     0.000 A 
ATOM     13  C   UNL d   1      55.472  -0.287  33.035  0.00  0.00     0.003 A 
ENDBRANCH   1   8
TORSDOF 4
ENDMDL
MODEL 3
REMARK VINA RESULT:      -3.9      1.739      3.529
REMARK  4 active torsions:
REMARK  status: ('A' for Active; 'I' for Inactive)
REMARK    1  A    between atoms: C_2  and  C_1 
REMARK    2  A    between atoms: C_4  and  C_1 
REMARK    3  A    between atoms: C_5  and  C_2 
REMARK    4  A    between atoms: N_6  and  C_5 
ROOT
ATOM      1  C   UNL d   1      56.136  -0.552  32.581  0.00  0.00     0.197 C 
ATOM      2  O   UNL d   1      55.938  -1.352  32.696  0.00  0.00    -0.286 OA
ENDROOT
BRANCH   1   3
ATOM      3  C   UNL d   1      55.812   0.023  33.052  0.00  0.00     0.061 C 
BRANCH   3   4
ATOM      4  C   UNL d   1      55.213  -0.159  33.574  0.00  0.00     0.084 C 
BRANCH   4   5
ATOM      5  N   UNL d   1      54.960   0.402  34.123  0.00  0.00    -0.300 N 
ATOM      6  C   UNL d   1      55.480   0.682  34.694  0.00  0.00     0.100 C 
ATOM      7  C   UNL d   1      54.186   0.682  34.098  0.00  0.00     0.100 C 
ENDBRANCH   4   5
ENDBRANCH   3   4
ENDBRANCH   1   3
BRANCH   1   8
ATOM      8  C   UNL d   1      56.679  -0.332  31.972  0.00  0.00     0.039 A 
ATOM      9  C   UNL d   1      56.853   0.465  31.839  0.00  0.00     0.003 A 
ATOM     10  C   UNL d   1      57.374   0.681  31.255  0.00  0.00     0.000 A 
ATOM     11  C   UNL d   1      57.730   0.099  30.791  0.00  0.00     0.000 A 
ATOM     12  C   UNL d   1      57.568  -0.704  30.910  0.00  0.00     0.000 A 
ATOM     13  C   UNL d   1      57.025  -0.911  31.520  0.00  0.00     0.003 A 
ENDBRANCH   1   8
TORSDOF 4
ENDMDL
MODEL 4
REMARK VINA RESULT:      -3.4      1.167      1.827
REMARK  4 active torsions:
REMARK  status: ('A' for Active; 'I' for Inactive)
REMARK    1  A    between atoms: C_2  and  C_1 
REMARK    2  A    between atoms: C_4  and  C_1 
REMARK    3  A    between atoms: C_5  and  C_2 
REMARK    4  A    between atoms: N_6  and  C_5 
ROOT
ATOM      1  C   UNL d   1      57.807   0.163  30.344  0.00  0.00     0.197 C 
ATOM      2  O   UNL d   1      57.439   0.297  29.610  0.00  0.00    -0.286 OA
ENDROOT
BRANCH   1   3
ATOM      3  C   UNL d   1      58.616   0.154  30.403  0.00  0.00     0.061 C 
BRANCH   3   4
ATOM      4  C   UNL d   1      59.079   0.272  29.744  0.00  0.00     0.084 C 
BRANCH   4   5
ATOM      5  N   UNL d   1      59.894   0.146  29.785  0.00  0.00    -0.300 N 
ATOM      6  C   UNL d   1      60.373   0.681  30.183  0.00  0.00     0.100 C 
ATOM      7  C   UNL d   1      60.225  -0.517  29.426  0.00  0.00     0.100 C 
ENDBRANCH   4   5
ENDBRANCH   3   4
ENDBRANCH   1   3
BRANCH   1   8
ATOM      8  C   UNL d   1      57.339   0.036  31.036  0.00  0.00     0.039 A 
ATOM      9  C   UNL d   1      57.023   0.680  31.448  0.00  0.00     0.003 A 
ATOM     10  C   UNL d   1      56.572   0.563  32.113  0.00  0.00     0.000 A 
ATOM     11  C   UNL d   1      56.430  -0.206  32.378  0.00  0.00     0.000 A 
ATOM     12  C   UNL d   1      56.738  -0.862  31.979  0.00  0.00     0.000 A 
ATOM     13  C   UNL d   1      57.203  -0.723  31.291  0.00  0.00     0.003 A 
ENDBRANCH   1   8
TORSDOF 4
ENDMDL
MODEL 5
REMARK VINA RESULT:      -3.4      1.365      3.319
REMARK  4 active torsions:
REMARK  status: ('A' for Active; 'I' for Inactive)
REMARK    1  A    between atoms: C_2  and  C_1 
REMARK    2  A    between atoms: C_4  and  C_1 
REMARK    3  A    between atoms: C_5  and  C_2 
REMARK    4  A    between atoms: N_6  and  C_5 
ROOT
ATOM      1  C   UNL d   1      56.789  -0.656  31.770  0.00  0.00     0.197 C 
ATOM      2  O   UNL d   1      56.574  -1.459  31.815  0.00  0.00    -0.286 OA
ENDROOT
BRANCH   1   3
ATOM      3  C   UNL d   1      56.523  -0.128  32.324  0.00  0.00     0.061 C 
BRANCH   3   4
ATOM      4  C   UNL d   1      56.073  -0.382  32.955  0.00  0.00     0.084 C 
BRANCH   4   5
ATOM      5  N   UNL d   1      55.773   0.167  33.494  0.00  0.00    -0.300 N 
ATOM      6  C   UNL d   1      56.283   0.567  33.998  0.00  0.00     0.100 C 
ATOM      7  C   UNL d   1      54.963   0.311  33.525  0.00  0.00     0.100 C 
ENDBRANCH   4   5
ENDBRANCH   3   4
ENDBRANCH   1   3
BRANCH   1   8
ATOM      8  C   UNL d   1      57.288  -0.386  31.144  0.00  0.00     0.039 A 
ATOM      9  C   UNL d   1      57.303   0.416  30.942  0.00  0.00     0.003 A 
ATOM     10  C   UNL d   1      57.780   0.681  30.342  0.00  0.00     0.000 A 
ATOM     11  C   UNL d   1      58.253   0.144  29.931  0.00  0.00     0.000 A 
ATOM     12  C   UNL d   1      58.251  -0.662  30.118  0.00  0.00     0.000 A 
ATOM     13  C   UNL d   1      57.750  -0.920  30.744  0.00  0.00     0.003 A 
ENDBRANCH   1   8
TORSDOF 4
ENDMDL
MODEL 6
REMARK VINA RESULT:      -1.9      3.338      4.677
REMARK  4 active torsions:
REMARK  status: ('A' for Active; 'I' for Inactive)
REMARK    1  A    between atoms: C_2  and  C_1 
REMARK    2  A    between atoms: C_4  and  C_1 
REMARK    3  A    between atoms: C_5  and  C_2 
REMARK    4  A    between atoms: N_6  and  C_5 
ROOT
ATOM      1  C   UNL d   1      59.186  -2.370  28.863  0.00  0.00     0.197 C 
ATOM      2  O   UNL d   1      58.597  -2.813  28.477  0.00  0.00    -0.286 OA
ENDROOT
BRANCH   1   3
ATOM      3  C   UNL d   1      59.878  -2.723  29.097  0.00  0.00     0.061 C 
BRANCH   3   4
ATOM      4  C   UNL d   1      59.994  -3.521  28.982  0.00  0.00     0.084 C 
BRANCH   4   5
ATOM      5  N   UNL d   1      60.746  -3.846  29.081  0.00  0.00    -0.300 N 
ATOM      6  C   UNL d   1      61.132  -3.776  29.803  0.00  0.00     0.100 C 
ATOM      7  C   UNL d   1      61.108  -4.241  28.456  0.00  0.00     0.100 C 
ENDBRANCH   4   5
ENDBRANCH   3   4
ENDBRANCH   1   3
BRANCH   1   8
ATOM      8  C   UNL d   1      59.066  -1.548  29.016  0.00  0.00     0.039 A 
ATOM      9  C   UNL d   1      59.450  -0.980  28.552  0.00  0.00     0.003 A 
ATOM     10  C   UNL d   1      59.339  -0.189  28.694  0.00  0.00     0.000 A 
ATOM     11  C   UNL d   1      58.839   0.048  29.307  0.00  0.00     0.000 A 
ATOM     12  C   UNL d   1      58.447  -0.505  29.780  0.00  0.00     0.000 A 
ATOM     13  C   UNL d   1      58.573  -1.322  29.619  0.00  0.00     0.003 A 
ENDBRANCH   1   8
TORSDOF 4
ENDMDL
