MODEL 1
REMARK VINA RESULT:      82.2      0.000      0.000
REMARK  4 active torsions:
REMARK  status: ('A' for Active; 'I' for Inactive)
REMARK    1  A    between atoms: N_10  and  C_3 
REMARK    2  A    between atoms: C_11  and  C_5 
REMARK    3  A    between atoms: C_12  and  N_10 
REMARK    4  A    between atoms: O_18  and  C_15 
ROOT
ATOM      1  N   UNL d   1     -50.336  26.139  33.835  0.00  0.00    -0.184 N 
ATOM      2  C   UNL d   1     -51.028  25.687  33.692  0.00  0.00     0.168 A 
ATOM      3  C   UNL d   1     -50.371  26.964  33.794  0.00  0.00     0.217 A 
ATOM      4  N   UNL d   1     -49.601  24.945  34.055  0.00  0.00    -0.162 NA
ATOM      5  C   UNL d   1     -50.995  24.881  33.732  0.00  0.00     0.055 A 
ATOM      6  N   UNL d   1     -51.730  26.076  33.512  0.00  0.00    -0.227 NA
ATOM      7  C   UNL d   1     -51.071  27.334  33.615  0.00  0.00     0.066 A 
ATOM      8  C   UNL d   1     -50.283  24.500  33.914  0.00  0.00     0.104 A 
ATOM      9  C   UNL d   1     -51.768  26.889  33.470  0.00  0.00     0.087 A 
ATOM     10  C   UNL d   1     -51.273  28.116  33.536  0.00  0.00     0.006 A 
ATOM     11  C   UNL d   1     -50.258  23.683  33.953  0.00  0.00     0.023 C 
ATOM     12  C   UNL d   1     -52.380  27.408  33.306  0.00  0.00     0.019 A 
ATOM     13  C   UNL d   1     -52.066  28.176  33.348  0.00  0.00     0.002 A 
ENDROOT
BRANCH   3  14
ATOM     14  N   UNL d   1     -49.674  27.424  33.938  0.00  0.00    -0.383 NA
BRANCH  14  15
ATOM     15  C   UNL d   1     -49.067  27.959  34.179  0.00  0.00     0.135 A 
ATOM     16  C   UNL d   1     -48.798  27.941  34.972  0.00  0.00     0.056 A 
ATOM     17  C   UNL d   1     -48.180  28.482  35.223  0.00  0.00     0.097 A 
ATOM     18  C   UNL d   1     -47.851  29.030  34.660  0.00  0.00     0.024 A 
ATOM     19  C   UNL d   1     -48.130  29.038  33.865  0.00  0.00     0.005 A 
ATOM     20  C   UNL d   1     -48.742  28.501  33.618  0.00  0.00     0.032 A 
BRANCH  17  21
ATOM     21  O   UNL d   1     -47.906  28.472  36.010  0.00  0.00    -0.328 OA
ATOM     22  C   UNL d   1     -48.421  28.688  36.646  0.00  0.00     0.181 C 
ENDBRANCH  17  21
ENDBRANCH  14  15
ENDBRANCH   3  14
BRANCH   5  23
ATOM     23  C   UNL d   1     -51.672  24.439  33.591  0.00  0.00     0.004 A 
ATOM     24  C   UNL d   1     -52.407  24.796  33.594  0.00  0.00     0.000 A 
ATOM     25  C   UNL d   1     -53.092  24.348  33.452  0.00  0.00     0.000 A 
ATOM     26  C   UNL d   1     -53.028  23.553  33.310  0.00  0.00     0.000 A 
ATOM     27  C   UNL d   1     -52.288  23.188  33.306  0.00  0.00     0.000 A 
ATOM     28  C   UNL d   1     -51.616  23.632  33.447  0.00  0.00     0.000 A 
ENDBRANCH   5  23
TORSDOF 4
ENDMDL
