MODEL 1
REMARK VINA RESULT:      50.9      0.000      0.000
REMARK  3 active torsions:
REMARK  status: ('A' for Active; 'I' for Inactive)
REMARK    1  A    between atoms: C_8  and  N_2 
REMARK    2  A    between atoms: C_14  and  C_8 
REMARK    3  A    between atoms: N_13  and  C_14 
ROOT
ATOM      1  C   UNL d   1     -51.395  25.432  33.311  0.00  0.00     0.166 A 
ATOM      2  N   UNL d   1     -51.428  24.582  33.309  0.00  0.00    -0.288 N 
ATOM      3  C   UNL d   1     -50.592  25.714  33.314  0.00  0.00     0.117 A 
ATOM      4  C   UNL d   1     -50.133  25.028  33.314  0.00  0.00     0.037 A 
ATOM      5  C   UNL d   1     -50.660  24.331  33.310  0.00  0.00     0.067 A 
ATOM      6  N   UNL d   1     -51.983  25.975  33.310  0.00  0.00    -0.225 NA
ATOM      7  N   UNL d   1     -50.387  26.533  33.317  0.00  0.00    -0.241 NA
ATOM      8  C   UNL d   1     -51.769  26.808  33.313  0.00  0.00     0.101 A 
ATOM      9  C   UNL d   1     -50.973  27.088  33.316  0.00  0.00     0.099 A 
ATOM     10  C   UNL d   1     -50.342  23.561  33.309  0.00  0.00     0.018 A 
ATOM     11  C   UNL d   1     -49.312  24.956  33.316  0.00  0.00     0.003 A 
ATOM     12  C   UNL d   1     -49.007  24.184  33.315  0.00  0.00     0.000 A 
ATOM     13  C   UNL d   1     -49.521  23.489  33.312  0.00  0.00     0.002 A 
ATOM     14  C   UNL d   1     -52.359  27.365  33.313  0.00  0.00     0.021 A 
ATOM     15  C   UNL d   1     -50.772  27.910  33.319  0.00  0.00     0.021 A 
ATOM     16  C   UNL d   1     -48.188  24.083  33.317  0.00  0.00     0.000 C 
ATOM     17  C   UNL d   1     -52.154  28.186  33.315  0.00  0.00     0.002 A 
ATOM     18  C   UNL d   1     -51.350  28.460  33.318  0.00  0.00     0.002 A 
ENDROOT
BRANCH   2  19
ATOM     19  C   UNL d   1     -52.063  24.085  33.306  0.00  0.00     0.101 C 
BRANCH  19  20
ATOM     20  C   UNL d   1     -52.249  23.674  33.976  0.00  0.00     0.100 C 
BRANCH  20  21
ATOM     21  N   UNL d   1     -53.044  23.608  33.959  0.00  0.00    -0.298 N 
ATOM     22  C   UNL d   1     -53.427  23.259  34.556  0.00  0.00     0.107 A 
ATOM     23  C   UNL d   1     -54.222  23.191  34.542  0.00  0.00     0.142 A 
ATOM     24  O   UNL d   1     -54.635  23.481  33.911  0.00  0.00    -0.300 OA
ATOM     25  C   UNL d   1     -54.249  23.831  33.310  0.00  0.00     0.142 A 
ATOM     26  C   UNL d   1     -53.457  23.896  33.331  0.00  0.00     0.107 A 
ENDBRANCH  20  21
ENDBRANCH  19  20
ENDBRANCH   2  19
TORSDOF 3
ENDMDL
