MODEL 1
REMARK VINA RESULT:       4.0      0.000      0.000
REMARK  6 active torsions:
REMARK  status: ('A' for Active; 'I' for Inactive)
REMARK    1  A    between atoms: N_10  and  C_3 
REMARK    2  A    between atoms: C_9  and  C_4 
REMARK    3  A    between atoms: C_20  and  N_13 
REMARK    4  A    between atoms: O_24  and  C_14 
REMARK    5  A    between atoms: O_26  and  C_16 
REMARK    6  A    between atoms: C_25  and  C_20 
ROOT
ATOM      1  N   UNL d   1      58.669  -4.943  28.455  0.00  0.00    -0.196 N 
ATOM      2  C   UNL d   1      58.842  -5.750  28.455  0.00  0.00     0.167 A 
ATOM      3  C   UNL d   1      59.279  -4.407  28.455  0.00  0.00     0.152 A 
ATOM      4  C   UNL d   1      58.248  -6.298  28.455  0.00  0.00     0.055 A 
ATOM      5  N   UNL d   1      57.295  -5.238  28.455  0.00  0.00    -0.163 NA
ATOM      6  C   UNL d   1      57.468  -6.044  28.455  0.00  0.00     0.104 A 
ATOM      7  N   UNL d   1      59.622  -6.004  28.455  0.00  0.00    -0.227 NA
ATOM      8  C   UNL d   1      60.055  -4.645  28.455  0.00  0.00     0.057 A 
ATOM      9  C   UNL d   1      60.228  -5.452  28.456  0.00  0.00     0.086 A 
ATOM     10  C   UNL d   1      56.868  -6.581  28.455  0.00  0.00     0.023 C 
ATOM     11  C   UNL d   1      61.036  -5.713  28.456  0.00  0.00     0.021 C 
ENDROOT
BRANCH   3  12
ATOM     12  N   UNL d   1      59.101  -3.580  28.455  0.00  0.00    -0.286 N 
ATOM     13  C   UNL d   1      59.869  -3.226  28.455  0.00  0.00     0.101 A 
ATOM     14  C   UNL d   1      59.939  -2.384  28.455  0.00  0.00     0.100 A 
ATOM     15  N   UNL d   1      59.254  -1.894  28.455  0.00  0.00    -0.300 N 
ATOM     16  C   UNL d   1      58.479  -2.258  28.455  0.00  0.00     0.100 A 
ATOM     17  C   UNL d   1      58.403  -3.092  28.455  0.00  0.00     0.101 A 
BRANCH  15  18
ATOM     18  C   UNL d   1      59.335  -1.046  28.455  0.00  0.00     0.080 C 
BRANCH  18  19
ATOM     19  C   UNL d   1      59.293  -0.624  29.186  0.00  0.00     0.018 A 
ATOM     20  C   UNL d   1      58.550  -0.394  29.497  0.00  0.00     0.002 A 
ATOM     21  C   UNL d   1      58.511   0.030  30.230  0.00  0.00     0.000 A 
ATOM     22  C   UNL d   1      59.218   0.217  30.640  0.00  0.00     0.000 A 
ATOM     23  C   UNL d   1      59.965  -0.017  30.322  0.00  0.00     0.000 A 
ATOM     24  C   UNL d   1      60.000  -0.437  29.596  0.00  0.00     0.002 A 
ENDBRANCH  18  19
ENDBRANCH  15  18
ENDBRANCH   3  12
BRANCH   4  25
ATOM     25  C   UNL d   1      58.418  -7.092  28.455  0.00  0.00     0.007 A 
ATOM     26  C   UNL d   1      57.809  -7.632  28.455  0.00  0.00     0.026 A 
ATOM     27  C   UNL d   1      57.982  -8.439  28.455  0.00  0.00     0.116 A 
ATOM     28  C   UNL d   1      58.761  -8.689  28.455  0.00  0.00     0.116 A 
ATOM     29  C   UNL d   1      59.355  -8.140  28.455  0.00  0.00     0.026 A 
ATOM     30  C   UNL d   1      59.183  -7.337  28.455  0.00  0.00     0.002 A 
BRANCH  27  31
ATOM     31  O   UNL d   1      57.369  -9.001  28.455  0.00  0.00    -0.326 OA
ATOM     32  C   UNL d   1      56.749  -8.956  29.045  0.00  0.00     0.181 C 
ENDBRANCH  27  31
BRANCH  28  33
ATOM     33  O   UNL d   1      58.940  -9.521  28.455  0.00  0.00    -0.326 OA
ATOM     34  C   UNL d   1      59.672  -9.790  28.797  0.00  0.00     0.181 C 
ENDBRANCH  28  33
ENDBRANCH   4  25
TORSDOF 6
ENDMDL
MODEL 2
REMARK VINA RESULT:       5.1      4.846      7.642
REMARK  6 active torsions:
REMARK  status: ('A' for Active; 'I' for Inactive)
REMARK    1  A    between atoms: N_10  and  C_3 
REMARK    2  A    between atoms: C_9  and  C_4 
REMARK    3  A    between atoms: C_20  and  N_13 
REMARK    4  A    between atoms: O_24  and  C_14 
REMARK    5  A    between atoms: O_26  and  C_16 
REMARK    6  A    between atoms: C_25  and  C_20 
ROOT
ATOM      1  N   UNL d   1      58.151   0.252  31.842  0.00  0.00    -0.196 N 
ATOM      2  C   UNL d   1      57.396   0.342  32.162  0.00  0.00     0.167 A 
ATOM      3  C   UNL d   1      58.245   0.277  31.036  0.00  0.00     0.152 A 
ATOM      4  C   UNL d   1      57.282   0.320  32.962  0.00  0.00     0.055 A 
ATOM      5  N   UNL d   1      58.682   0.115  33.136  0.00  0.00    -0.163 NA
ATOM      6  C   UNL d   1      57.927   0.206  33.455  0.00  0.00     0.104 A 
ATOM      7  N   UNL d   1      56.750   0.457  31.669  0.00  0.00    -0.227 NA
ATOM      8  C   UNL d   1      57.614   0.390  30.537  0.00  0.00     0.057 A 
ATOM      9  C   UNL d   1      56.859   0.480  30.856  0.00  0.00     0.086 A 
ATOM     10  C   UNL d   1      57.826   0.181  34.254  0.00  0.00     0.023 C 
ATOM     11  C   UNL d   1      56.192   0.599  30.345  0.00  0.00     0.021 C 
ENDROOT
BRANCH   3  12
ATOM     12  N   UNL d   1      59.019   0.184  30.708  0.00  0.00    -0.286 N 
ATOM     13  C   UNL d   1      59.045  -0.641  30.526  0.00  0.00     0.101 A 
ATOM     14  C   UNL d   1      59.742  -0.969  30.180  0.00  0.00     0.100 A 
ATOM     15  N   UNL d   1      60.411  -0.484  30.014  0.00  0.00    -0.300 N 
ATOM     16  C   UNL d   1      60.379   0.351  30.201  0.00  0.00     0.100 A 
ATOM     17  C   UNL d   1      59.690   0.682  30.544  0.00  0.00     0.101 A 
BRANCH  15  18
ATOM     18  C   UNL d   1      61.109  -0.824  29.665  0.00  0.00     0.080 C 
BRANCH  18  19
ATOM     19  C   UNL d   1      61.117  -1.644  29.462  0.00  0.00     0.018 A 
ATOM     20  C   UNL d   1      61.118  -1.877  28.657  0.00  0.00     0.002 A 
ATOM     21  C   UNL d   1      61.126  -2.701  28.456  0.00  0.00     0.000 A 
ATOM     22  C   UNL d   1      61.131  -3.278  29.064  0.00  0.00     0.000 A 
ATOM     23  C   UNL d   1      61.129  -3.036  29.874  0.00  0.00     0.000 A 
ATOM     24  C   UNL d   1      61.122  -2.220  30.070  0.00  0.00     0.002 A 
ENDBRANCH  18  19
ENDBRANCH  15  18
ENDBRANCH   3  12
BRANCH   4  25
ATOM     25  C   UNL d   1      56.538   0.409  33.277  0.00  0.00     0.007 A 
ATOM     26  C   UNL d   1      56.431   0.322  34.079  0.00  0.00     0.026 A 
ATOM     27  C   UNL d   1      55.676   0.413  34.399  0.00  0.00     0.116 A 
ATOM     28  C   UNL d   1      55.044   0.588  33.910  0.00  0.00     0.116 A 
ATOM     29  C   UNL d   1      55.167   0.671  33.115  0.00  0.00     0.026 A 
ATOM     30  C   UNL d   1      55.919   0.581  32.797  0.00  0.00     0.002 A 
BRANCH  27  31
ATOM     31  O   UNL d   1      55.552   0.327  35.218  0.00  0.00    -0.326 OA
ATOM     32  C   UNL d   1      56.115   0.659  35.771  0.00  0.00     0.181 C 
ENDBRANCH  27  31
BRANCH  28  33
ATOM     33  O   UNL d   1      54.265   0.682  34.240  0.00  0.00    -0.326 OA
ATOM     34  C   UNL d   1      53.588   0.664  33.723  0.00  0.00     0.181 C 
ENDBRANCH  28  33
ENDBRANCH   4  25
TORSDOF 6
ENDMDL
