MODEL 1
REMARK VINA RESULT:      -1.2      0.000      0.000
REMARK  6 active torsions:
REMARK  status: ('A' for Active; 'I' for Inactive)
REMARK    1  A    between atoms: C_9  and  N_2 
REMARK       I    between atoms: N_5  and  C_6 
REMARK    2  A    between atoms: C_6  and  C_10 
REMARK    3  A    between atoms: C_11  and  N_7 
REMARK    4  A    between atoms: C_10  and  C_9 
REMARK    5  A    between atoms: C_18  and  C_11 
REMARK    6  A    between atoms: C_19  and  C_11 
ROOT
ATOM      1  N   UNL d   1      32.627  19.631 -23.523  0.00  0.00    -0.269 N 
ATOM      2  C   UNL d   1      32.922  20.375 -23.338  0.00  0.00     0.266 C 
ATOM      3  N   UNL d   1      32.031  18.126 -23.891  0.00  0.00    -0.301 N 
ATOM      4  C   UNL d   1      32.306  19.153 -22.923  0.00  0.00     0.102 A 
ATOM      5  C   UNL d   1      32.649  19.356 -24.294  0.00  0.00     0.102 A 
ATOM      6  C   UNL d   1      32.351  18.604 -24.479  0.00  0.00     0.100 A 
ATOM      7  C   UNL d   1      32.011  18.409 -23.103  0.00  0.00     0.100 A 
ATOM      8  O   UNL d   1      33.241  20.849 -23.935  0.00  0.00    -0.267 OA
ENDROOT
BRANCH   2   9
ATOM      9  C   UNL d   1      32.901  20.653 -22.562  0.00  0.00     0.080 C 
BRANCH   9  10
ATOM     10  C   UNL d   1      33.237  21.378 -22.369  0.00  0.00     0.090 C 
BRANCH  10  11
ATOM     11  N   UNL d   1      32.851  21.890 -21.852  0.00  0.00    -0.251 N 
ATOM     12  C   UNL d   1      32.383  22.532 -22.064  0.00  0.00     0.378 A 
ATOM     13  O   UNL d   1      32.145  22.838 -21.339  0.00  0.00    -0.258 OA
ATOM     14  O   UNL d   1      32.217  22.776 -22.835  0.00  0.00    -0.237 OA
ATOM     15  C   UNL d   1      32.409  22.464 -20.732  0.00  0.00     0.121 A 
ATOM     16  C   UNL d   1      32.323  22.562 -19.913  0.00  0.00     0.026 A 
ATOM     17  C   UNL d   1      32.869  21.845 -21.027  0.00  0.00     0.092 A 
ATOM     18  C   UNL d   1      32.698  22.038 -19.390  0.00  0.00     0.002 A 
ATOM     19  C   UNL d   1      33.156  21.423 -19.697  0.00  0.00     0.002 A 
ATOM     20  C   UNL d   1      33.240  21.328 -20.514  0.00  0.00     0.020 A 
ENDBRANCH  10  11
ENDBRANCH   9  10
ENDBRANCH   2   9
BRANCH   3  21
ATOM     21  C   UNL d   1      31.730  17.371 -24.063  0.00  0.00     0.064 C 
BRANCH  21  22
ATOM     22  C   UNL d   1      32.233  16.732 -24.184  0.00  0.00     0.016 A 
ATOM     23  C   UNL d   1      32.343  16.436 -24.946  0.00  0.00     0.001 A 
ATOM     24  C   UNL d   1      32.847  15.796 -25.066  0.00  0.00     0.000 A 
ATOM     25  C   UNL d   1      33.239  15.453 -24.426  0.00  0.00     0.000 A 
ATOM     26  C   UNL d   1      33.126  15.750 -23.668  0.00  0.00     0.000 A 
ATOM     27  C   UNL d   1      32.623  16.390 -23.547  0.00  0.00     0.001 A 
ENDBRANCH  21  22
BRANCH  21  28
ATOM     28  C   UNL d   1      30.907  17.271 -24.111  0.00  0.00     0.016 A 
ATOM     29  C   UNL d   1      30.535  16.750 -23.579  0.00  0.00     0.001 A 
ATOM     30  C   UNL d   1      29.712  16.651 -23.627  0.00  0.00     0.000 A 
ATOM     31  C   UNL d   1      29.277  17.061 -24.191  0.00  0.00     0.000 A 
ATOM     32  C   UNL d   1      29.658  17.574 -24.713  0.00  0.00     0.000 A 
ATOM     33  C   UNL d   1      30.475  17.680 -24.674  0.00  0.00     0.001 A 
ENDBRANCH  21  28
ENDBRANCH   3  21
TORSDOF 6
ENDMDL
