MODEL 1
REMARK VINA RESULT:      47.9      0.000      0.000
REMARK  6 active torsions:
REMARK  status: ('A' for Active; 'I' for Inactive)
REMARK    1  A    between atoms: C_9  and  N_2 
REMARK    2  A    between atoms: O_11  and  C_7 
REMARK    3  A    between atoms: C_8  and  O_10 
REMARK    4  A    between atoms: C_12  and  C_9 
REMARK    5  A    between atoms: O_10  and  C_15 
REMARK    6  A    between atoms: C_15  and  C_12 
ROOT
ATOM      1  C   UNL d   1      59.866  48.760  51.065  0.00  0.00     0.087 C 
ENDROOT
BRANCH   1   2
ATOM      2  N   UNL d   1      60.530  48.477  50.667  0.00  0.00    -0.251 N 
ATOM      3  C   UNL d   1      61.082  48.894  50.204  0.00  0.00     0.378 A 
ATOM      4  O   UNL d   1      61.647  48.353  49.925  0.00  0.00    -0.258 OA
ATOM      5  O   UNL d   1      61.061  49.702  50.054  0.00  0.00    -0.237 OA
ATOM      6  C   UNL d   1      61.448  47.607  50.213  0.00  0.00     0.121 A 
ATOM      7  C   UNL d   1      61.799  46.859  50.124  0.00  0.00     0.026 A 
ATOM      8  C   UNL d   1      60.758  47.681  50.671  0.00  0.00     0.092 A 
ATOM      9  C   UNL d   1      61.467  46.200  50.485  0.00  0.00     0.002 A 
ATOM     10  C   UNL d   1      60.784  46.278  50.937  0.00  0.00     0.002 A 
ATOM     11  C   UNL d   1      60.427  47.015  51.033  0.00  0.00     0.020 A 
ENDBRANCH   1   2
BRANCH   1  12
ATOM     12  C   UNL d   1      59.616  49.529  50.944  0.00  0.00     0.046 C 
BRANCH  12  13
ATOM     13  C   UNL d   1      58.950  49.676  50.481  0.00  0.00     0.124 C 
BRANCH  13  14
ATOM     14  O   UNL d   1      58.290  49.182  50.535  0.00  0.00    -0.303 OA
BRANCH  14  15
ATOM     15  C   UNL d   1      57.610  49.351  50.100  0.00  0.00     0.122 A 
ATOM     16  C   UNL d   1      56.878  49.392  50.479  0.00  0.00     0.117 A 
ATOM     17  C   UNL d   1      56.197  49.561  50.048  0.00  0.00     0.026 A 
ATOM     18  C   UNL d   1      56.250  49.690  49.229  0.00  0.00     0.002 A 
ATOM     19  C   UNL d   1      56.977  49.650  48.849  0.00  0.00     0.002 A 
ATOM     20  C   UNL d   1      57.657  49.481  49.284  0.00  0.00     0.027 A 
BRANCH  16  21
ATOM     21  O   UNL d   1      56.831  49.263  51.295  0.00  0.00    -0.326 OA
ATOM     22  C   UNL d   1      56.198  48.829  51.603  0.00  0.00     0.181 C 
ENDBRANCH  16  21
ENDBRANCH  14  15
ENDBRANCH  13  14
ENDBRANCH  12  13
ENDBRANCH   1  12
TORSDOF 6
ENDMDL
