MODEL 1
REMARK VINA RESULT:      -2.7      0.000      0.000
REMARK  0 active torsions:
REMARK  status: ('A' for Active; 'I' for Inactive)
ROOT
ATOM      1  C   UNL d   1      46.538 -19.527  44.127  0.00  0.00     0.311 A 
ATOM      2  N   UNL d   1      46.561 -18.812  43.704  0.00  0.00    -0.202 NA
ATOM      3  S   UNL d   1      46.552 -20.149  43.588  0.00  0.00    -0.024 SA
ATOM      4  C   UNL d   1      46.590 -19.002  42.895  0.00  0.00     0.091 A 
ATOM      5  C   UNL d   1      46.584 -19.825  42.823  0.00  0.00     0.052 A 
ATOM      6  O   UNL d   1      46.506 -19.599  44.954  0.00  0.00    -0.258 OA
ATOM      7  C   UNL d   1      46.621 -18.529  42.220  0.00  0.00     0.020 A 
ATOM      8  C   UNL d   1      46.609 -20.175  42.076  0.00  0.00     0.008 A 
ATOM      9  C   UNL d   1      46.639 -19.702  41.400  0.00  0.00     0.001 A 
ATOM     10  C   UNL d   1      46.645 -18.879  41.472  0.00  0.00     0.002 A 
ENDROOT
TORSDOF 0
ENDMDL
MODEL 2
REMARK VINA RESULT:      -0.2      7.670      7.775
REMARK  0 active torsions:
REMARK  status: ('A' for Active; 'I' for Inactive)
ROOT
ATOM      1  C   UNL d   1      45.910 -14.700  36.968  0.00  0.00     0.311 A 
ATOM      2  N   UNL d   1      45.177 -14.395  37.212  0.00  0.00    -0.202 NA
ATOM      3  S   UNL d   1      45.782 -15.425  36.601  0.00  0.00    -0.024 SA
ATOM      4  C   UNL d   1      44.592 -14.944  36.989  0.00  0.00     0.091 A 
ATOM      5  C   UNL d   1      44.964 -15.578  36.613  0.00  0.00     0.052 A 
ATOM      6  O   UNL d   1      46.647 -14.333  37.079  0.00  0.00    -0.258 OA
ATOM      7  C   UNL d   1      43.772 -14.942  37.082  0.00  0.00     0.020 A 
ATOM      8  C   UNL d   1      44.517 -16.211  36.330  0.00  0.00     0.008 A 
ATOM      9  C   UNL d   1      43.697 -16.210  36.423  0.00  0.00     0.001 A 
ATOM     10  C   UNL d   1      43.324 -15.576  36.799  0.00  0.00     0.002 A 
ENDROOT
TORSDOF 0
ENDMDL
MODEL 3
REMARK VINA RESULT:       0.1      7.740      7.787
REMARK  0 active torsions:
REMARK  status: ('A' for Active; 'I' for Inactive)
ROOT
ATOM      1  C   UNL d   1      43.852 -15.559  36.736  0.00  0.00     0.311 A 
ATOM      2  N   UNL d   1      44.111 -14.928  37.211  0.00  0.00    -0.202 NA
ATOM      3  S   UNL d   1      44.500 -15.864  36.332  0.00  0.00    -0.024 SA
ATOM      4  C   UNL d   1      44.931 -14.848  37.094  0.00  0.00     0.091 A 
ATOM      5  C   UNL d   1      45.171 -15.424  36.553  0.00  0.00     0.052 A 
ATOM      6  O   UNL d   1      43.069 -15.832  36.680  0.00  0.00    -0.258 OA
ATOM      7  C   UNL d   1      45.483 -14.325  37.413  0.00  0.00     0.020 A 
ATOM      8  C   UNL d   1      45.963 -15.477  36.330  0.00  0.00     0.008 A 
ATOM      9  C   UNL d   1      46.517 -14.953  36.649  0.00  0.00     0.001 A 
ATOM     10  C   UNL d   1      46.277 -14.378  37.190  0.00  0.00     0.002 A 
ENDROOT
TORSDOF 0
ENDMDL
