MODEL 1
REMARK VINA RESULT:      36.0      0.000      0.000
REMARK  3 active torsions:
REMARK  status: ('A' for Active; 'I' for Inactive)
REMARK    1  A    between atoms: N_4  and  C_2 
REMARK    2  A    between atoms: C_12  and  C_10 
REMARK    3  A    between atoms: C_19  and  C_11 
ROOT
ATOM      1  C   UNL d   1      14.045  13.346  -2.116  0.00  0.00     0.152 A 
ATOM      2  C   UNL d   1      14.278  13.417  -1.348  0.00  0.00     0.174 A 
ATOM      3  C   UNL d   1      14.132  13.986  -2.634  0.00  0.00     0.111 A 
ATOM      4  O   UNL d   1      13.717  12.631  -2.393  0.00  0.00    -0.302 OA
ATOM      5  N   UNL d   1      14.600  14.115  -1.073  0.00  0.00    -0.207 NA
ATOM      6  C   UNL d   1      13.567  13.203  -3.697  0.00  0.00     0.043 A 
ATOM      7  N   UNL d   1      14.450  14.687  -2.376  0.00  0.00    -0.225 NA
ATOM      8  C   UNL d   1      13.481  12.569  -3.184  0.00  0.00     0.102 A 
ATOM      9  C   UNL d   1      14.687  14.755  -1.591  0.00  0.00     0.164 A 
ATOM     10  C   UNL d   1      13.330  13.135  -4.482  0.00  0.00     0.004 A 
ATOM     11  C   UNL d   1      13.156  11.862  -3.457  0.00  0.00     0.025 A 
ATOM     12  C   UNL d   1      13.006  12.431  -4.758  0.00  0.00     0.000 A 
ATOM     13  C   UNL d   1      12.916  11.786  -4.247  0.00  0.00     0.002 A 
ENDROOT
BRANCH   2  14
ATOM     14  N   UNL d   1      14.192  12.784  -0.835  0.00  0.00    -0.284 N 
ATOM     15  C   UNL d   1      14.793  12.361  -0.480  0.00  0.00     0.130 A 
ATOM     16  C   UNL d   1      14.459  11.779  -0.014  0.00  0.00     0.025 A 
ATOM     17  C   UNL d   1      13.643  11.838  -0.078  0.00  0.00     0.021 A 
ATOM     18  C   UNL d   1      13.473  12.462  -0.588  0.00  0.00     0.082 A 
BRANCH  15  19
ATOM     19  C   UNL d   1      15.630  12.502  -0.578  0.00  0.00     0.228 C 
ATOM     20  O   UNL d   1      16.033  13.034  -0.055  0.00  0.00    -0.643 OA
ATOM     21  O   UNL d   1      16.055  12.109  -1.197  0.00  0.00    -0.643 OA
ENDBRANCH  15  19
ENDBRANCH   2  14
BRANCH   9  22
ATOM     22  C   UNL d   1      15.025  15.489  -1.303  0.00  0.00     0.039 C 
ATOM     23  C   UNL d   1      15.003  16.181  -1.788  0.00  0.00     0.003 C 
ENDBRANCH   9  22
TORSDOF 3
ENDMDL
