MODEL 1
REMARK VINA RESULT:      32.4      0.000      0.000
REMARK  0 active torsions:
REMARK  status: ('A' for Active; 'I' for Inactive)
ROOT
ATOM      1  N   UNL d   1     -57.607 -98.774 -43.778  0.00  0.00    -0.176 N 
ATOM      2  C   UNL d   1     -57.697 -98.767 -44.598  0.00  0.00     0.167 A 
ATOM      3  N   UNL d   1     -58.247 -98.780 -43.299  0.00  0.00    -0.150 NA
ATOM      4  C   UNL d   1     -56.828 -98.776 -43.454  0.00  0.00     0.283 A 
ATOM      5  N   UNL d   1     -57.007 -98.760 -45.088  0.00  0.00    -0.227 NA
ATOM      6  C   UNL d   1     -59.020 -98.778 -43.624  0.00  0.00     0.159 A 
ATOM      7  C   UNL d   1     -56.155 -98.770 -43.937  0.00  0.00     0.076 A 
ATOM      8  C   UNL d   1     -58.426 -98.765 -44.933  0.00  0.00     0.038 A 
ATOM      9  C   UNL d   1     -56.245 -98.762 -44.757  0.00  0.00     0.088 A 
ATOM     10  C   UNL d   1     -59.110 -98.771 -44.444  0.00  0.00     0.033 A 
ATOM     11  O   UNL d   1     -56.738 -98.784 -42.628  0.00  0.00    -0.265 OA
ATOM     12 CL   UNL d   1     -59.664 -98.784 -43.144  0.00  0.00    -0.060 Cl
ATOM     13  C   UNL d   1     -55.405 -98.772 -43.610  0.00  0.00     0.006 A 
ATOM     14  C   UNL d   1     -58.515 -98.757 -45.753  0.00  0.00     0.003 A 
ATOM     15  C   UNL d   1     -59.843 -98.769 -44.778  0.00  0.00     0.003 A 
ATOM     16  C   UNL d   1     -55.584 -98.756 -45.244  0.00  0.00     0.019 A 
ATOM     17  C   UNL d   1     -54.737 -98.766 -44.092  0.00  0.00     0.000 A 
ATOM     18  C   UNL d   1     -59.289 -98.755 -46.084  0.00  0.00     0.000 A 
ATOM     19  C   UNL d   1     -59.933 -98.761 -45.598  0.00  0.00     0.000 A 
ATOM     20  C   UNL d   1     -54.827 -98.758 -44.913  0.00  0.00     0.002 A 
ENDROOT
TORSDOF 0
ENDMDL
