MODEL 1
REMARK VINA RESULT:      -5.3      0.000      0.000
REMARK  3 active torsions:
REMARK  status: ('A' for Active; 'I' for Inactive)
REMARK    1  A    between atoms: C_4  and  C_1 
REMARK    2  A    between atoms: N_2  and  C_3 
REMARK    3  A    between atoms: C_5  and  N_2 
ROOT
ATOM      1  C   UNL d   1     -41.900-122.345 -54.580  0.00  0.00     0.082 A 
ATOM      2  C   UNL d   1     -41.524-122.653 -53.901  0.00  0.00     0.087 A 
ATOM      3  C   UNL d   1     -41.885-122.764 -55.286  0.00  0.00     0.008 A 
ATOM      4  C   UNL d   1     -41.138-123.381 -53.948  0.00  0.00     0.019 A 
ATOM      5  C   UNL d   1     -41.493-123.499 -55.327  0.00  0.00     0.000 A 
ATOM      6  C   UNL d   1     -41.123-123.800 -54.654  0.00  0.00     0.002 A 
ENDROOT
BRANCH   2   7
ATOM      7  N   UNL d   1     -41.539-122.234 -53.196  0.00  0.00    -0.245 NA
BRANCH   7   8
ATOM      8  C   UNL d   1     -41.400-122.611 -52.468  0.00  0.00     0.081 A 
ATOM      9  C   UNL d   1     -41.369-122.187 -51.772  0.00  0.00     0.018 A 
ATOM     10  C   UNL d   1     -41.231-122.567 -51.050  0.00  0.00     0.002 A 
ATOM     11  C   UNL d   1     -41.477-121.381 -51.794  0.00  0.00     0.002 C 
ATOM     12  C   UNL d   1     -41.200-122.146 -50.359  0.00  0.00     0.000 C 
ATOM     13  C   UNL d   1     -41.123-123.393 -51.049  0.00  0.00     0.000 A 
ATOM     14  C   UNL d   1     -41.154-123.816 -51.746  0.00  0.00     0.002 A 
ATOM     15  C   UNL d   1     -41.294-123.434 -52.476  0.00  0.00     0.019 A 
ENDBRANCH   7   8
ENDBRANCH   2   7
BRANCH   1  16
ATOM     16  C   UNL d   1     -42.287-121.617 -54.533  0.00  0.00     0.212 C 
ATOM     17  O   UNL d   1     -41.880-120.919 -54.682  0.00  0.00    -0.644 OA
ATOM     18  O   UNL d   1     -43.080-121.579 -54.337  0.00  0.00    -0.644 OA
ENDBRANCH   1  16
TORSDOF 3
ENDMDL
MODEL 2
REMARK VINA RESULT:      -4.0      1.583      3.635
REMARK  3 active torsions:
REMARK  status: ('A' for Active; 'I' for Inactive)
REMARK    1  A    between atoms: C_4  and  C_1 
REMARK    2  A    between atoms: N_2  and  C_3 
REMARK    3  A    between atoms: C_5  and  N_2 
ROOT
ATOM      1  C   UNL d   1     -41.516-122.266 -51.192  0.00  0.00     0.082 A 
ATOM      2  C   UNL d   1     -41.495-122.094 -52.008  0.00  0.00     0.087 A 
ATOM      3  C   UNL d   1     -41.342-121.680 -50.643  0.00  0.00     0.008 A 
ATOM      4  C   UNL d   1     -41.297-121.332 -52.257  0.00  0.00     0.019 A 
ATOM      5  C   UNL d   1     -41.143-120.912 -50.900  0.00  0.00     0.000 A 
ATOM      6  C   UNL d   1     -41.123-120.747 -51.708  0.00  0.00     0.002 A 
ENDROOT
BRANCH   2   7
ATOM      7  N   UNL d   1     -41.669-122.680 -52.557  0.00  0.00    -0.245 NA
BRANCH   7   8
ATOM      8  C   UNL d   1     -41.841-122.490 -53.348  0.00  0.00     0.081 A 
ATOM      9  C   UNL d   1     -41.569-122.955 -53.961  0.00  0.00     0.018 A 
ATOM     10  C   UNL d   1     -41.742-122.763 -54.747  0.00  0.00     0.002 A 
ATOM     11  C   UNL d   1     -41.123-123.614 -53.792  0.00  0.00     0.002 C 
ATOM     12  C   UNL d   1     -41.473-123.224 -55.356  0.00  0.00     0.000 C 
ATOM     13  C   UNL d   1     -42.200-122.084 -54.899  0.00  0.00     0.000 A 
ATOM     14  C   UNL d   1     -42.472-121.620 -54.286  0.00  0.00     0.002 A 
ATOM     15  C   UNL d   1     -42.298-121.812 -53.491  0.00  0.00     0.019 A 
ENDBRANCH   7   8
ENDBRANCH   2   7
BRANCH   1  16
ATOM     16  C   UNL d   1     -41.714-123.028 -50.943  0.00  0.00     0.212 C 
ATOM     17  O   UNL d   1     -42.479-123.202 -50.702  0.00  0.00    -0.644 OA
ATOM     18  O   UNL d   1     -41.151-123.621 -50.933  0.00  0.00    -0.644 OA
ENDBRANCH   1  16
TORSDOF 3
ENDMDL
MODEL 3
REMARK VINA RESULT:      -4.0      2.228      4.155
REMARK  3 active torsions:
REMARK  status: ('A' for Active; 'I' for Inactive)
REMARK    1  A    between atoms: C_4  and  C_1 
REMARK    2  A    between atoms: N_2  and  C_3 
REMARK    3  A    between atoms: C_5  and  N_2 
ROOT
ATOM      1  C   UNL d   1     -42.722-123.233 -49.440  0.00  0.00     0.082 A 
ATOM      2  C   UNL d   1     -42.152-123.274 -50.049  0.00  0.00     0.087 A 
ATOM      3  C   UNL d   1     -42.490-123.284 -48.655  0.00  0.00     0.008 A 
ATOM      4  C   UNL d   1     -41.356-123.368 -49.852  0.00  0.00     0.019 A 
ATOM      5  C   UNL d   1     -41.684-123.378 -48.462  0.00  0.00     0.000 A 
ATOM      6  C   UNL d   1     -41.124-123.419 -49.066  0.00  0.00     0.002 A 
ENDROOT
BRANCH   2   7
ATOM      7  N   UNL d   1     -42.384-123.223 -50.835  0.00  0.00    -0.245 NA
BRANCH   7   8
ATOM      8  C   UNL d   1     -41.961-122.758 -51.378  0.00  0.00     0.081 A 
ATOM      9  C   UNL d   1     -41.758-123.047 -52.114  0.00  0.00     0.018 A 
ATOM     10  C   UNL d   1     -41.337-122.581 -52.652  0.00  0.00     0.002 A 
ATOM     11  C   UNL d   1     -41.976-123.805 -52.315  0.00  0.00     0.002 C 
ATOM     12  C   UNL d   1     -41.136-122.868 -53.382  0.00  0.00     0.000 C 
ATOM     13  C   UNL d   1     -41.124-121.808 -52.427  0.00  0.00     0.000 A 
ATOM     14  C   UNL d   1     -41.327-121.519 -51.691  0.00  0.00     0.002 A 
ATOM     15  C   UNL d   1     -41.752-121.989 -51.146  0.00  0.00     0.019 A 
ENDBRANCH   7   8
ENDBRANCH   2   7
BRANCH   1  16
ATOM     16  C   UNL d   1     -43.518-123.139 -49.637  0.00  0.00     0.212 C 
ATOM     17  O   UNL d   1     -43.823-122.394 -49.796  0.00  0.00    -0.644 OA
ATOM     18  O   UNL d   1     -44.015-123.788 -49.677  0.00  0.00    -0.644 OA
ENDBRANCH   1  16
TORSDOF 3
ENDMDL
MODEL 4
REMARK VINA RESULT:      -3.7      2.005      3.233
REMARK  3 active torsions:
REMARK  status: ('A' for Active; 'I' for Inactive)
REMARK    1  A    between atoms: C_4  and  C_1 
REMARK    2  A    between atoms: N_2  and  C_3 
REMARK    3  A    between atoms: C_5  and  N_2 
ROOT
ATOM      1  C   UNL d   1     -41.580-122.506 -51.872  0.00  0.00     0.082 A 
ATOM      2  C   UNL d   1     -41.699-122.549 -51.047  0.00  0.00     0.087 A 
ATOM      3  C   UNL d   1     -41.295-121.814 -52.212  0.00  0.00     0.008 A 
ATOM      4  C   UNL d   1     -41.529-121.892 -50.579  0.00  0.00     0.019 A 
ATOM      5  C   UNL d   1     -41.125-121.153 -51.733  0.00  0.00     0.000 A 
ATOM      6  C   UNL d   1     -41.245-121.200 -50.918  0.00  0.00     0.002 A 
ENDROOT
BRANCH   2   7
ATOM      7  N   UNL d   1     -41.983-123.241 -50.708  0.00  0.00    -0.245 NA
BRANCH   7   8
ATOM      8  C   UNL d   1     -41.932-123.370 -49.889  0.00  0.00     0.081 A 
ATOM      9  C   UNL d   1     -42.600-123.506 -49.440  0.00  0.00     0.018 A 
ATOM     10  C   UNL d   1     -42.545-123.634 -48.625  0.00  0.00     0.002 A 
ATOM     11  C   UNL d   1     -43.328-123.513 -49.805  0.00  0.00     0.002 C 
ATOM     12  C   UNL d   1     -43.208-123.768 -48.180  0.00  0.00     0.000 C 
ATOM     13  C   UNL d   1     -41.791-123.623 -48.271  0.00  0.00     0.000 A 
ATOM     14  C   UNL d   1     -41.123-123.488 -48.720  0.00  0.00     0.002 A 
ATOM     15  C   UNL d   1     -41.177-123.358 -49.544  0.00  0.00     0.019 A 
ENDBRANCH   7   8
ENDBRANCH   2   7
BRANCH   1  16
ATOM     16  C   UNL d   1     -41.750-123.164 -52.341  0.00  0.00     0.212 C 
ATOM     17  O   UNL d   1     -41.233-123.801 -52.368  0.00  0.00    -0.644 OA
ATOM     18  O   UNL d   1     -42.436-123.191 -52.786  0.00  0.00    -0.644 OA
ENDBRANCH   1  16
TORSDOF 3
ENDMDL
MODEL 5
REMARK VINA RESULT:      -2.9      1.030      1.834
REMARK  3 active torsions:
REMARK  status: ('A' for Active; 'I' for Inactive)
REMARK    1  A    between atoms: C_4  and  C_1 
REMARK    2  A    between atoms: N_2  and  C_3 
REMARK    3  A    between atoms: C_5  and  N_2 
ROOT
ATOM      1  C   UNL d   1     -41.928-122.465 -54.566  0.00  0.00     0.082 A 
ATOM      2  C   UNL d   1     -41.706-122.189 -53.810  0.00  0.00     0.087 A 
ATOM      3  C   UNL d   1     -42.208-121.939 -55.131  0.00  0.00     0.008 A 
ATOM      4  C   UNL d   1     -41.771-121.384 -53.638  0.00  0.00     0.019 A 
ATOM      5  C   UNL d   1     -42.272-121.127 -54.951  0.00  0.00     0.000 A 
ATOM      6  C   UNL d   1     -42.052-120.858 -54.203  0.00  0.00     0.002 A 
ENDROOT
BRANCH   2   7
ATOM      7  N   UNL d   1     -41.425-122.714 -53.245  0.00  0.00    -0.245 NA
BRANCH   7   8
ATOM      8  C   UNL d   1     -41.329-122.483 -52.453  0.00  0.00     0.081 A 
ATOM      9  C   UNL d   1     -41.342-123.031 -51.849  0.00  0.00     0.018 A 
ATOM     10  C   UNL d   1     -41.246-122.797 -51.061  0.00  0.00     0.002 A 
ATOM     11  C   UNL d   1     -41.451-123.817 -52.029  0.00  0.00     0.002 C 
ATOM     12  C   UNL d   1     -41.258-123.341 -50.462  0.00  0.00     0.000 C 
ATOM     13  C   UNL d   1     -41.135-121.987 -50.898  0.00  0.00     0.000 A 
ATOM     14  C   UNL d   1     -41.123-121.439 -51.502  0.00  0.00     0.002 A 
ATOM     15  C   UNL d   1     -41.220-121.675 -52.298  0.00  0.00     0.019 A 
ENDBRANCH   7   8
ENDBRANCH   2   7
BRANCH   1  16
ATOM     16  C   UNL d   1     -41.862-123.269 -54.738  0.00  0.00     0.212 C 
ATOM     17  O   UNL d   1     -42.533-123.740 -54.794  0.00  0.00    -0.644 OA
ATOM     18  O   UNL d   1     -41.128-123.611 -54.856  0.00  0.00    -0.644 OA
ENDBRANCH   1  16
TORSDOF 3
ENDMDL
MODEL 6
REMARK VINA RESULT:      -2.7      2.098      3.132
REMARK  3 active torsions:
REMARK  status: ('A' for Active; 'I' for Inactive)
REMARK    1  A    between atoms: C_4  and  C_1 
REMARK    2  A    between atoms: N_2  and  C_3 
REMARK    3  A    between atoms: C_5  and  N_2 
ROOT
ATOM      1  C   UNL d   1     -41.940-122.383 -51.574  0.00  0.00     0.082 A 
ATOM      2  C   UNL d   1     -41.810-122.811 -50.870  0.00  0.00     0.087 A 
ATOM      3  C   UNL d   1     -41.662-122.673 -52.290  0.00  0.00     0.008 A 
ATOM      4  C   UNL d   1     -41.400-123.527 -50.901  0.00  0.00     0.019 A 
ATOM      5  C   UNL d   1     -41.249-123.397 -52.316  0.00  0.00     0.000 A 
ATOM      6  C   UNL d   1     -41.123-123.817 -51.617  0.00  0.00     0.002 A 
ENDROOT
BRANCH   2   7
ATOM      7  N   UNL d   1     -42.087-122.521 -50.153  0.00  0.00    -0.245 NA
BRANCH   7   8
ATOM      8  C   UNL d   1     -41.978-122.945 -49.447  0.00  0.00     0.081 A 
ATOM      9  C   UNL d   1     -42.580-123.016 -48.900  0.00  0.00     0.018 A 
ATOM     10  C   UNL d   1     -42.467-123.438 -48.198  0.00  0.00     0.002 A 
ATOM     11  C   UNL d   1     -43.298-122.665 -49.054  0.00  0.00     0.002 C 
ATOM     12  C   UNL d   1     -43.064-123.509 -47.656  0.00  0.00     0.000 C 
ATOM     13  C   UNL d   1     -41.725-123.790 -48.060  0.00  0.00     0.000 A 
ATOM     14  C   UNL d   1     -41.123-123.719 -48.607  0.00  0.00     0.002 A 
ATOM     15  C   UNL d   1     -41.236-123.292 -49.317  0.00  0.00     0.019 A 
ENDBRANCH   7   8
ENDBRANCH   2   7
BRANCH   1  16
ATOM     16  C   UNL d   1     -42.350-121.667 -51.542  0.00  0.00     0.212 C 
ATOM     17  O   UNL d   1     -41.958-120.971 -51.354  0.00  0.00    -0.644 OA
ATOM     18  O   UNL d   1     -43.152-121.640 -51.698  0.00  0.00    -0.644 OA
ENDBRANCH   1  16
TORSDOF 3
ENDMDL
MODEL 7
REMARK VINA RESULT:      -2.7      1.272      1.784
REMARK  3 active torsions:
REMARK  status: ('A' for Active; 'I' for Inactive)
REMARK    1  A    between atoms: C_4  and  C_1 
REMARK    2  A    between atoms: N_2  and  C_3 
REMARK    3  A    between atoms: C_5  and  N_2 
ROOT
ATOM      1  C   UNL d   1     -41.906-122.369 -53.028  0.00  0.00     0.082 A 
ATOM      2  C   UNL d   1     -41.817-122.725 -52.278  0.00  0.00     0.087 A 
ATOM      3  C   UNL d   1     -41.606-122.738 -53.697  0.00  0.00     0.008 A 
ATOM      4  C   UNL d   1     -41.425-123.448 -52.218  0.00  0.00     0.019 A 
ATOM      5  C   UNL d   1     -41.210-123.469 -53.630  0.00  0.00     0.000 A 
ATOM      6  C   UNL d   1     -41.124-123.817 -52.887  0.00  0.00     0.002 A 
ENDROOT
BRANCH   2   7
ATOM      7  N   UNL d   1     -42.118-122.356 -51.609  0.00  0.00    -0.245 NA
BRANCH   7   8
ATOM      8  C   UNL d   1     -41.976-122.662 -50.849  0.00  0.00     0.081 A 
ATOM      9  C   UNL d   1     -42.514-122.557 -50.245  0.00  0.00     0.018 A 
ATOM     10  C   UNL d   1     -42.369-122.863 -49.491  0.00  0.00     0.002 A 
ATOM     11  C   UNL d   1     -43.200-122.145 -50.393  0.00  0.00     0.002 C 
ATOM     12  C   UNL d   1     -42.903-122.759 -48.890  0.00  0.00     0.000 C 
ATOM     13  C   UNL d   1     -41.661-123.282 -49.360  0.00  0.00     0.000 A 
ATOM     14  C   UNL d   1     -41.123-123.386 -49.964  0.00  0.00     0.002 A 
ATOM     15  C   UNL d   1     -41.268-123.078 -50.728  0.00  0.00     0.019 A 
ENDBRANCH   7   8
ENDBRANCH   2   7
BRANCH   1  16
ATOM     16  C   UNL d   1     -42.299-121.646 -53.089  0.00  0.00     0.212 C 
ATOM     17  O   UNL d   1     -41.927-120.950 -52.860  0.00  0.00    -0.644 OA
ATOM     18  O   UNL d   1     -43.064-121.610 -53.377  0.00  0.00    -0.644 OA
ENDBRANCH   1  16
TORSDOF 3
ENDMDL
