MODEL 1
REMARK VINA RESULT:      -8.4      0.000      0.000
REMARK  4 active torsions:
REMARK  status: ('A' for Active; 'I' for Inactive)
REMARK    1  A    between atoms: N_8  and  C_1 
REMARK    2  A    between atoms: C_13  and  N_4 
REMARK    3  A    between atoms: C_6  and  N_8 
REMARK    4  A    between atoms: C_14  and  C_9 
ROOT
ATOM      1  C   UNL d   1      53.278  32.477  53.160  0.00  0.00     0.135 A 
ATOM      2  C   UNL d   1      52.553  32.676  52.806  0.00  0.00     0.296 A 
ATOM      3  N   UNL d   1      52.813  33.565  53.763  0.00  0.00    -0.238 N 
ATOM      4  N   UNL d   1      52.268  33.350  53.182  0.00  0.00    -0.209 N 
ATOM      5  C   UNL d   1      53.426  33.025  53.742  0.00  0.00     0.102 A 
ATOM      6  O   UNL d   1      52.191  32.272  52.194  0.00  0.00    -0.264 OA
ATOM      7  C   UNL d   1      52.749  34.206  54.270  0.00  0.00     0.120 C 
ATOM      8  C   UNL d   1      54.093  33.039  54.237  0.00  0.00     0.022 C 
ENDROOT
BRANCH   1   9
ATOM      9  N   UNL d   1      53.754  31.836  52.952  0.00  0.00    -0.329 N 
ATOM     10  H   UNL d   1      54.460  31.966  52.540  0.00  0.00     0.168 HD
BRANCH   9  11
ATOM     11  C   UNL d   1      53.532  31.074  53.151  0.00  0.00     0.172 A 
ATOM     12  N   UNL d   1      53.666  30.699  53.867  0.00  0.00    -0.222 NA
ATOM     13  C   UNL d   1      53.348  29.937  53.821  0.00  0.00     0.090 A 
ATOM     14  C   UNL d   1      53.020  29.848  53.077  0.00  0.00     0.057 A 
ATOM     15  S   UNL d   1      53.132  30.553  52.657  0.00  0.00    -0.048 SA
BRANCH  13  16
ATOM     16  C   UNL d   1      53.362  29.376  54.420  0.00  0.00     0.018 A 
ATOM     17  C   UNL d   1      53.720  28.641  54.304  0.00  0.00     0.002 A 
ATOM     18  C   UNL d   1      53.729  28.086  54.912  0.00  0.00     0.000 A 
ATOM     19  C   UNL d   1      53.383  28.264  55.632  0.00  0.00     0.000 A 
ATOM     20  C   UNL d   1      53.029  28.984  55.756  0.00  0.00     0.000 A 
ATOM     21  C   UNL d   1      53.011  29.552  55.155  0.00  0.00     0.002 A 
ENDBRANCH  13  16
ENDBRANCH   9  11
ENDBRANCH   1   9
BRANCH   4  22
ATOM     22  C   UNL d   1      51.568  33.741  53.012  0.00  0.00     0.085 A 
ATOM     23  C   UNL d   1      50.900  33.621  53.481  0.00  0.00     0.019 A 
ATOM     24  C   UNL d   1      50.201  34.019  53.302  0.00  0.00     0.002 A 
ATOM     25  C   UNL d   1      50.170  34.533  52.659  0.00  0.00     0.000 A 
ATOM     26  C   UNL d   1      50.838  34.654  52.190  0.00  0.00     0.002 A 
ATOM     27  C   UNL d   1      51.537  34.259  52.364  0.00  0.00     0.019 A 
ENDBRANCH   4  22
TORSDOF 4
ENDMDL
MODEL 2
REMARK VINA RESULT:      -8.2      1.433      5.006
REMARK  4 active torsions:
REMARK  status: ('A' for Active; 'I' for Inactive)
REMARK    1  A    between atoms: N_8  and  C_1 
REMARK    2  A    between atoms: C_13  and  N_4 
REMARK    3  A    between atoms: C_6  and  N_8 
REMARK    4  A    between atoms: C_14  and  C_9 
ROOT
ATOM      1  C   UNL d   1      52.809  33.369  53.174  0.00  0.00     0.135 A 
ATOM      2  C   UNL d   1      52.765  32.583  52.910  0.00  0.00     0.296 A 
ATOM      3  N   UNL d   1      53.362  32.594  54.100  0.00  0.00    -0.238 N 
ATOM      4  N   UNL d   1      53.108  32.106  53.484  0.00  0.00    -0.209 N 
ATOM      5  C   UNL d   1      53.175  33.363  53.901  0.00  0.00     0.102 A 
ATOM      6  O   UNL d   1      52.439  32.332  52.203  0.00  0.00    -0.264 OA
ATOM      7  C   UNL d   1      53.735  32.347  54.787  0.00  0.00     0.120 C 
ATOM      8  C   UNL d   1      53.334  34.032  54.369  0.00  0.00     0.022 C 
ENDROOT
BRANCH   1   9
ATOM      9  N   UNL d   1      52.529  34.030  52.767  0.00  0.00    -0.329 N 
ATOM     10  H   UNL d   1      53.059  34.505  52.342  0.00  0.00     0.168 HD
BRANCH   9  11
ATOM     11  C   UNL d   1      51.734  34.218  52.781  0.00  0.00     0.172 A 
ATOM     12  N   UNL d   1      51.224  34.227  52.141  0.00  0.00    -0.222 NA
ATOM     13  C   UNL d   1      50.474  34.449  52.412  0.00  0.00     0.090 A 
ATOM     14  C   UNL d   1      50.527  34.574  53.218  0.00  0.00     0.057 A 
ATOM     15  S   UNL d   1      51.309  34.432  53.453  0.00  0.00    -0.048 SA
BRANCH  13  16
ATOM     16  C   UNL d   1      49.801  34.526  51.948  0.00  0.00     0.018 A 
ATOM     17  C   UNL d   1      49.795  34.267  51.164  0.00  0.00     0.002 A 
ATOM     18  C   UNL d   1      49.115  34.349  50.708  0.00  0.00     0.000 A 
ATOM     19  C   UNL d   1      48.445  34.689  51.033  0.00  0.00     0.000 A 
ATOM     20  C   UNL d   1      48.441  34.947  51.802  0.00  0.00     0.000 A 
ATOM     21  C   UNL d   1      49.116  34.871  52.273  0.00  0.00     0.002 A 
ENDBRANCH  13  16
ENDBRANCH   9  11
ENDBRANCH   1   9
BRANCH   4  22
ATOM     22  C   UNL d   1      53.186  31.290  53.455  0.00  0.00     0.085 A 
ATOM     23  C   UNL d   1      53.929  30.947  53.345  0.00  0.00     0.019 A 
ATOM     24  C   UNL d   1      53.997  30.126  53.317  0.00  0.00     0.002 A 
ATOM     25  C   UNL d   1      53.327  29.652  53.399  0.00  0.00     0.000 A 
ATOM     26  C   UNL d   1      52.585  29.995  53.510  0.00  0.00     0.002 A 
ATOM     27  C   UNL d   1      52.512  30.812  53.539  0.00  0.00     0.019 A 
ENDBRANCH   4  22
TORSDOF 4
ENDMDL
MODEL 3
REMARK VINA RESULT:      -7.7      1.933      5.119
REMARK  4 active torsions:
REMARK  status: ('A' for Active; 'I' for Inactive)
REMARK    1  A    between atoms: N_8  and  C_1 
REMARK    2  A    between atoms: C_13  and  N_4 
REMARK    3  A    between atoms: C_6  and  N_8 
REMARK    4  A    between atoms: C_14  and  C_9 
ROOT
ATOM      1  C   UNL d   1      52.648  33.121  52.885  0.00  0.00     0.135 A 
ATOM      2  C   UNL d   1      53.142  33.588  53.361  0.00  0.00     0.296 A 
ATOM      3  N   UNL d   1      53.417  32.306  53.599  0.00  0.00    -0.238 N 
ATOM      4  N   UNL d   1      53.617  33.081  53.802  0.00  0.00    -0.209 N 
ATOM      5  C   UNL d   1      52.824  32.341  53.038  0.00  0.00     0.102 A 
ATOM      6  O   UNL d   1      53.153  34.405  53.385  0.00  0.00    -0.264 OA
ATOM      7  C   UNL d   1      53.754  31.626  53.907  0.00  0.00     0.120 C 
ATOM      8  C   UNL d   1      52.461  31.683  52.683  0.00  0.00     0.022 C 
ENDROOT
BRANCH   1   9
ATOM      9  N   UNL d   1      52.083  33.404  52.354  0.00  0.00    -0.329 N 
ATOM     10  H   UNL d   1      52.268  33.462  51.549  0.00  0.00     0.168 HD
BRANCH   9  11
ATOM     11  C   UNL d   1      51.343  33.629  52.620  0.00  0.00     0.172 A 
ATOM     12  N   UNL d   1      50.844  34.176  52.269  0.00  0.00    -0.222 NA
ATOM     13  C   UNL d   1      50.157  34.227  52.727  0.00  0.00     0.090 A 
ATOM     14  C   UNL d   1      50.236  33.712  53.356  0.00  0.00     0.057 A 
ATOM     15  S   UNL d   1      50.973  33.337  53.294  0.00  0.00    -0.048 SA
BRANCH  13  16
ATOM     16  C   UNL d   1      49.513  34.712  52.569  0.00  0.00     0.018 A 
ATOM     17  C   UNL d   1      49.211  35.218  53.149  0.00  0.00     0.002 A 
ATOM     18  C   UNL d   1      48.566  35.699  52.980  0.00  0.00     0.000 A 
ATOM     19  C   UNL d   1      48.223  35.677  52.237  0.00  0.00     0.000 A 
ATOM     20  C   UNL d   1      48.513  35.184  51.661  0.00  0.00     0.000 A 
ATOM     21  C   UNL d   1      49.160  34.694  51.814  0.00  0.00     0.002 A 
ENDBRANCH  13  16
ENDBRANCH   9  11
ENDBRANCH   1   9
BRANCH   4  22
ATOM     22  C   UNL d   1      54.188  33.302  54.347  0.00  0.00     0.085 A 
ATOM     23  C   UNL d   1      54.012  33.313  55.154  0.00  0.00     0.019 A 
ATOM     24  C   UNL d   1      54.592  33.536  55.693  0.00  0.00     0.002 A 
ATOM     25  C   UNL d   1      55.344  33.748  55.430  0.00  0.00     0.000 A 
ATOM     26  C   UNL d   1      55.521  33.737  54.623  0.00  0.00     0.002 A 
ATOM     27  C   UNL d   1      54.945  33.515  54.081  0.00  0.00     0.019 A 
ENDBRANCH   4  22
TORSDOF 4
ENDMDL
MODEL 4
REMARK VINA RESULT:      -7.0      1.121      2.522
REMARK  4 active torsions:
REMARK  status: ('A' for Active; 'I' for Inactive)
REMARK    1  A    between atoms: N_8  and  C_1 
REMARK    2  A    between atoms: C_13  and  N_4 
REMARK    3  A    between atoms: C_6  and  N_8 
REMARK    4  A    between atoms: C_14  and  C_9 
ROOT
ATOM      1  C   UNL d   1      53.238  32.306  53.155  0.00  0.00     0.135 A 
ATOM      2  C   UNL d   1      53.948  32.462  53.555  0.00  0.00     0.296 A 
ATOM      3  N   UNL d   1      53.055  33.385  53.908  0.00  0.00    -0.238 N 
ATOM      4  N   UNL d   1      53.833  33.130  54.020  0.00  0.00    -0.209 N 
ATOM      5  C   UNL d   1      52.700  32.875  53.377  0.00  0.00     0.102 A 
ATOM      6  O   UNL d   1      54.638  32.027  53.495  0.00  0.00    -0.264 OA
ATOM      7  C   UNL d   1      52.705  34.034  54.265  0.00  0.00     0.120 C 
ATOM      8  C   UNL d   1      51.915  32.932  53.110  0.00  0.00     0.022 C 
ENDROOT
BRANCH   1   9
ATOM      9  N   UNL d   1      53.109  31.684  52.628  0.00  0.00    -0.329 N 
ATOM     10  H   UNL d   1      53.116  31.828  51.812  0.00  0.00     0.168 HD
BRANCH   9  11
ATOM     11  C   UNL d   1      52.974  30.927  52.907  0.00  0.00     0.172 A 
ATOM     12  N   UNL d   1      53.299  30.591  53.579  0.00  0.00    -0.222 NA
ATOM     13  C   UNL d   1      53.008  29.820  53.646  0.00  0.00     0.090 A 
ATOM     14  C   UNL d   1      52.506  29.686  53.016  0.00  0.00     0.057 A 
ATOM     15  S   UNL d   1      52.481  30.372  52.553  0.00  0.00    -0.048 SA
BRANCH  13  16
ATOM     16  C   UNL d   1      53.196  29.288  54.244  0.00  0.00     0.018 A 
ATOM     17  C   UNL d   1      53.634  28.607  54.084  0.00  0.00     0.002 A 
ATOM     18  C   UNL d   1      53.817  28.082  54.690  0.00  0.00     0.000 A 
ATOM     19  C   UNL d   1      53.564  28.236  55.454  0.00  0.00     0.000 A 
ATOM     20  C   UNL d   1      53.133  28.903  55.621  0.00  0.00     0.000 A 
ATOM     21  C   UNL d   1      52.941  29.441  55.023  0.00  0.00     0.002 A 
ENDBRANCH  13  16
ENDBRANCH   9  11
ENDBRANCH   1   9
BRANCH   4  22
ATOM     22  C   UNL d   1      54.387  33.484  54.510  0.00  0.00     0.085 A 
ATOM     23  C   UNL d   1      54.981  33.960  54.190  0.00  0.00     0.019 A 
ATOM     24  C   UNL d   1      55.533  34.310  54.690  0.00  0.00     0.002 A 
ATOM     25  C   UNL d   1      55.493  34.186  55.505  0.00  0.00     0.000 A 
ATOM     26  C   UNL d   1      54.900  33.710  55.824  0.00  0.00     0.002 A 
ATOM     27  C   UNL d   1      54.346  33.358  55.330  0.00  0.00     0.019 A 
ENDBRANCH   4  22
TORSDOF 4
ENDMDL
