MODEL 1
REMARK VINA RESULT:      -8.9      0.000      0.000
REMARK  0 active torsions:
REMARK  status: ('A' for Active; 'I' for Inactive)
REMARK       I    between atoms: N_3  and  C_1 
REMARK       I    between atoms: N_5  and  C_1 
REMARK       I    between atoms: C_2  and  N_4 
REMARK       I    between atoms: N_6  and  C_2 
ROOT
ATOM      1  C   UNL d   1      52.514  33.148  52.862  0.00  0.00     0.339 C 
ATOM      2  C   UNL d   1      49.737  34.930  52.797  0.00  0.00     0.340 C 
ATOM      3  N   UNL d   1      51.810  33.601  52.849  0.00  0.00    -0.254 N 
ATOM      4  N   UNL d   1      50.432  34.486  52.817  0.00  0.00    -0.254 N 
ATOM      5  N   UNL d   1      53.037  33.214  53.497  0.00  0.00    -0.258 N 
ATOM      6  N   UNL d   1      49.221  34.859  52.161  0.00  0.00    -0.253 N 
ATOM      7  O   UNL d   1      52.681  32.638  52.243  0.00  0.00    -0.245 OA
ATOM      8  O   UNL d   1      49.556  35.448  53.415  0.00  0.00    -0.245 OA
ATOM      9  C   UNL d   1      50.957  34.563  53.470  0.00  0.00     0.104 A 
ATOM     10  C   UNL d   1      50.609  33.975  52.205  0.00  0.00     0.104 A 
ATOM     11  C   UNL d   1      51.304  33.529  52.222  0.00  0.00     0.104 A 
ATOM     12  C   UNL d   1      51.651  34.117  53.486  0.00  0.00     0.104 A 
ATOM     13  O   UNL d   1      48.197  34.705  50.881  0.00  0.00    -0.300 OA
ATOM     14  C   UNL d   1      49.403  34.340  51.543  0.00  0.00     0.111 A 
ATOM     15  C   UNL d   1      48.527  35.304  52.145  0.00  0.00     0.111 A 
ATOM     16  C   UNL d   1      53.713  32.745  53.458  0.00  0.00     0.085 A 
ATOM     17  C   UNL d   1      52.815  33.745  54.093  0.00  0.00     0.085 A 
ATOM     18  C   UNL d   1      48.012  35.226  51.499  0.00  0.00     0.142 A 
ATOM     19  C   UNL d   1      48.894  34.264  50.908  0.00  0.00     0.142 A 
ATOM     20  C   UNL d   1      54.331  32.687  53.997  0.00  0.00     0.019 A 
ATOM     21  C   UNL d   1      53.215  33.931  54.790  0.00  0.00     0.019 A 
ATOM     22  C   UNL d   1      54.433  33.079  54.710  0.00  0.00     0.002 A 
ATOM     23  C   UNL d   1      53.934  33.635  55.062  0.00  0.00     0.002 A 
ENDROOT
TORSDOF 0
ENDMDL
MODEL 2
REMARK VINA RESULT:      -7.7      0.735      4.922
REMARK  0 active torsions:
REMARK  status: ('A' for Active; 'I' for Inactive)
REMARK       I    between atoms: N_3  and  C_1 
REMARK       I    between atoms: N_5  and  C_1 
REMARK       I    between atoms: C_2  and  N_4 
REMARK       I    between atoms: N_6  and  C_2 
ROOT
ATOM      1  C   UNL d   1      49.942  34.848  52.936  0.00  0.00     0.339 C 
ATOM      2  C   UNL d   1      52.699  33.034  52.984  0.00  0.00     0.340 C 
ATOM      3  N   UNL d   1      50.641  34.387  52.944  0.00  0.00    -0.254 N 
ATOM      4  N   UNL d   1      52.009  33.486  52.968  0.00  0.00    -0.254 N 
ATOM      5  N   UNL d   1      49.438  34.822  52.283  0.00  0.00    -0.258 N 
ATOM      6  N   UNL d   1      53.196  33.066  53.637  0.00  0.00    -0.253 N 
ATOM      7  O   UNL d   1      49.762  35.326  53.577  0.00  0.00    -0.245 OA
ATOM      8  O   UNL d   1      52.893  32.549  52.344  0.00  0.00    -0.245 OA
ATOM      9  C   UNL d   1      51.503  33.451  52.297  0.00  0.00     0.104 A 
ATOM     10  C   UNL d   1      51.819  33.966  53.601  0.00  0.00     0.104 A 
ATOM     11  C   UNL d   1      51.130  34.419  53.589  0.00  0.00     0.104 A 
ATOM     12  C   UNL d   1      50.814  33.904  52.285  0.00  0.00     0.104 A 
ATOM     13  O   UNL d   1      54.184  33.139  54.952  0.00  0.00    -0.300 OA
ATOM     14  C   UNL d   1      53.001  33.552  54.277  0.00  0.00     0.111 A 
ATOM     15  C   UNL d   1      53.886  32.612  53.649  0.00  0.00     0.111 A 
ATOM     16  C   UNL d   1      48.765  35.296  52.328  0.00  0.00     0.085 A 
ATOM     17  C   UNL d   1      49.672  34.322  51.666  0.00  0.00     0.085 A 
ATOM     18  C   UNL d   1      54.382  32.650  54.313  0.00  0.00     0.142 A 
ATOM     19  C   UNL d   1      53.492  33.588  54.929  0.00  0.00     0.142 A 
ATOM     20  C   UNL d   1      48.164  35.389  51.775  0.00  0.00     0.019 A 
ATOM     21  C   UNL d   1      49.290  34.177  50.948  0.00  0.00     0.019 A 
ATOM     22  C   UNL d   1      48.079  35.037  51.040  0.00  0.00     0.002 A 
ATOM     23  C   UNL d   1      48.583  34.496  50.672  0.00  0.00     0.002 A 
ENDROOT
TORSDOF 0
ENDMDL
MODEL 3
REMARK VINA RESULT:      -7.3     10.173     10.714
REMARK  0 active torsions:
REMARK  status: ('A' for Active; 'I' for Inactive)
REMARK       I    between atoms: N_3  and  C_1 
REMARK       I    between atoms: N_5  and  C_1 
REMARK       I    between atoms: C_2  and  N_4 
REMARK       I    between atoms: N_6  and  C_2 
ROOT
ATOM      1  C   UNL d   1      44.498  29.764  61.255  0.00  0.00     0.339 C 
ATOM      2  C   UNL d   1      44.618  30.735  58.103  0.00  0.00     0.340 C 
ATOM      3  N   UNL d   1      44.529  30.014  60.456  0.00  0.00    -0.254 N 
ATOM      4  N   UNL d   1      44.588  30.496  58.892  0.00  0.00    -0.254 N 
ATOM      5  N   UNL d   1      44.441  30.321  61.861  0.00  0.00    -0.258 N 
ATOM      6  N   UNL d   1      44.675  30.174  57.505  0.00  0.00    -0.253 N 
ATOM      7  O   UNL d   1      44.526  28.964  61.432  0.00  0.00    -0.245 OA
ATOM      8  O   UNL d   1      44.592  31.538  57.910  0.00  0.00    -0.245 OA
ATOM      9  C   UNL d   1      44.530  31.074  59.500  0.00  0.00     0.104 A 
ATOM     10  C   UNL d   1      44.615  29.702  59.081  0.00  0.00     0.104 A 
ATOM     11  C   UNL d   1      44.585  29.460  59.869  0.00  0.00     0.104 A 
ATOM     12  C   UNL d   1      44.500  30.831  60.288  0.00  0.00     0.104 A 
ATOM     13  O   UNL d   1      44.789  29.039  56.318  0.00  0.00    -0.300 OA
ATOM     14  C   UNL d   1      44.702  29.371  57.699  0.00  0.00     0.111 A 
ATOM     15  C   UNL d   1      44.705  30.417  56.717  0.00  0.00     0.111 A 
ATOM     16  C   UNL d   1      44.415  30.020  62.627  0.00  0.00     0.085 A 
ATOM     17  C   UNL d   1      44.417  31.114  61.620  0.00  0.00     0.085 A 
ATOM     18  C   UNL d   1      44.763  29.844  56.120  0.00  0.00     0.142 A 
ATOM     19  C   UNL d   1      44.758  28.808  57.109  0.00  0.00     0.142 A 
ATOM     20  C   UNL d   1      44.359  30.427  63.338  0.00  0.00     0.019 A 
ATOM     21  C   UNL d   1      44.362  31.791  62.089  0.00  0.00     0.019 A 
ATOM     22  C   UNL d   1      44.315  31.236  63.469  0.00  0.00     0.002 A 
ATOM     23  C   UNL d   1      44.317  31.843  62.909  0.00  0.00     0.002 A 
ENDROOT
TORSDOF 0
ENDMDL
MODEL 4
REMARK VINA RESULT:      -7.2      1.238      4.701
REMARK  0 active torsions:
REMARK  status: ('A' for Active; 'I' for Inactive)
REMARK       I    between atoms: N_3  and  C_1 
REMARK       I    between atoms: N_5  and  C_1 
REMARK       I    between atoms: C_2  and  N_4 
REMARK       I    between atoms: N_6  and  C_2 
ROOT
ATOM      1  C   UNL d   1      50.697  34.126  52.018  0.00  0.00     0.339 C 
ATOM      2  C   UNL d   1      52.943  34.119  54.435  0.00  0.00     0.340 C 
ATOM      3  N   UNL d   1      51.265  34.126  52.633  0.00  0.00    -0.254 N 
ATOM      4  N   UNL d   1      52.379  34.123  53.833  0.00  0.00    -0.254 N 
ATOM      5  N   UNL d   1      49.975  34.512  52.120  0.00  0.00    -0.258 N 
ATOM      6  N   UNL d   1      53.660  33.732  54.326  0.00  0.00    -0.253 N 
ATOM      7  O   UNL d   1      50.861  33.741  51.313  0.00  0.00    -0.245 OA
ATOM      8  O   UNL d   1      52.791  34.504  55.151  0.00  0.00    -0.245 OA
ATOM      9  C   UNL d   1      51.647  34.521  53.951  0.00  0.00     0.104 A 
ATOM     10  C   UNL d   1      52.531  33.743  53.127  0.00  0.00     0.104 A 
ATOM     11  C   UNL d   1      51.970  33.744  52.523  0.00  0.00     0.104 A 
ATOM     12  C   UNL d   1      51.086  34.522  53.346  0.00  0.00     0.104 A 
ATOM     13  O   UNL d   1      55.091  32.953  54.091  0.00  0.00    -0.300 OA
ATOM     14  C   UNL d   1      53.811  33.348  53.609  0.00  0.00     0.111 A 
ATOM     15  C   UNL d   1      54.221  33.731  54.930  0.00  0.00     0.111 A 
ATOM     16  C   UNL d   1      49.455  34.480  51.483  0.00  0.00     0.085 A 
ATOM     17  C   UNL d   1      49.867  34.884  52.853  0.00  0.00     0.085 A 
ATOM     18  C   UNL d   1      54.942  33.337  54.811  0.00  0.00     0.142 A 
ATOM     19  C   UNL d   1      54.522  32.961  53.494  0.00  0.00     0.142 A 
ATOM     20  C   UNL d   1      48.703  34.806  51.415  0.00  0.00     0.019 A 
ATOM     21  C   UNL d   1      49.212  35.310  53.121  0.00  0.00     0.019 A 
ATOM     22  C   UNL d   1      48.280  35.246  51.963  0.00  0.00     0.002 A 
ATOM     23  C   UNL d   1      48.508  35.470  52.724  0.00  0.00     0.002 A 
ENDROOT
TORSDOF 0
ENDMDL
MODEL 5
REMARK VINA RESULT:      -7.0      1.022      1.599
REMARK  0 active torsions:
REMARK  status: ('A' for Active; 'I' for Inactive)
REMARK       I    between atoms: N_3  and  C_1 
REMARK       I    between atoms: N_5  and  C_1 
REMARK       I    between atoms: C_2  and  N_4 
REMARK       I    between atoms: N_6  and  C_2 
ROOT
ATOM      1  C   UNL d   1      52.222  34.062  54.080  0.00  0.00     0.339 C 
ATOM      2  C   UNL d   1      49.709  34.356  51.962  0.00  0.00     0.340 C 
ATOM      3  N   UNL d   1      51.586  34.134  53.541  0.00  0.00    -0.254 N 
ATOM      4  N   UNL d   1      50.339  34.280  52.489  0.00  0.00    -0.254 N 
ATOM      5  N   UNL d   1      52.842  33.541  53.922  0.00  0.00    -0.258 N 
ATOM      6  N   UNL d   1      49.095  34.877  52.126  0.00  0.00    -0.253 N 
ATOM      7  O   UNL d   1      52.227  34.511  54.766  0.00  0.00    -0.245 OA
ATOM      8  O   UNL d   1      49.691  33.909  51.266  0.00  0.00    -0.245 OA
ATOM      9  C   UNL d   1      50.964  33.745  52.316  0.00  0.00     0.104 A 
ATOM     10  C   UNL d   1      50.354  34.722  53.175  0.00  0.00     0.104 A 
ATOM     11  C   UNL d   1      50.982  34.648  53.705  0.00  0.00     0.104 A 
ATOM     12  C   UNL d   1      51.593  33.671  52.846  0.00  0.00     0.104 A 
ATOM     13  O   UNL d   1      47.873  35.925  52.469  0.00  0.00    -0.300 OA
ATOM     14  C   UNL d   1      49.113  35.323  52.822  0.00  0.00     0.111 A 
ATOM     15  C   UNL d   1      48.467  34.950  51.596  0.00  0.00     0.111 A 
ATOM     16  C   UNL d   1      53.441  33.511  54.487  0.00  0.00     0.085 A 
ATOM     17  C   UNL d   1      52.782  33.115  53.214  0.00  0.00     0.085 A 
ATOM     18  C   UNL d   1      47.851  35.479  51.770  0.00  0.00     0.142 A 
ATOM     19  C   UNL d   1      48.506  35.843  52.991  0.00  0.00     0.142 A 
ATOM     20  C   UNL d   1      54.123  33.053  54.489  0.00  0.00     0.019 A 
ATOM     21  C   UNL d   1      53.307  32.557  52.904  0.00  0.00     0.019 A 
ATOM     22  C   UNL d   1      54.383  32.511  53.931  0.00  0.00     0.002 A 
ATOM     23  C   UNL d   1      54.017  32.291  53.224  0.00  0.00     0.002 A 
ENDROOT
TORSDOF 0
ENDMDL
MODEL 6
REMARK VINA RESULT:      -6.8     10.392     10.864
REMARK  0 active torsions:
REMARK  status: ('A' for Active; 'I' for Inactive)
REMARK       I    between atoms: N_3  and  C_1 
REMARK       I    between atoms: N_5  and  C_1 
REMARK       I    between atoms: C_2  and  N_4 
REMARK       I    between atoms: N_6  and  C_2 
ROOT
ATOM      1  C   UNL d   1      44.721  25.983  58.002  0.00  0.00     0.339 C 
ATOM      2  C   UNL d   1      44.965  29.214  57.377  0.00  0.00     0.340 C 
ATOM      3  N   UNL d   1      44.783  26.802  57.839  0.00  0.00    -0.254 N 
ATOM      4  N   UNL d   1      44.904  28.406  57.529  0.00  0.00    -0.254 N 
ATOM      5  N   UNL d   1      44.685  25.440  57.382  0.00  0.00    -0.258 N 
ATOM      6  N   UNL d   1      44.999  29.749  58.000  0.00  0.00    -0.253 N 
ATOM      7  O   UNL d   1      44.695  25.723  58.778  0.00  0.00    -0.245 OA
ATOM      8  O   UNL d   1      44.991  29.491  56.598  0.00  0.00    -0.245 OA
ATOM      9  C   UNL d   1      44.869  27.863  56.888  0.00  0.00     0.104 A 
ATOM     10  C   UNL d   1      44.878  28.135  58.299  0.00  0.00     0.104 A 
ATOM     11  C   UNL d   1      44.817  27.327  58.455  0.00  0.00     0.104 A 
ATOM     12  C   UNL d   1      44.808  27.055  57.044  0.00  0.00     0.104 A 
ATOM     13  O   UNL d   1      45.068  30.808  59.259  0.00  0.00    -0.300 OA
ATOM     14  C   UNL d   1      44.973  29.472  58.779  0.00  0.00     0.111 A 
ATOM     15  C   UNL d   1      45.060  30.557  57.844  0.00  0.00     0.111 A 
ATOM     16  C   UNL d   1      44.625  24.648  57.598  0.00  0.00     0.085 A 
ATOM     17  C   UNL d   1      44.715  25.762  56.619  0.00  0.00     0.085 A 
ATOM     18  C   UNL d   1      45.095  31.090  58.479  0.00  0.00     0.142 A 
ATOM     19  C   UNL d   1      45.007  29.998  59.403  0.00  0.00     0.142 A 
ATOM     20  C   UNL d   1      44.580  23.984  57.115  0.00  0.00     0.019 A 
ATOM     21  C   UNL d   1      44.692  25.368  55.893  0.00  0.00     0.019 A 
ATOM     22  C   UNL d   1      44.583  23.940  56.297  0.00  0.00     0.002 A 
ATOM     23  C   UNL d   1      44.633  24.559  55.752  0.00  0.00     0.002 A 
ENDROOT
TORSDOF 0
ENDMDL
MODEL 7
REMARK VINA RESULT:      -6.8      3.033      4.116
REMARK  0 active torsions:
REMARK  status: ('A' for Active; 'I' for Inactive)
REMARK       I    between atoms: N_3  and  C_1 
REMARK       I    between atoms: N_5  and  C_1 
REMARK       I    between atoms: C_2  and  N_4 
REMARK       I    between atoms: N_6  and  C_2 
ROOT
ATOM      1  C   UNL d   1      52.778  31.338  53.058  0.00  0.00     0.339 C 
ATOM      2  C   UNL d   1      53.608  33.935  54.916  0.00  0.00     0.340 C 
ATOM      3  N   UNL d   1      52.990  31.994  53.532  0.00  0.00    -0.254 N 
ATOM      4  N   UNL d   1      53.402  33.283  54.454  0.00  0.00    -0.254 N 
ATOM      5  N   UNL d   1      52.947  30.572  53.312  0.00  0.00    -0.258 N 
ATOM      6  N   UNL d   1      53.436  34.695  54.656  0.00  0.00    -0.253 N 
ATOM      7  O   UNL d   1      52.401  31.459  52.340  0.00  0.00    -0.245 OA
ATOM      8  O   UNL d   1      53.989  33.828  55.643  0.00  0.00    -0.245 OA
ATOM      9  C   UNL d   1      53.581  32.507  54.726  0.00  0.00     0.104 A 
ATOM     10  C   UNL d   1      53.027  33.392  53.738  0.00  0.00     0.104 A 
ATOM     11  C   UNL d   1      52.819  32.742  53.273  0.00  0.00     0.104 A 
ATOM     12  C   UNL d   1      53.373  31.858  54.261  0.00  0.00     0.104 A 
ATOM     13  O   UNL d   1      53.085  36.212  54.121  0.00  0.00    -0.300 OA
ATOM     14  C   UNL d   1      53.056  34.802  53.929  0.00  0.00     0.111 A 
ATOM     15  C   UNL d   1      53.644  35.344  55.121  0.00  0.00     0.111 A 
ATOM     16  C   UNL d   1      52.717  29.964  52.807  0.00  0.00     0.085 A 
ATOM     17  C   UNL d   1      53.329  30.512  54.046  0.00  0.00     0.085 A 
ATOM     18  C   UNL d   1      53.466  36.108  54.850  0.00  0.00     0.142 A 
ATOM     19  C   UNL d   1      52.882  35.555  53.664  0.00  0.00     0.142 A 
ATOM     20  C   UNL d   1      52.806  29.152  52.903  0.00  0.00     0.019 A 
ATOM     21  C   UNL d   1      53.569  29.831  54.446  0.00  0.00     0.019 A 
ATOM     22  C   UNL d   1      53.148  28.741  53.525  0.00  0.00     0.002 A 
ATOM     23  C   UNL d   1      53.488  29.045  54.213  0.00  0.00     0.002 A 
ENDROOT
TORSDOF 0
ENDMDL
MODEL 8
REMARK VINA RESULT:      -6.4      3.160      4.801
REMARK  0 active torsions:
REMARK  status: ('A' for Active; 'I' for Inactive)
REMARK       I    between atoms: N_3  and  C_1 
REMARK       I    between atoms: N_5  and  C_1 
REMARK       I    between atoms: C_2  and  N_4 
REMARK       I    between atoms: N_6  and  C_2 
ROOT
ATOM      1  C   UNL d   1      53.614  33.413  54.852  0.00  0.00     0.339 C 
ATOM      2  C   UNL d   1      52.835  30.715  53.118  0.00  0.00     0.340 C 
ATOM      3  N   UNL d   1      53.415  32.731  54.410  0.00  0.00    -0.254 N 
ATOM      4  N   UNL d   1      53.028  31.392  53.549  0.00  0.00    -0.254 N 
ATOM      5  N   UNL d   1      53.451  34.163  54.551  0.00  0.00    -0.258 N 
ATOM      6  N   UNL d   1      53.000  29.971  53.425  0.00  0.00    -0.253 N 
ATOM      7  O   UNL d   1      53.971  33.332  55.586  0.00  0.00    -0.245 OA
ATOM      8  O   UNL d   1      52.475  30.781  52.377  0.00  0.00    -0.245 OA
ATOM      9  C   UNL d   1      52.857  32.151  53.230  0.00  0.00     0.104 A 
ATOM     10  C   UNL d   1      53.384  31.324  54.280  0.00  0.00     0.104 A 
ATOM     11  C   UNL d   1      53.579  31.998  54.714  0.00  0.00     0.104 A 
ATOM     12  C   UNL d   1      53.051  32.826  53.664  0.00  0.00     0.104 A 
ATOM     13  O   UNL d   1      53.338  28.487  54.053  0.00  0.00    -0.300 OA
ATOM     14  C   UNL d   1      53.361  29.905  54.167  0.00  0.00     0.111 A 
ATOM     15  C   UNL d   1      52.806  29.296  52.992  0.00  0.00     0.111 A 
ATOM     16  C   UNL d   1      53.667  34.799  55.028  0.00  0.00     0.085 A 
ATOM     17  C   UNL d   1      53.089  34.182  53.806  0.00  0.00     0.085 A 
ATOM     18  C   UNL d   1      52.977  28.549  53.309  0.00  0.00     0.142 A 
ATOM     19  C   UNL d   1      53.528  29.168  54.477  0.00  0.00     0.142 A 
ATOM     20  C   UNL d   1      53.580  35.603  54.885  0.00  0.00     0.019 A 
ATOM     21  C   UNL d   1      52.859  34.839  53.362  0.00  0.00     0.019 A 
ATOM     22  C   UNL d   1      53.255  35.979  54.232  0.00  0.00     0.002 A 
ATOM     23  C   UNL d   1      52.934  35.636  53.553  0.00  0.00     0.002 A 
ENDROOT
TORSDOF 0
ENDMDL
MODEL 9
REMARK VINA RESULT:      -6.0      1.777      3.083
REMARK  0 active torsions:
REMARK  status: ('A' for Active; 'I' for Inactive)
REMARK       I    between atoms: N_3  and  C_1 
REMARK       I    between atoms: N_5  and  C_1 
REMARK       I    between atoms: C_2  and  N_4 
REMARK       I    between atoms: N_6  and  C_2 
ROOT
ATOM      1  C   UNL d   1      49.792  34.512  51.824  0.00  0.00     0.339 C 
ATOM      2  C   UNL d   1      47.169  36.127  53.008  0.00  0.00     0.340 C 
ATOM      3  N   UNL d   1      49.129  34.923  52.128  0.00  0.00    -0.254 N 
ATOM      4  N   UNL d   1      47.827  35.724  52.715  0.00  0.00    -0.254 N 
ATOM      5  N   UNL d   1      50.468  34.417  52.288  0.00  0.00    -0.258 N 
ATOM      6  N   UNL d   1      46.500  36.218  52.540  0.00  0.00    -0.253 N 
ATOM      7  O   UNL d   1      49.769  34.205  51.065  0.00  0.00    -0.245 OA
ATOM      8  O   UNL d   1      47.180  36.442  53.772  0.00  0.00    -0.245 OA
ATOM      9  C   UNL d   1      48.510  35.634  53.199  0.00  0.00     0.104 A 
ATOM     10  C   UNL d   1      47.815  35.414  51.961  0.00  0.00     0.104 A 
ATOM     11  C   UNL d   1      48.471  35.010  51.665  0.00  0.00     0.104 A 
ATOM     12  C   UNL d   1      49.165  35.231  52.903  0.00  0.00     0.104 A 
ATOM     13  O   UNL d   1      45.167  36.391  51.590  0.00  0.00    -0.300 OA
ATOM     14  C   UNL d   1      46.491  35.903  51.775  0.00  0.00     0.111 A 
ATOM     15  C   UNL d   1      45.845  36.622  52.836  0.00  0.00     0.111 A 
ATOM     16  C   UNL d   1      51.090  34.006  51.940  0.00  0.00     0.085 A 
ATOM     17  C   UNL d   1      50.433  34.749  53.047  0.00  0.00     0.085 A 
ATOM     18  C   UNL d   1      45.173  36.708  52.356  0.00  0.00     0.142 A 
ATOM     19  C   UNL d   1      45.828  35.989  51.304  0.00  0.00     0.142 A 
ATOM     20  C   UNL d   1      51.827  33.823  52.256  0.00  0.00     0.019 A 
ATOM     21  C   UNL d   1      51.012  34.747  53.636  0.00  0.00     0.019 A 
ATOM     22  C   UNL d   1      52.131  34.002  52.996  0.00  0.00     0.002 A 
ATOM     23  C   UNL d   1      51.765  34.415  53.611  0.00  0.00     0.002 A 
ENDROOT
TORSDOF 0
ENDMDL
