MODEL 1
REMARK VINA RESULT:      -7.0      0.000      0.000
REMARK  4 active torsions:
REMARK  status: ('A' for Active; 'I' for Inactive)
REMARK    1  A    between atoms: C_5  and  C_1 
REMARK    2  A    between atoms: C_11  and  C_2 
REMARK       I    between atoms: C_12  and  N_3 
REMARK    3  A    between atoms: C_15  and  N_7 
REMARK    4  A    between atoms: C_14  and  C_9 
ROOT
ATOM      1  C   UNL d   1      52.960  33.401  53.759  0.00  0.00     0.057 A 
ATOM      2  C   UNL d   1      52.885  34.186  54.043  0.00  0.00     0.110 A 
ATOM      3  N   UNL d   1      52.240  34.527  53.644  0.00  0.00    -0.165 NA
ATOM      4  N   UNL d   1      51.936  33.943  53.125  0.00  0.00    -0.228 N 
ATOM      5  C   UNL d   1      52.384  33.272  53.210  0.00  0.00     0.103 A 
ENDROOT
BRANCH   1   6
ATOM      6  C   UNL d   1      53.322  32.672  53.746  0.00  0.00     0.091 A 
ATOM      7  N   UNL d   1      54.106  32.528  53.486  0.00  0.00    -0.195 N 
ATOM      8  N   UNL d   1      54.257  31.705  53.564  0.00  0.00    -0.163 NA
ATOM      9  C   UNL d   1      54.649  33.066  53.204  0.00  0.00     0.281 C 
ATOM     10  C   UNL d   1      53.578  31.362  53.863  0.00  0.00     0.103 A 
ATOM     11  C   UNL d   1      53.001  31.939  53.979  0.00  0.00     0.040 A 
ATOM     12  O   UNL d   1      54.410  33.861  53.163  0.00  0.00    -0.265 OA
ATOM     13  C   UNL d   1      55.410  32.841  52.965  0.00  0.00     0.068 C 
BRANCH  10  14
ATOM     14  C   UNL d   1      53.457  30.555  54.037  0.00  0.00     0.019 A 
ATOM     15  C   UNL d   1      53.482  30.300  54.827  0.00  0.00     0.002 A 
ATOM     16  C   UNL d   1      53.367  29.523  55.022  0.00  0.00     0.000 A 
ATOM     17  C   UNL d   1      53.222  28.969  54.432  0.00  0.00     0.000 A 
ATOM     18  C   UNL d   1      53.197  29.220  53.646  0.00  0.00     0.000 A 
ATOM     19  C   UNL d   1      53.101  28.163  54.604  0.00  0.00     0.000 C 
ATOM     20  C   UNL d   1      53.312  30.001  53.446  0.00  0.00     0.002 A 
ENDBRANCH  10  14
ENDBRANCH   1   6
BRANCH   2  21
ATOM     21  C   UNL d   1      53.003  34.893  54.457  0.00  0.00     0.049 A 
ATOM     22  S   UNL d   1      52.988  34.960  55.280  0.00  0.00    -0.085 SA
ATOM     23  C   UNL d   1      53.134  35.774  55.442  0.00  0.00     0.035 A 
ATOM     24  C   UNL d   1      53.232  36.174  54.730  0.00  0.00     0.007 A 
ATOM     25  C   UNL d   1      53.149  35.615  54.115  0.00  0.00     0.009 A 
ENDBRANCH   2  21
BRANCH   4  26
ATOM     26  C   UNL d   1      51.279  34.061  52.617  0.00  0.00     0.083 A 
ATOM     27  C   UNL d   1      51.389  34.155  51.809  0.00  0.00     0.019 A 
ATOM     28  C   UNL d   1      50.724  34.269  51.345  0.00  0.00     0.002 A 
ATOM     29  C   UNL d   1      49.960  34.293  51.649  0.00  0.00     0.000 A 
ATOM     30  C   UNL d   1      49.866  34.195  52.475  0.00  0.00     0.002 A 
ATOM     31  C   UNL d   1      50.508  34.081  52.957  0.00  0.00     0.019 A 
ENDBRANCH   4  26
TORSDOF 4
ENDMDL
MODEL 2
REMARK VINA RESULT:      -6.0      1.265      4.391
REMARK  4 active torsions:
REMARK  status: ('A' for Active; 'I' for Inactive)
REMARK    1  A    between atoms: C_5  and  C_1 
REMARK    2  A    between atoms: C_11  and  C_2 
REMARK       I    between atoms: C_12  and  N_3 
REMARK    3  A    between atoms: C_15  and  N_7 
REMARK    4  A    between atoms: C_14  and  C_9 
ROOT
ATOM      1  C   UNL d   1      52.740  33.296  53.616  0.00  0.00     0.057 A 
ATOM      2  C   UNL d   1      53.358  33.198  54.174  0.00  0.00     0.110 A 
ATOM      3  N   UNL d   1      53.526  32.384  54.208  0.00  0.00    -0.165 NA
ATOM      4  N   UNL d   1      53.007  32.003  53.671  0.00  0.00    -0.228 N 
ATOM      5  C   UNL d   1      52.541  32.571  53.324  0.00  0.00     0.103 A 
ENDROOT
BRANCH   1   6
ATOM      6  C   UNL d   1      52.214  33.755  53.198  0.00  0.00     0.091 A 
ATOM      7  N   UNL d   1      52.416  34.258  52.557  0.00  0.00    -0.195 N 
ATOM      8  N   UNL d   1      51.711  34.627  52.287  0.00  0.00    -0.163 NA
ATOM      9  C   UNL d   1      53.152  34.387  52.233  0.00  0.00     0.281 C 
ATOM     10  C   UNL d   1      51.099  34.353  52.754  0.00  0.00     0.103 A 
ATOM     11  C   UNL d   1      51.391  33.821  53.313  0.00  0.00     0.040 A 
ATOM     12  O   UNL d   1      53.792  33.976  52.567  0.00  0.00    -0.265 OA
ATOM     13  C   UNL d   1      53.268  34.904  51.596  0.00  0.00     0.068 C 
BRANCH  10  14
ATOM     14  C   UNL d   1      50.293  34.559  52.700  0.00  0.00     0.019 A 
ATOM     15  C   UNL d   1      49.869  34.368  52.012  0.00  0.00     0.002 A 
ATOM     16  C   UNL d   1      49.087  34.557  51.934  0.00  0.00     0.000 A 
ATOM     17  C   UNL d   1      48.695  34.946  52.543  0.00  0.00     0.000 A 
ATOM     18  C   UNL d   1      49.115  35.138  53.228  0.00  0.00     0.000 A 
ATOM     19  C   UNL d   1      47.890  35.153  52.490  0.00  0.00     0.000 C 
ATOM     20  C   UNL d   1      49.902  34.949  53.310  0.00  0.00     0.002 A 
ENDBRANCH  10  14
ENDBRANCH   1   6
BRANCH   2  21
ATOM     21  C   UNL d   1      53.945  33.343  54.738  0.00  0.00     0.049 A 
ATOM     22  S   UNL d   1      53.796  33.536  55.527  0.00  0.00    -0.085 SA
ATOM     23  C   UNL d   1      54.554  33.631  55.883  0.00  0.00     0.035 A 
ATOM     24  C   UNL d   1      55.133  33.497  55.315  0.00  0.00     0.007 A 
ATOM     25  C   UNL d   1      54.745  33.317  54.598  0.00  0.00     0.009 A 
ENDBRANCH   2  21
BRANCH   4  26
ATOM     26  C   UNL d   1      52.994  31.175  53.536  0.00  0.00     0.083 A 
ATOM     27  C   UNL d   1      53.172  30.652  54.143  0.00  0.00     0.019 A 
ATOM     28  C   UNL d   1      53.150  29.852  53.973  0.00  0.00     0.002 A 
ATOM     29  C   UNL d   1      52.958  29.552  53.231  0.00  0.00     0.000 A 
ATOM     30  C   UNL d   1      52.779  30.100  52.625  0.00  0.00     0.002 A 
ATOM     31  C   UNL d   1      52.794  30.898  52.765  0.00  0.00     0.019 A 
ENDBRANCH   4  26
TORSDOF 4
ENDMDL
MODEL 3
REMARK VINA RESULT:      -5.4      1.678      5.098
REMARK  4 active torsions:
REMARK  status: ('A' for Active; 'I' for Inactive)
REMARK    1  A    between atoms: C_5  and  C_1 
REMARK    2  A    between atoms: C_11  and  C_2 
REMARK       I    between atoms: C_12  and  N_3 
REMARK    3  A    between atoms: C_15  and  N_7 
REMARK    4  A    between atoms: C_14  and  C_9 
ROOT
ATOM      1  C   UNL d   1      51.913  33.171  53.232  0.00  0.00     0.057 A 
ATOM      2  C   UNL d   1      52.209  32.389  53.283  0.00  0.00     0.110 A 
ATOM      3  N   UNL d   1      52.879  32.417  53.776  0.00  0.00    -0.165 NA
ATOM      4  N   UNL d   1      52.976  33.215  54.015  0.00  0.00    -0.228 N 
ATOM      5  C   UNL d   1      52.382  33.653  53.676  0.00  0.00     0.103 A 
ENDROOT
BRANCH   1   6
ATOM      6  C   UNL d   1      51.379  33.722  52.960  0.00  0.00     0.091 A 
ATOM      7  N   UNL d   1      51.442  34.138  52.234  0.00  0.00    -0.195 N 
ATOM      8  N   UNL d   1      50.778  34.648  52.170  0.00  0.00    -0.163 NA
ATOM      9  C   UNL d   1      52.030  34.082  51.673  0.00  0.00     0.281 C 
ATOM     10  C   UNL d   1      50.324  34.541  52.841  0.00  0.00     0.103 A 
ATOM     11  C   UNL d   1      50.677  33.980  53.331  0.00  0.00     0.040 A 
ATOM     12  O   UNL d   1      52.649  33.549  51.824  0.00  0.00    -0.265 OA
ATOM     13  C   UNL d   1      52.020  34.532  50.977  0.00  0.00     0.068 C 
BRANCH  10  14
ATOM     14  C   UNL d   1      49.608  34.924  53.032  0.00  0.00     0.019 A 
ATOM     15  C   UNL d   1      48.978  34.904  52.490  0.00  0.00     0.002 A 
ATOM     16  C   UNL d   1      48.274  35.268  52.650  0.00  0.00     0.000 A 
ATOM     17  C   UNL d   1      48.171  35.668  53.361  0.00  0.00     0.000 A 
ATOM     18  C   UNL d   1      48.795  35.690  53.901  0.00  0.00     0.000 A 
ATOM     19  C   UNL d   1      47.456  36.052  53.552  0.00  0.00     0.000 C 
ATOM     20  C   UNL d   1      49.506  35.325  53.743  0.00  0.00     0.002 A 
ENDBRANCH  10  14
ENDBRANCH   1   6
BRANCH   2  21
ATOM     21  C   UNL d   1      52.314  31.575  53.187  0.00  0.00     0.049 A 
ATOM     22  S   UNL d   1      51.822  30.999  53.517  0.00  0.00    -0.085 SA
ATOM     23  C   UNL d   1      52.143  30.260  53.271  0.00  0.00     0.035 A 
ATOM     24  C   UNL d   1      52.808  30.400  52.808  0.00  0.00     0.007 A 
ATOM     25  C   UNL d   1      52.911  31.227  52.759  0.00  0.00     0.009 A 
ENDBRANCH   2  21
BRANCH   4  26
ATOM     26  C   UNL d   1      53.590  33.485  54.519  0.00  0.00     0.083 A 
ATOM     27  C   UNL d   1      53.418  33.947  55.174  0.00  0.00     0.019 A 
ATOM     28  C   UNL d   1      54.043  34.191  55.643  0.00  0.00     0.002 A 
ATOM     29  C   UNL d   1      54.827  33.995  55.488  0.00  0.00     0.000 A 
ATOM     30  C   UNL d   1      54.984  33.522  54.815  0.00  0.00     0.002 A 
ATOM     31  C   UNL d   1      54.383  33.267  54.334  0.00  0.00     0.019 A 
ENDBRANCH   4  26
TORSDOF 4
ENDMDL
