MODEL 1
REMARK VINA RESULT:      31.1      0.000      0.000
REMARK  5 active torsions:
REMARK  status: ('A' for Active; 'I' for Inactive)
REMARK    1  A    between atoms: S_6  and  C_3 
REMARK    2  A    between atoms: C_10  and  C_4 
REMARK    3  A    between atoms: C_5  and  C_7 
REMARK    4  A    between atoms: C_9  and  C_5 
REMARK    5  A    between atoms: C_7  and  S_6 
ROOT
ATOM      1  N   UNL d   1      44.818 -14.530  43.867  0.00  0.00    -0.148 NA
ATOM      2  N   UNL d   1      44.767 -15.230  44.305  0.00  0.00    -0.141 NA
ATOM      3  C   UNL d   1      45.450 -15.645  44.508  0.00  0.00     0.133 A 
ATOM      4  C   UNL d   1      45.561 -14.248  43.632  0.00  0.00     0.103 A 
ATOM      5  C   UNL d   1      46.244 -14.657  43.830  0.00  0.00     0.023 A 
ATOM      6  C   UNL d   1      46.197 -15.354  44.266  0.00  0.00     0.029 A 
ENDROOT
BRANCH   3   7
ATOM      7  S   UNL d   1      45.395 -16.338  44.942  0.00  0.00    -0.062 SA
BRANCH   7   8
ATOM      8  C   UNL d   1      45.816 -17.007  44.707  0.00  0.00     0.079 C 
BRANCH   8   9
ATOM      9  C   UNL d   1      45.411 -17.671  44.398  0.00  0.00     0.202 C 
ATOM     10  O   UNL d   1      44.673 -17.866  44.685  0.00  0.00    -0.286 OA
BRANCH   9  11
ATOM     11  C   UNL d   1      45.761 -18.121  43.809  0.00  0.00     0.040 A 
ATOM     12  C   UNL d   1      46.083 -18.858  43.989  0.00  0.00     0.003 A 
ATOM     13  C   UNL d   1      46.437 -19.318  43.405  0.00  0.00     0.000 A 
ATOM     14  C   UNL d   1      46.466 -19.025  42.623  0.00  0.00     0.000 A 
ATOM     15  C   UNL d   1      46.144 -18.287  42.443  0.00  0.00     0.000 A 
ATOM     16  C   UNL d   1      45.794 -17.841  43.041  0.00  0.00     0.003 A 
ENDBRANCH   9  11
ENDBRANCH   8   9
ENDBRANCH   7   8
ENDBRANCH   3   7
BRANCH   4  17
ATOM     17  C   UNL d   1      45.612 -13.548  43.194  0.00  0.00     0.019 A 
ATOM     18  C   UNL d   1      44.953 -13.044  43.134  0.00  0.00     0.002 A 
ATOM     19  C   UNL d   1      45.005 -12.341  42.694  0.00  0.00     0.000 A 
ATOM     20  C   UNL d   1      45.716 -12.139  42.312  0.00  0.00     0.000 A 
ATOM     21  C   UNL d   1      46.364 -12.635  42.370  0.00  0.00     0.000 A 
ATOM     22  C   UNL d   1      46.324 -13.341  42.808  0.00  0.00     0.002 A 
ENDBRANCH   4  17
TORSDOF 5
ENDMDL
