MODEL 1
REMARK VINA RESULT:     110.4      0.000      0.000
REMARK  4 active torsions:
REMARK  status: ('A' for Active; 'I' for Inactive)
REMARK    1  A    between atoms: N_10  and  C_3 
REMARK    2  A    between atoms: C_11  and  C_5 
REMARK    3  A    between atoms: C_12  and  N_10 
REMARK    4  A    between atoms: O_21  and  C_14 
ROOT
ATOM      1  N   UNL d   1     -57.503 -98.824 -43.827  0.00  0.00    -0.184 N 
ATOM      2  C   UNL d   1     -58.119 -98.811 -44.396  0.00  0.00     0.168 A 
ATOM      3  C   UNL d   1     -57.690 -98.814 -43.021  0.00  0.00     0.217 A 
ATOM      4  N   UNL d   1     -56.540 -98.853 -44.869  0.00  0.00    -0.162 NA
ATOM      5  C   UNL d   1     -57.937 -98.820 -45.182  0.00  0.00     0.055 A 
ATOM      6  N   UNL d   1     -58.900 -98.790 -44.140  0.00  0.00    -0.227 NA
ATOM      7  C   UNL d   1     -58.466 -98.794 -42.784  0.00  0.00     0.066 A 
ATOM      8  C   UNL d   1     -57.147 -98.841 -45.429  0.00  0.00     0.104 A 
ATOM      9  C   UNL d   1     -59.088 -98.781 -43.347  0.00  0.00     0.087 A 
ATOM     10  C   UNL d   1     -58.815 -98.781 -42.051  0.00  0.00     0.006 A 
ATOM     11  C   UNL d   1     -56.971 -98.850 -46.228  0.00  0.00     0.023 C 
ATOM     12  C   UNL d   1     -59.803 -98.761 -42.947  0.00  0.00     0.019 A 
ATOM     13  C   UNL d   1     -59.628 -98.761 -42.135  0.00  0.00     0.002 A 
ENDROOT
BRANCH   3  14
ATOM     14  N   UNL d   1     -57.071 -98.827 -42.443  0.00  0.00    -0.383 NA
BRANCH  14  15
ATOM     15  C   UNL d   1     -56.485 -98.825 -41.842  0.00  0.00     0.134 A 
ATOM     16  C   UNL d   1     -55.676 -98.863 -42.027  0.00  0.00     0.034 A 
ATOM     17  C   UNL d   1     -55.092 -98.861 -41.423  0.00  0.00     0.027 A 
ATOM     18  C   UNL d   1     -55.319 -98.820 -40.611  0.00  0.00     0.094 A 
ATOM     19  C   UNL d   1     -56.152 -98.779 -40.410  0.00  0.00     0.027 A 
ATOM     20  C   UNL d   1     -56.732 -98.782 -41.017  0.00  0.00     0.034 A 
BRANCH  18  21
ATOM     21  O   UNL d   1     -54.738 -98.818 -40.004  0.00  0.00    -0.328 OA
ATOM     22  C   UNL d   1     -54.747 -99.413 -39.404  0.00  0.00     0.181 C 
ENDBRANCH  18  21
ENDBRANCH  14  15
ENDBRANCH   3  14
BRANCH   5  23
ATOM     23  C   UNL d   1     -58.540 -98.808 -45.740  0.00  0.00     0.004 A 
ATOM     24  C   UNL d   1     -59.325 -98.822 -45.499  0.00  0.00     0.000 A 
ATOM     25  C   UNL d   1     -59.929 -98.811 -46.051  0.00  0.00     0.000 A 
ATOM     26  C   UNL d   1     -59.747 -98.784 -46.855  0.00  0.00     0.000 A 
ATOM     27  C   UNL d   1     -58.975 -98.770 -47.101  0.00  0.00     0.000 A 
ATOM     28  C   UNL d   1     -58.365 -98.783 -46.537  0.00  0.00     0.000 A 
ENDBRANCH   5  23
TORSDOF 4
ENDMDL
