MODEL 1
REMARK VINA RESULT:      57.4      0.000      0.000
REMARK  3 active torsions:
REMARK  status: ('A' for Active; 'I' for Inactive)
REMARK    1  A    between atoms: C_5  and  N_1 
REMARK    2  A    between atoms: C_4  and  C_5 
REMARK       I    between atoms: N_8  and  C_4 
REMARK    3  A    between atoms: C_13  and  N_8 
ROOT
ATOM      1  C   UNL d   1     -51.201  26.192  33.957  0.00  0.00     0.297 C 
ATOM      2  N   UNL d   1     -51.266  25.701  33.306  0.00  0.00    -0.207 NA
ATOM      3  O   UNL d   1     -51.622  26.034  34.651  0.00  0.00    -0.264 OA
ENDROOT
BRANCH   1   4
ATOM      4  C   UNL d   1     -50.709  26.853  33.921  0.00  0.00     0.148 C 
BRANCH   4   5
ATOM      5  N   UNL d   1     -50.247  27.056  34.576  0.00  0.00    -0.235 N 
ATOM      6  C   UNL d   1     -49.437  27.208  34.478  0.00  0.00     0.274 A 
ATOM      7  O   UNL d   1     -49.094  27.155  33.725  0.00  0.00    -0.266 OA
ATOM      8  C   UNL d   1     -48.980  27.410  35.126  0.00  0.00     0.097 A 
ATOM      9  S   UNL d   1     -49.311  27.465  35.876  0.00  0.00    -0.076 SA
ATOM     10  C   UNL d   1     -50.113  27.315  35.977  0.00  0.00     0.097 A 
ATOM     11  C   UNL d   1     -50.588  27.110  35.333  0.00  0.00     0.274 A 
ATOM     12  O   UNL d   1     -51.392  26.960  35.431  0.00  0.00    -0.266 OA
ENDBRANCH   4   5
ENDBRANCH   1   4
BRANCH   2  13
ATOM     13  C   UNL d   1     -51.757  25.039  33.341  0.00  0.00     0.087 A 
ATOM     14  C   UNL d   1     -52.576  25.134  33.314  0.00  0.00     0.045 A 
ATOM     15  C   UNL d   1     -53.073  24.484  33.348  0.00  0.00     0.121 A 
ATOM     16  O   UNL d   1     -53.900  24.407  33.333  0.00  0.00    -0.299 OA
ATOM     17  C   UNL d   1     -52.753  23.724  33.410  0.00  0.00     0.119 A 
ATOM     18  C   UNL d   1     -54.081  23.599  33.387  0.00  0.00     0.304 A 
ATOM     19  O   UNL d   1     -53.372  23.188  33.433  0.00  0.00    -0.300 OA
ATOM     20  C   UNL d   1     -51.928  23.636  33.437  0.00  0.00     0.028 A 
ATOM     21  C   UNL d   1     -51.433  24.291  33.402  0.00  0.00     0.021 A 
ENDBRANCH   2  13
TORSDOF 3
ENDMDL
