MODEL 1
REMARK VINA RESULT:      -5.5      0.000      0.000
REMARK  2 active torsions:
REMARK  status: ('A' for Active; 'I' for Inactive)
REMARK    1  A    between atoms: N_2  and  S_1 
REMARK    2  A    between atoms: C_3  and  S_1 
ROOT
ATOM      1  N   UNL d   1     -41.525-122.875 -53.002  0.00  0.00    -0.231 N 
ATOM      2  C   UNL d   1     -41.450-122.508 -52.261  0.00  0.00     0.075 A 
ATOM      3  C   UNL d   1     -41.352-123.691 -52.873  0.00  0.00     0.092 A 
ATOM      4  C   UNL d   1     -41.236-123.103 -51.699  0.00  0.00     0.018 A 
ATOM      5  C   UNL d   1     -41.184-123.817 -52.106  0.00  0.00     0.021 A 
ATOM      6  C   UNL d   1     -41.541-121.740 -52.007  0.00  0.00     0.018 A 
ATOM      7  C   UNL d   1     -41.123-122.906 -50.918  0.00  0.00     0.002 A 
ATOM      8  C   UNL d   1     -41.428-121.535 -51.216  0.00  0.00     0.002 A 
ATOM      9  C   UNL d   1     -41.217-122.124 -50.670  0.00  0.00     0.000 A 
ENDROOT
BRANCH   1  10
ATOM     10  S   UNL d   1     -41.717-122.599 -53.747  0.00  0.00     0.277 S 
ATOM     11  O   UNL d   1     -42.303-123.199 -53.831  0.00  0.00    -0.199 OA
ATOM     12  O   UNL d   1     -41.134-121.987 -53.685  0.00  0.00    -0.199 OA
BRANCH  10  13
ATOM     13  C   UNL d   1     -41.919-122.332 -54.496  0.00  0.00     0.133 A 
ATOM     14  S   UNL d   1     -41.405-122.188 -55.148  0.00  0.00    -0.074 SA
ATOM     15  C   UNL d   1     -41.850-121.928 -55.779  0.00  0.00     0.036 A 
ATOM     16  C   UNL d   1     -42.646-121.892 -55.572  0.00  0.00     0.008 A 
ATOM     17  C   UNL d   1     -42.691-122.141 -54.780  0.00  0.00     0.020 A 
ENDBRANCH  10  13
ENDBRANCH   1  10
TORSDOF 2
ENDMDL
MODEL 2
REMARK VINA RESULT:      -5.2      2.532      4.263
REMARK  2 active torsions:
REMARK  status: ('A' for Active; 'I' for Inactive)
REMARK    1  A    between atoms: N_2  and  S_1 
REMARK    2  A    between atoms: C_3  and  S_1 
ROOT
ATOM      1  N   UNL d   1     -41.726-122.551 -50.750  0.00  0.00    -0.231 N 
ATOM      2  C   UNL d   1     -41.547-122.885 -51.489  0.00  0.00     0.075 A 
ATOM      3  C   UNL d   1     -41.615-121.719 -50.840  0.00  0.00     0.092 A 
ATOM      4  C   UNL d   1     -41.332-122.254 -52.011  0.00  0.00     0.018 A 
ATOM      5  C   UNL d   1     -41.384-121.552 -51.583  0.00  0.00     0.021 A 
ATOM      6  C   UNL d   1     -41.544-123.648 -51.770  0.00  0.00     0.018 A 
ATOM      7  C   UNL d   1     -41.126-122.415 -52.781  0.00  0.00     0.002 A 
ATOM      8  C   UNL d   1     -41.336-123.816 -52.550  0.00  0.00     0.002 A 
ATOM      9  C   UNL d   1     -41.126-123.192 -53.057  0.00  0.00     0.000 A 
ENDROOT
BRANCH   1  10
ATOM     10  S   UNL d   1     -41.965-122.867 -50.035  0.00  0.00     0.277 S 
ATOM     11  O   UNL d   1     -42.764-122.652 -50.194  0.00  0.00    -0.199 OA
ATOM     12  O   UNL d   1     -41.168-123.093 -49.854  0.00  0.00    -0.199 OA
BRANCH  10  13
ATOM     13  C   UNL d   1     -42.218-123.181 -49.321  0.00  0.00     0.133 A 
ATOM     14  S   UNL d   1     -41.759-123.321 -48.629  0.00  0.00    -0.074 SA
ATOM     15  C   UNL d   1     -42.242-123.639 -48.054  0.00  0.00     0.036 A 
ATOM     16  C   UNL d   1     -43.010-123.716 -48.338  0.00  0.00     0.008 A 
ATOM     17  C   UNL d   1     -42.998-123.434 -49.120  0.00  0.00     0.020 A 
ENDBRANCH  10  13
ENDBRANCH   1  10
TORSDOF 2
ENDMDL
