MODEL 1
REMARK VINA RESULT:      -8.4      0.000      0.000
REMARK  3 active torsions:
REMARK  status: ('A' for Active; 'I' for Inactive)
REMARK    1  A    between atoms: N_2  and  S_1 
REMARK    2  A    between atoms: C_5  and  S_1 
REMARK    3  A    between atoms: S_9  and  C_3 
ROOT
ATOM      1  S   UNL d   1      52.942  33.248  53.111  0.00  0.00     0.273 S 
ATOM      2  O   UNL d   1      52.983  32.591  52.612  0.00  0.00    -0.200 OA
ATOM      3  O   UNL d   1      53.698  32.956  53.205  0.00  0.00    -0.200 OA
ENDROOT
BRANCH   1   4
ATOM      4  N   UNL d   1      53.139  33.836  53.657  0.00  0.00    -0.208 N 
ATOM      5  C   UNL d   1      53.535  33.716  54.375  0.00  0.00     0.185 A 
ATOM      6  N   UNL d   1      53.618  34.448  54.747  0.00  0.00    -0.219 NA
ATOM      7  C   UNL d   1      53.273  35.018  54.258  0.00  0.00     0.121 A 
ATOM      8  C   UNL d   1      52.977  34.647  53.587  0.00  0.00     0.114 A 
BRANCH   5   9
ATOM      9  S   UNL d   1      53.801  32.987  54.668  0.00  0.00    -0.075 SA
ATOM     10  C   UNL d   1      54.232  32.961  55.368  0.00  0.00     0.077 C 
ENDBRANCH   5   9
ENDBRANCH   1   4
BRANCH   1  11
ATOM     11  C   UNL d   1      52.174  33.527  53.002  0.00  0.00     0.104 A 
ATOM     12  C   UNL d   1      52.032  34.096  52.429  0.00  0.00     0.013 A 
ATOM     13  C   UNL d   1      51.261  34.372  52.324  0.00  0.00     0.001 A 
ATOM     14  C   UNL d   1      50.645  34.080  52.789  0.00  0.00     0.000 A 
ATOM     15  C   UNL d   1      50.800  33.507  53.362  0.00  0.00     0.001 A 
ATOM     16  C   UNL d   1      49.877  34.358  52.681  0.00  0.00     0.000 C 
ATOM     17  C   UNL d   1      51.569  33.231  53.468  0.00  0.00     0.013 A 
ENDBRANCH   1  11
TORSDOF 3
ENDMDL
MODEL 2
REMARK VINA RESULT:      -8.4      1.093      2.953
REMARK  3 active torsions:
REMARK  status: ('A' for Active; 'I' for Inactive)
REMARK    1  A    between atoms: N_2  and  S_1 
REMARK    2  A    between atoms: C_5  and  S_1 
REMARK    3  A    between atoms: S_9  and  C_3 
ROOT
ATOM      1  S   UNL d   1      53.067  32.612  53.199  0.00  0.00     0.273 S 
ATOM      2  O   UNL d   1      53.205  31.799  53.139  0.00  0.00    -0.200 OA
ATOM      3  O   UNL d   1      52.533  32.345  52.642  0.00  0.00    -0.200 OA
ENDROOT
BRANCH   1   4
ATOM      4  N   UNL d   1      52.754  33.368  53.084  0.00  0.00    -0.208 N 
ATOM      5  C   UNL d   1      51.950  33.570  53.117  0.00  0.00     0.185 A 
ATOM      6  N   UNL d   1      51.883  34.379  52.971  0.00  0.00    -0.219 NA
ATOM      7  C   UNL d   1      52.645  34.675  52.848  0.00  0.00     0.121 A 
ATOM      8  C   UNL d   1      53.183  34.058  52.916  0.00  0.00     0.114 A 
BRANCH   5   9
ATOM      9  S   UNL d   1      51.324  33.048  53.271  0.00  0.00    -0.075 SA
ATOM     10  C   UNL d   1      50.551  33.330  53.284  0.00  0.00     0.077 C 
ENDBRANCH   5   9
ENDBRANCH   1   4
BRANCH   1  11
ATOM     11  C   UNL d   1      53.612  32.861  53.763  0.00  0.00     0.104 A 
ATOM     12  C   UNL d   1      54.366  33.076  53.524  0.00  0.00     0.013 A 
ATOM     13  C   UNL d   1      54.910  33.326  54.093  0.00  0.00     0.001 A 
ATOM     14  C   UNL d   1      54.696  33.359  54.889  0.00  0.00     0.000 A 
ATOM     15  C   UNL d   1      53.934  33.140  55.119  0.00  0.00     0.001 A 
ATOM     16  C   UNL d   1      55.241  33.608  55.454  0.00  0.00     0.000 C 
ATOM     17  C   UNL d   1      53.391  32.891  54.551  0.00  0.00     0.013 A 
ENDBRANCH   1  11
TORSDOF 3
ENDMDL
MODEL 3
REMARK VINA RESULT:      -8.0      1.947      2.796
REMARK  3 active torsions:
REMARK  status: ('A' for Active; 'I' for Inactive)
REMARK    1  A    between atoms: N_2  and  S_1 
REMARK    2  A    between atoms: C_5  and  S_1 
REMARK    3  A    between atoms: S_9  and  C_3 
ROOT
ATOM      1  S   UNL d   1      53.926  32.606  53.392  0.00  0.00     0.273 S 
ATOM      2  O   UNL d   1      54.742  32.511  53.300  0.00  0.00    -0.200 OA
ATOM      3  O   UNL d   1      54.225  33.364  53.339  0.00  0.00    -0.200 OA
ENDROOT
BRANCH   1   4
ATOM      4  N   UNL d   1      53.176  32.945  53.471  0.00  0.00    -0.208 N 
ATOM      5  C   UNL d   1      52.965  33.530  54.019  0.00  0.00     0.185 A 
ATOM      6  N   UNL d   1      52.167  33.709  53.908  0.00  0.00    -0.219 NA
ATOM      7  C   UNL d   1      51.888  33.235  53.291  0.00  0.00     0.121 A 
ATOM      8  C   UNL d   1      52.505  32.764  53.019  0.00  0.00     0.114 A 
BRANCH   5   9
ATOM      9  S   UNL d   1      53.468  33.873  54.582  0.00  0.00    -0.075 SA
ATOM     10  C   UNL d   1      53.199  34.501  55.040  0.00  0.00     0.077 C 
ENDBRANCH   5   9
ENDBRANCH   1   4
BRANCH   1  11
ATOM     11  C   UNL d   1      53.644  31.834  53.443  0.00  0.00     0.104 A 
ATOM     12  C   UNL d   1      53.321  31.480  52.778  0.00  0.00     0.013 A 
ATOM     13  C   UNL d   1      53.039  30.706  52.834  0.00  0.00     0.001 A 
ATOM     14  C   UNL d   1      53.084  30.296  53.549  0.00  0.00     0.000 A 
ATOM     15  C   UNL d   1      53.411  30.661  54.213  0.00  0.00     0.001 A 
ATOM     16  C   UNL d   1      52.802  29.524  53.602  0.00  0.00     0.000 C 
ATOM     17  C   UNL d   1      53.693  31.435  54.157  0.00  0.00     0.013 A 
ENDBRANCH   1  11
TORSDOF 3
ENDMDL
MODEL 4
REMARK VINA RESULT:      -7.6      1.707      2.607
REMARK  3 active torsions:
REMARK  status: ('A' for Active; 'I' for Inactive)
REMARK    1  A    between atoms: N_2  and  S_1 
REMARK    2  A    between atoms: C_5  and  S_1 
REMARK    3  A    between atoms: S_9  and  C_3 
ROOT
ATOM      1  S   UNL d   1      54.134  32.625  53.475  0.00  0.00     0.273 S 
ATOM      2  O   UNL d   1      54.948  32.730  53.567  0.00  0.00    -0.200 OA
ATOM      3  O   UNL d   1      54.475  31.977  53.113  0.00  0.00    -0.200 OA
ENDROOT
BRANCH   1   4
ATOM      4  N   UNL d   1      53.399  32.310  53.266  0.00  0.00    -0.208 N 
ATOM      5  C   UNL d   1      53.159  31.524  53.376  0.00  0.00     0.185 A 
ATOM      6  N   UNL d   1      52.389  31.448  53.090  0.00  0.00    -0.219 NA
ATOM      7  C   UNL d   1      52.154  32.188  52.804  0.00  0.00     0.121 A 
ATOM      8  C   UNL d   1      52.772  32.721  52.910  0.00  0.00     0.114 A 
BRANCH   5   9
ATOM      9  S   UNL d   1      53.615  30.920  53.714  0.00  0.00    -0.075 SA
ATOM     10  C   UNL d   1      53.324  30.151  53.734  0.00  0.00     0.077 C 
ENDBRANCH   5   9
ENDBRANCH   1   4
BRANCH   1  11
ATOM     11  C   UNL d   1      53.809  33.285  53.846  0.00  0.00     0.104 A 
ATOM     12  C   UNL d   1      53.573  33.924  53.390  0.00  0.00     0.013 A 
ATOM     13  C   UNL d   1      53.248  34.584  53.766  0.00  0.00     0.001 A 
ATOM     14  C   UNL d   1      53.163  34.598  54.587  0.00  0.00     0.000 A 
ATOM     15  C   UNL d   1      53.403  33.948  55.036  0.00  0.00     0.001 A 
ATOM     16  C   UNL d   1      52.838  35.257  54.958  0.00  0.00     0.000 C 
ATOM     17  C   UNL d   1      53.728  33.290  54.660  0.00  0.00     0.013 A 
ENDBRANCH   1  11
TORSDOF 3
ENDMDL
