MODEL 1
REMARK VINA RESULT:      -8.8      0.000      0.000
REMARK  6 active torsions:
REMARK  status: ('A' for Active; 'I' for Inactive)
REMARK    1  A    between atoms: S_12  and  C_5 
REMARK    2  A    between atoms: C_16  and  C_6 
REMARK    3  A    between atoms: C_10  and  C_14 
REMARK    4  A    between atoms: C_19  and  S_12 
REMARK    5  A    between atoms: C_13  and  C_19 
REMARK       I    between atoms: N_15  and  C_13 
REMARK    6  A    between atoms: C_22  and  N_15 
ROOT
ATOM      1  C   UNL d   1      53.684  31.527  53.946  0.00  0.00     0.186 A 
ATOM      2  C   UNL d   1      53.068  31.832  53.479  0.00  0.00     0.065 A 
ATOM      3  N   UNL d   1      54.209  32.035  54.325  0.00  0.00    -0.203 NA
ATOM      4  N   UNL d   1      53.501  33.153  53.771  0.00  0.00    -0.220 NA
ATOM      5  C   UNL d   1      52.986  32.640  53.399  0.00  0.00     0.116 A 
ATOM      6  C   UNL d   1      54.119  32.852  54.239  0.00  0.00     0.165 A 
ATOM      7  O   UNL d   1      53.773  30.706  54.031  0.00  0.00    -0.289 OA
ATOM      8  C   UNL d   1      52.544  31.314  53.101  0.00  0.00     0.007 A 
ATOM      9  C   UNL d   1      53.256  30.189  53.658  0.00  0.00     0.102 A 
ATOM     10  C   UNL d   1      52.637  30.496  53.189  0.00  0.00     0.023 A 
ATOM     11  C   UNL d   1      53.340  29.384  53.739  0.00  0.00     0.025 A 
ATOM     12  C   UNL d   1      52.116  29.977  52.813  0.00  0.00     0.002 A 
ATOM     13  C   UNL d   1      52.211  29.162  52.902  0.00  0.00     0.000 A 
ATOM     14  C   UNL d   1      52.824  28.858  53.367  0.00  0.00     0.002 A 
ENDROOT
BRANCH   5  15
ATOM     15  S   UNL d   1      52.367  32.938  52.930  0.00  0.00    -0.062 SA
BRANCH  15  16
ATOM     16  C   UNL d   1      52.106  33.713  53.052  0.00  0.00     0.099 C 
BRANCH  16  17
ATOM     17  C   UNL d   1      51.448  33.995  52.649  0.00  0.00     0.286 C 
ATOM     18  N   UNL d   1      50.739  34.104  53.048  0.00  0.00    -0.208 NA
ATOM     19  O   UNL d   1      51.496  34.170  51.846  0.00  0.00    -0.265 OA
BRANCH  18  20
ATOM     20  C   UNL d   1      50.078  34.386  52.645  0.00  0.00     0.085 A 
ATOM     21  C   UNL d   1      49.901  34.095  51.900  0.00  0.00     0.019 A 
ATOM     22  C   UNL d   1      49.247  34.372  51.498  0.00  0.00     0.008 A 
ATOM     23  C   UNL d   1      48.762  34.950  51.846  0.00  0.00     0.065 A 
ATOM     24  C   UNL d   1      48.943  35.239  52.592  0.00  0.00     0.008 A 
ATOM     25  C   UNL d   1      49.602  34.959  52.997  0.00  0.00     0.019 A 
BRANCH  23  26
ATOM     26  C   UNL d   1      48.103  35.233  51.446  0.00  0.00     0.211 C 
ATOM     27  O   UNL d   1      47.801  34.805  50.810  0.00  0.00    -0.644 OA
ATOM     28  O   UNL d   1      47.744  35.937  51.676  0.00  0.00    -0.644 OA
ENDBRANCH  23  26
ENDBRANCH  18  20
ENDBRANCH  16  17
ENDBRANCH  15  16
ENDBRANCH   5  15
BRANCH   6  29
ATOM     29  C   UNL d   1      54.643  33.360  54.618  0.00  0.00     0.036 A 
ATOM     30  C   UNL d   1      55.343  33.590  54.234  0.00  0.00     0.003 A 
ATOM     31  C   UNL d   1      55.871  34.098  54.610  0.00  0.00     0.000 A 
ATOM     32  C   UNL d   1      55.704  34.380  55.369  0.00  0.00     0.000 A 
ATOM     33  C   UNL d   1      55.008  34.154  55.756  0.00  0.00     0.000 A 
ATOM     34  C   UNL d   1      54.477  33.640  55.373  0.00  0.00     0.003 A 
ENDBRANCH   6  29
TORSDOF 6
ENDMDL
MODEL 2
REMARK VINA RESULT:      -8.0      0.895      3.350
REMARK  6 active torsions:
REMARK  status: ('A' for Active; 'I' for Inactive)
REMARK    1  A    between atoms: S_12  and  C_5 
REMARK    2  A    between atoms: C_16  and  C_6 
REMARK    3  A    between atoms: C_10  and  C_14 
REMARK    4  A    between atoms: C_19  and  S_12 
REMARK    5  A    between atoms: C_13  and  C_19 
REMARK       I    between atoms: N_15  and  C_13 
REMARK    6  A    between atoms: C_22  and  N_15 
ROOT
ATOM      1  C   UNL d   1      53.783  32.413  54.171  0.00  0.00     0.186 A 
ATOM      2  C   UNL d   1      53.195  32.975  54.001  0.00  0.00     0.065 A 
ATOM      3  N   UNL d   1      53.691  31.631  53.935  0.00  0.00    -0.203 NA
ATOM      4  N   UNL d   1      52.423  31.971  53.358  0.00  0.00    -0.220 NA
ATOM      5  C   UNL d   1      52.524  32.746  53.596  0.00  0.00     0.116 A 
ATOM      6  C   UNL d   1      53.009  31.406  53.526  0.00  0.00     0.165 A 
ATOM      7  O   UNL d   1      54.468  32.641  54.582  0.00  0.00    -0.289 OA
ATOM      8  C   UNL d   1      53.295  33.761  54.242  0.00  0.00     0.007 A 
ATOM      9  C   UNL d   1      54.571  33.419  54.823  0.00  0.00     0.102 A 
ATOM     10  C   UNL d   1      53.980  33.983  54.651  0.00  0.00     0.023 A 
ATOM     11  C   UNL d   1      55.240  33.646  55.225  0.00  0.00     0.025 A 
ATOM     12  C   UNL d   1      54.082  34.766  54.893  0.00  0.00     0.002 A 
ATOM     13  C   UNL d   1      54.766  34.985  55.301  0.00  0.00     0.000 A 
ATOM     14  C   UNL d   1      55.351  34.426  55.471  0.00  0.00     0.002 A 
ENDROOT
BRANCH   5  15
ATOM     15  S   UNL d   1      51.940  33.313  53.430  0.00  0.00    -0.062 SA
BRANCH  15  16
ATOM     16  C   UNL d   1      51.498  33.245  52.734  0.00  0.00     0.099 C 
BRANCH  16  17
ATOM     17  C   UNL d   1      50.759  33.600  52.677  0.00  0.00     0.286 C 
ATOM     18  N   UNL d   1      50.612  34.145  52.082  0.00  0.00    -0.208 NA
ATOM     19  O   UNL d   1      50.166  33.411  53.215  0.00  0.00    -0.265 OA
BRANCH  18  20
ATOM     20  C   UNL d   1      49.871  34.502  52.024  0.00  0.00     0.085 A 
ATOM     21  C   UNL d   1      49.598  34.973  52.637  0.00  0.00     0.019 A 
ATOM     22  C   UNL d   1      48.866  35.328  52.583  0.00  0.00     0.008 A 
ATOM     23  C   UNL d   1      48.398  35.212  51.907  0.00  0.00     0.065 A 
ATOM     24  C   UNL d   1      48.675  34.740  51.295  0.00  0.00     0.008 A 
ATOM     25  C   UNL d   1      49.414  34.382  51.350  0.00  0.00     0.019 A 
BRANCH  23  26
ATOM     26  C   UNL d   1      47.660  35.567  51.847  0.00  0.00     0.211 C 
ATOM     27  O   UNL d   1      47.033  35.146  51.516  0.00  0.00    -0.644 OA
ATOM     28  O   UNL d   1      47.543  36.337  52.113  0.00  0.00    -0.644 OA
ENDBRANCH  23  26
ENDBRANCH  18  20
ENDBRANCH  16  17
ENDBRANCH  15  16
ENDBRANCH   5  15
BRANCH   6  29
ATOM     29  C   UNL d   1      52.916  30.624  53.290  0.00  0.00     0.036 A 
ATOM     30  C   UNL d   1      52.795  30.033  53.861  0.00  0.00     0.003 A 
ATOM     31  C   UNL d   1      52.702  29.248  53.629  0.00  0.00     0.000 A 
ATOM     32  C   UNL d   1      52.730  29.048  52.827  0.00  0.00     0.000 A 
ATOM     33  C   UNL d   1      52.851  29.633  52.254  0.00  0.00     0.000 A 
ATOM     34  C   UNL d   1      52.944  30.425  52.492  0.00  0.00     0.003 A 
ENDBRANCH   6  29
TORSDOF 6
ENDMDL
