MODEL 1
REMARK VINA RESULT:      -7.7      0.000      0.000
REMARK  1 active torsions:
REMARK  status: ('A' for Active; 'I' for Inactive)
REMARK       I    between atoms: C_2  and  N_1 
REMARK    1  A    between atoms: C_4  and  C_2 
ROOT
ATOM      1  N   UNL d   1     -48.631  12.806  22.985  0.00  0.00    -0.273 N 
ATOM      2  C   UNL d   1     -48.237  13.445  22.594  0.00  0.00     0.271 C 
ATOM      3  C   UNL d   1     -49.442  12.679  23.053  0.00  0.00     0.067 A 
ATOM      4  C   UNL d   1     -48.260  12.168  23.387  0.00  0.00     0.083 A 
ATOM      5  O   UNL d   1     -48.703  14.026  22.226  0.00  0.00    -0.266 OA
ATOM      6  C   UNL d   1     -49.575  11.987  23.480  0.00  0.00     0.018 A 
ATOM      7  C   UNL d   1     -48.833  11.676  23.684  0.00  0.00     0.021 A 
ATOM      8  C   UNL d   1     -50.071  13.127  22.765  0.00  0.00     0.018 A 
ATOM      9  C   UNL d   1     -50.337  11.737  23.625  0.00  0.00     0.002 A 
ATOM     10  C   UNL d   1     -50.838  12.877  22.910  0.00  0.00     0.002 A 
ATOM     11  C   UNL d   1     -50.985  12.163  23.351  0.00  0.00     0.000 A 
ENDROOT
BRANCH   2  12
ATOM     12  C   UNL d   1     -47.403  13.483  22.582  0.00  0.00     0.086 A 
ATOM     13  S   UNL d   1     -46.831  13.008  22.238  0.00  0.00    -0.082 SA
ATOM     14  C   UNL d   1     -46.093  13.337  22.424  0.00  0.00     0.036 A 
ATOM     15  C   UNL d   1     -46.194  14.007  22.878  0.00  0.00     0.008 A 
ATOM     16  C   UNL d   1     -47.009  14.107  22.982  0.00  0.00     0.012 A 
ENDBRANCH   2  12
TORSDOF 1
ENDMDL
MODEL 2
REMARK VINA RESULT:      -7.6      1.496      1.610
REMARK  1 active torsions:
REMARK  status: ('A' for Active; 'I' for Inactive)
REMARK       I    between atoms: C_2  and  N_1 
REMARK    1  A    between atoms: C_4  and  C_2 
ROOT
ATOM      1  N   UNL d   1     -48.718  13.582  22.266  0.00  0.00    -0.273 N 
ATOM      2  C   UNL d   1     -48.159  13.960  22.777  0.00  0.00     0.271 C 
ATOM      3  C   UNL d   1     -49.497  13.805  22.117  0.00  0.00     0.067 A 
ATOM      4  C   UNL d   1     -48.580  12.892  21.807  0.00  0.00     0.083 A 
ATOM      5  O   UNL d   1     -48.401  14.641  23.188  0.00  0.00    -0.266 OA
ATOM      6  C   UNL d   1     -49.834  13.276  21.584  0.00  0.00     0.018 A 
ATOM      7  C   UNL d   1     -49.256  12.711  21.396  0.00  0.00     0.021 A 
ATOM      8  C   UNL d   1     -49.929  14.440  22.416  0.00  0.00     0.018 A 
ATOM      9  C   UNL d   1     -50.607  13.375  21.344  0.00  0.00     0.002 A 
ATOM     10  C   UNL d   1     -50.706  14.541  22.176  0.00  0.00     0.002 A 
ATOM     11  C   UNL d   1     -51.064  13.999  21.625  0.00  0.00     0.000 A 
ENDROOT
BRANCH   2  12
ATOM     12  C   UNL d   1     -47.387  13.652  22.860  0.00  0.00     0.086 A 
ATOM     13  S   UNL d   1     -47.100  12.951  23.173  0.00  0.00    -0.082 SA
ATOM     14  C   UNL d   1     -46.276  12.967  23.097  0.00  0.00     0.036 A 
ATOM     15  C   UNL d   1     -46.041  13.664  22.743  0.00  0.00     0.008 A 
ATOM     16  C   UNL d   1     -46.729  14.098  22.591  0.00  0.00     0.012 A 
ENDBRANCH   2  12
TORSDOF 1
ENDMDL
MODEL 3
REMARK VINA RESULT:      -6.7      0.882      1.362
REMARK  1 active torsions:
REMARK  status: ('A' for Active; 'I' for Inactive)
REMARK       I    between atoms: C_2  and  N_1 
REMARK    1  A    between atoms: C_4  and  C_2 
ROOT
ATOM      1  N   UNL d   1     -48.459  13.086  22.932  0.00  0.00    -0.273 N 
ATOM      2  C   UNL d   1     -47.756  12.621  22.849  0.00  0.00     0.271 C 
ATOM      3  C   UNL d   1     -49.216  12.826  23.129  0.00  0.00     0.067 A 
ATOM      4  C   UNL d   1     -48.518  13.917  22.826  0.00  0.00     0.083 A 
ATOM      5  O   UNL d   1     -47.811  11.802  22.978  0.00  0.00    -0.266 OA
ATOM      6  C   UNL d   1     -49.729  13.470  23.146  0.00  0.00     0.018 A 
ATOM      7  C   UNL d   1     -49.285  14.145  22.956  0.00  0.00     0.021 A 
ATOM      8  C   UNL d   1     -49.484  12.065  23.295  0.00  0.00     0.018 A 
ATOM      9  C   UNL d   1     -50.516  13.360  23.329  0.00  0.00     0.002 A 
ATOM     10  C   UNL d   1     -50.275  11.953  23.479  0.00  0.00     0.002 A 
ATOM     11  C   UNL d   1     -50.814  12.612  23.499  0.00  0.00     0.000 A 
ENDROOT
BRANCH   2  12
ATOM     12  C   UNL d   1     -47.033  12.982  22.644  0.00  0.00     0.086 A 
ATOM     13  S   UNL d   1     -46.797  13.424  21.995  0.00  0.00    -0.082 SA
ATOM     14  C   UNL d   1     -46.003  13.630  22.112  0.00  0.00     0.036 A 
ATOM     15  C   UNL d   1     -45.738  13.326  22.822  0.00  0.00     0.008 A 
ATOM     16  C   UNL d   1     -46.374  12.920  23.161  0.00  0.00     0.012 A 
ENDBRANCH   2  12
TORSDOF 1
ENDMDL
MODEL 4
REMARK VINA RESULT:      -5.5      1.457      2.767
REMARK  1 active torsions:
REMARK  status: ('A' for Active; 'I' for Inactive)
REMARK       I    between atoms: C_2  and  N_1 
REMARK    1  A    between atoms: C_4  and  C_2 
ROOT
ATOM      1  N   UNL d   1     -48.427  13.095  23.157  0.00  0.00    -0.273 N 
ATOM      2  C   UNL d   1     -48.424  13.911  22.934  0.00  0.00     0.271 C 
ATOM      3  C   UNL d   1     -47.779  12.613  23.319  0.00  0.00     0.067 A 
ATOM      4  C   UNL d   1     -49.107  12.612  23.256  0.00  0.00     0.083 A 
ATOM      5  O   UNL d   1     -47.690  14.295  22.864  0.00  0.00    -0.266 OA
ATOM      6  C   UNL d   1     -48.042  11.857  23.513  0.00  0.00     0.018 A 
ATOM      7  C   UNL d   1     -48.871  11.866  23.471  0.00  0.00     0.021 A 
ATOM      8  C   UNL d   1     -46.974  12.792  23.308  0.00  0.00     0.018 A 
ATOM      9  C   UNL d   1     -47.505  11.272  23.698  0.00  0.00     0.002 A 
ATOM     10  C   UNL d   1     -46.433  12.205  23.494  0.00  0.00     0.002 A 
ATOM     11  C   UNL d   1     -46.696  11.421  23.696  0.00  0.00     0.000 A 
ENDROOT
BRANCH   2  12
ATOM     12  C   UNL d   1     -49.141  14.313  22.790  0.00  0.00     0.086 A 
ATOM     13  S   UNL d   1     -49.703  14.250  22.197  0.00  0.00    -0.082 SA
ATOM     14  C   UNL d   1     -50.297  14.804  22.360  0.00  0.00     0.036 A 
ATOM     15  C   UNL d   1     -50.117  15.213  23.044  0.00  0.00     0.008 A 
ATOM     16  C   UNL d   1     -49.397  14.912  23.319  0.00  0.00     0.012 A 
ENDBRANCH   2  12
TORSDOF 1
ENDMDL
