MODEL 1
REMARK VINA RESULT:     -11.2      0.000      0.000
REMARK  1 active torsions:
REMARK  status: ('A' for Active; 'I' for Inactive)
REMARK    1  A    between atoms: N_14  and  C_8 
ROOT
ATOM      1  C   UNL d   1     -48.625  14.021  22.901  0.00  0.00     0.056 A 
ATOM      2  C   UNL d   1     -46.759  12.428  23.257  0.00  0.00     0.074 A 
ATOM      3  C   UNL d   1     -49.400  13.793  23.066  0.00  0.00    -0.012 A 
ATOM      4  C   UNL d   1     -48.006  13.492  23.019  0.00  0.00    -0.016 A 
ATOM      5  C   UNL d   1     -47.539  12.198  23.424  0.00  0.00    -0.014 A 
ATOM      6  C   UNL d   1     -48.158  12.727  23.305  0.00  0.00    -0.007 A 
ATOM      7  C   UNL d   1     -49.553  13.037  23.349  0.00  0.00    -0.004 A 
ATOM      8  C   UNL d   1     -46.268  11.786  23.430  0.00  0.00     0.089 A 
ATOM      9  C   UNL d   1     -46.606  13.192  22.971  0.00  0.00    -0.017 A 
ATOM     10  C   UNL d   1     -48.934  12.499  23.471  0.00  0.00    -0.001 A 
ATOM     11  C   UNL d   1     -47.225  13.721  22.853  0.00  0.00    -0.008 A 
ATOM     12  C   UNL d   1     -48.470  14.777  22.617  0.00  0.00    -0.015 A 
ATOM     13  C   UNL d   1     -47.525  11.416  23.698  0.00  0.00    -0.002 A 
ATOM     14  C   UNL d   1     -50.017  14.323  22.947  0.00  0.00     0.038 A 
ATOM     15  C   UNL d   1     -46.735  11.170  23.698  0.00  0.00     0.017 A 
ATOM     16  C   UNL d   1     -49.090  15.311  22.497  0.00  0.00     0.038 A 
ATOM     17  C   UNL d   1     -49.866  15.083  22.663  0.00  0.00     0.195 A 
ATOM     18  C   UNL d   1     -47.846  14.250  22.734  0.00  0.00     0.013 C 
ATOM     19  C   UNL d   1     -45.985  12.656  23.092  0.00  0.00     0.015 C 
ATOM     20  O   UNL d   1     -50.482  15.612  22.544  0.00  0.00    -0.287 OA
ENDROOT
BRANCH   8  21
ATOM     21  N   UNL d   1     -45.446  11.778  23.343  0.00  0.00    -0.131 NA
ATOM     22  N   UNL d   1     -44.997  11.081  23.357  0.00  0.00    -0.023 N 
ENDBRANCH   8  21
TORSDOF 1
ENDMDL
MODEL 2
REMARK VINA RESULT:     -10.9      2.425      4.059
REMARK  1 active torsions:
REMARK  status: ('A' for Active; 'I' for Inactive)
REMARK    1  A    between atoms: N_14  and  C_8 
ROOT
ATOM      1  C   UNL d   1     -47.296  12.431  23.324  0.00  0.00     0.056 A 
ATOM      2  C   UNL d   1     -49.225  13.944  22.951  0.00  0.00     0.074 A 
ATOM      3  C   UNL d   1     -46.527  12.703  23.199  0.00  0.00    -0.012 A 
ATOM      4  C   UNL d   1     -47.936  12.934  23.200  0.00  0.00    -0.016 A 
ATOM      5  C   UNL d   1     -48.451  14.218  22.825  0.00  0.00    -0.014 A 
ATOM      6  C   UNL d   1     -47.812  13.716  22.949  0.00  0.00    -0.007 A 
ATOM      7  C   UNL d   1     -46.403  13.477  22.951  0.00  0.00    -0.004 A 
ATOM      8  C   UNL d   1     -49.741  14.567  22.782  0.00  0.00     0.089 A 
ATOM      9  C   UNL d   1     -49.350  13.162  23.202  0.00  0.00    -0.017 A 
ATOM     10  C   UNL d   1     -47.043  13.988  22.824  0.00  0.00    -0.001 A 
ATOM     11  C   UNL d   1     -48.710  12.660  23.325  0.00  0.00    -0.008 A 
ATOM     12  C   UNL d   1     -47.424  11.657  23.573  0.00  0.00    -0.015 A 
ATOM     13  C   UNL d   1     -48.494  15.008  22.580  0.00  0.00    -0.002 A 
ATOM     14  C   UNL d   1     -45.890  12.200  23.324  0.00  0.00     0.038 A 
ATOM     15  C   UNL d   1     -49.295  15.215  22.557  0.00  0.00     0.017 A 
ATOM     16  C   UNL d   1     -46.783  11.151  23.698  0.00  0.00     0.038 A 
ATOM     17  C   UNL d   1     -46.014  11.423  23.573  0.00  0.00     0.195 A 
ATOM     18  C   UNL d   1     -48.069  12.158  23.450  0.00  0.00     0.013 C 
ATOM     19  C   UNL d   1     -49.993  13.672  23.075  0.00  0.00     0.015 C 
ATOM     20  O   UNL d   1     -45.377  10.920  23.698  0.00  0.00    -0.287 OA
ENDROOT
BRANCH   8  21
ATOM     21  N   UNL d   1     -50.564  14.532  22.836  0.00  0.00    -0.131 NA
ATOM     22  N   UNL d   1     -51.055  15.185  22.699  0.00  0.00    -0.023 N 
ENDBRANCH   8  21
TORSDOF 1
ENDMDL
MODEL 3
REMARK VINA RESULT:      -9.2      2.196      3.533
REMARK  1 active torsions:
REMARK  status: ('A' for Active; 'I' for Inactive)
REMARK    1  A    between atoms: N_14  and  C_8 
ROOT
ATOM      1  C   UNL d   1     -46.637  13.028  22.675  0.00  0.00     0.056 A 
ATOM      2  C   UNL d   1     -48.959  12.334  23.198  0.00  0.00     0.074 A 
ATOM      3  C   UNL d   1     -46.480  13.805  22.446  0.00  0.00    -0.012 A 
ATOM      4  C   UNL d   1     -47.408  12.798  22.848  0.00  0.00    -0.016 A 
ATOM      5  C   UNL d   1     -48.801  13.115  22.968  0.00  0.00    -0.014 A 
ATOM      6  C   UNL d   1     -48.030  13.346  22.794  0.00  0.00    -0.007 A 
ATOM      7  C   UNL d   1     -47.095  14.348  22.392  0.00  0.00    -0.004 A 
ATOM      8  C   UNL d   1     -49.772  12.272  23.333  0.00  0.00     0.089 A 
ATOM      9  C   UNL d   1     -48.337  11.786  23.251  0.00  0.00    -0.017 A 
ATOM     10  C   UNL d   1     -47.873  14.123  22.566  0.00  0.00    -0.001 A 
ATOM     11  C   UNL d   1     -47.567  12.016  23.078  0.00  0.00    -0.008 A 
ATOM     12  C   UNL d   1     -46.024  12.483  22.729  0.00  0.00    -0.015 A 
ATOM     13  C   UNL d   1     -49.517  13.533  22.962  0.00  0.00    -0.002 A 
ATOM     14  C   UNL d   1     -45.710  14.033  22.274  0.00  0.00     0.038 A 
ATOM     15  C   UNL d   1     -50.111  13.003  23.189  0.00  0.00     0.017 A 
ATOM     16  C   UNL d   1     -45.249  12.712  22.555  0.00  0.00     0.038 A 
ATOM     17  C   UNL d   1     -45.091  13.489  22.327  0.00  0.00     0.195 A 
ATOM     18  C   UNL d   1     -46.795  12.248  22.904  0.00  0.00     0.013 C 
ATOM     19  C   UNL d   1     -49.116  11.558  23.426  0.00  0.00     0.015 C 
ATOM     20  O   UNL d   1     -44.322  13.717  22.154  0.00  0.00    -0.287 OA
ENDROOT
BRANCH   8  21
ATOM     21  N   UNL d   1     -50.165  11.587  23.571  0.00  0.00    -0.131 NA
ATOM     22  N   UNL d   1     -50.984  11.555  23.698  0.00  0.00    -0.023 N 
ENDBRANCH   8  21
TORSDOF 1
ENDMDL
