MODEL 1
REMARK VINA RESULT:       0.6      0.000      0.000
REMARK  5 active torsions:
REMARK  status: ('A' for Active; 'I' for Inactive)
REMARK    1  A    between atoms: C_8  and  C_1 
REMARK    2  A    between atoms: N_6  and  C_2 
REMARK    3  A    between atoms: C_12  and  C_4 
REMARK       I    between atoms: C_7  and  N_6 
REMARK    4  A    between atoms: C_9  and  C_7 
REMARK    5  A    between atoms: O_15  and  C_8 
ROOT
ATOM      1  C   UNL d   1     -42.957-122.423 -50.082  0.00  0.00     0.110 A 
ATOM      2  C   UNL d   1     -42.207-122.588 -50.353  0.00  0.00     0.096 A 
ATOM      3  S   UNL d   1     -42.972-122.626 -49.268  0.00  0.00    -0.080 SA
ATOM      4  C   UNL d   1     -42.226-122.910 -49.065  0.00  0.00     0.031 A 
ATOM      5  C   UNL d   1     -41.749-122.886 -49.743  0.00  0.00     0.026 A 
ENDROOT
BRANCH   2   6
ATOM      6  N   UNL d   1     -41.965-122.465 -51.132  0.00  0.00    -0.207 NA
ATOM      7  C   UNL d   1     -41.613-123.067 -51.559  0.00  0.00     0.279 C 
ATOM      8  O   UNL d   1     -41.503-123.810 -51.189  0.00  0.00    -0.265 OA
BRANCH   7   9
ATOM      9  C   UNL d   1     -41.370-122.964 -52.323  0.00  0.00     0.058 A 
ATOM     10  C   UNL d   1     -41.123-122.856 -53.101  0.00  0.00     0.005 A 
ATOM     11  C   UNL d   1     -41.125-123.614 -52.773  0.00  0.00     0.005 A 
ENDBRANCH   7   9
ENDBRANCH   2   6
BRANCH   1  12
ATOM     12  C   UNL d   1     -43.578-122.115 -50.528  0.00  0.00     0.303 C 
ATOM     13  O   UNL d   1     -43.498-121.370 -50.904  0.00  0.00    -0.259 OA
BRANCH  12  14
ATOM     14  O   UNL d   1     -44.292-122.546 -50.608  0.00  0.00    -0.295 OA
ATOM     15  C   UNL d   1     -44.967-122.179 -50.860  0.00  0.00     0.185 C 
ENDBRANCH  12  14
ENDBRANCH   1  12
BRANCH   4  16
ATOM     16  C   UNL d   1     -42.027-123.169 -48.290  0.00  0.00     0.006 A 
ATOM     17  C   UNL d   1     -41.314-123.566 -48.164  0.00  0.00     0.001 A 
ATOM     18  C   UNL d   1     -41.123-123.817 -47.410  0.00  0.00     0.000 A 
ATOM     19  C   UNL d   1     -41.645-123.672 -46.781  0.00  0.00     0.000 A 
ATOM     20  C   UNL d   1     -42.362-123.270 -46.928  0.00  0.00     0.000 A 
ATOM     21  C   UNL d   1     -42.530-123.029 -47.689  0.00  0.00     0.001 A 
ENDBRANCH   4  16
TORSDOF 5
ENDMDL
MODEL 2
REMARK VINA RESULT:       2.0      1.310      3.799
REMARK  5 active torsions:
REMARK  status: ('A' for Active; 'I' for Inactive)
REMARK    1  A    between atoms: C_8  and  C_1 
REMARK    2  A    between atoms: N_6  and  C_2 
REMARK    3  A    between atoms: C_12  and  C_4 
REMARK       I    between atoms: C_7  and  N_6 
REMARK    4  A    between atoms: C_9  and  C_7 
REMARK    5  A    between atoms: O_15  and  C_8 
ROOT
ATOM      1  C   UNL d   1     -42.870-123.000 -49.892  0.00  0.00     0.110 A 
ATOM      2  C   UNL d   1     -42.122-123.197 -49.636  0.00  0.00     0.096 A 
ATOM      3  S   UNL d   1     -42.792-122.719 -50.679  0.00  0.00    -0.080 SA
ATOM      4  C   UNL d   1     -41.994-122.752 -50.881  0.00  0.00     0.031 A 
ATOM      5  C   UNL d   1     -41.577-123.050 -50.229  0.00  0.00     0.026 A 
ENDROOT
BRANCH   2   6
ATOM      6  N   UNL d   1     -41.961-123.497 -48.885  0.00  0.00    -0.207 NA
ATOM      7  C   UNL d   1     -41.464-123.096 -48.373  0.00  0.00     0.279 C 
ATOM      8  O   UNL d   1     -41.124-122.375 -48.628  0.00  0.00    -0.265 OA
BRANCH   7   9
ATOM      9  C   UNL d   1     -41.295-123.376 -47.634  0.00  0.00     0.058 A 
ATOM     10  C   UNL d   1     -41.123-123.664 -46.882  0.00  0.00     0.005 A 
ATOM     11  C   UNL d   1     -41.215-122.852 -46.999  0.00  0.00     0.005 A 
ENDBRANCH   7   9
ENDBRANCH   2   6
BRANCH   1  12
ATOM     12  C   UNL d   1     -43.567-123.068 -49.456  0.00  0.00     0.303 C 
ATOM     13  O   UNL d   1     -44.094-122.418 -49.403  0.00  0.00    -0.259 OA
BRANCH  12  14
ATOM     14  O   UNL d   1     -43.750-123.785 -49.065  0.00  0.00    -0.295 OA
ATOM     15  C   UNL d   1     -44.244-123.790 -48.425  0.00  0.00     0.185 C 
ENDBRANCH  12  14
ENDBRANCH   1  12
BRANCH   4  16
ATOM     16  C   UNL d   1     -41.699-122.514 -51.631  0.00  0.00     0.006 A 
ATOM     17  C   UNL d   1     -41.436-123.085 -52.166  0.00  0.00     0.001 A 
ATOM     18  C   UNL d   1     -41.149-122.850 -52.894  0.00  0.00     0.000 A 
ATOM     19  C   UNL d   1     -41.124-122.044 -53.089  0.00  0.00     0.000 A 
ATOM     20  C   UNL d   1     -41.394-121.480 -52.535  0.00  0.00     0.000 A 
ATOM     21  C   UNL d   1     -41.676-121.739 -51.815  0.00  0.00     0.001 A 
ENDBRANCH   4  16
TORSDOF 5
ENDMDL
