MODEL 1
REMARK VINA RESULT:      44.3      0.000      0.000
REMARK  5 active torsions:
REMARK  status: ('A' for Active; 'I' for Inactive)
REMARK    1  A    between atoms: N_2  and  S_1 
REMARK    2  A    between atoms: C_4  and  S_1 
REMARK    3  A    between atoms: C_3  and  C_6 
REMARK    4  A    between atoms: C_12  and  N_5 
REMARK    5  A    between atoms: O_24  and  C_20 
ROOT
ATOM      1  N   UNL d   1     -55.030-101.267 -43.929  0.00  0.00    -0.226 N 
ATOM      2  N   UNL d   1     -55.000-101.686 -42.338  0.00  0.00    -0.301 N 
ATOM      3  C   UNL d   1     -54.735-102.004 -43.700  0.00  0.00     0.111 A 
ATOM      4  C   UNL d   1     -55.312-100.735 -43.352  0.00  0.00     0.111 A 
ATOM      5  C   UNL d   1     -55.295-100.951 -42.556  0.00  0.00     0.100 A 
ATOM      6  C   UNL d   1     -54.722-102.207 -42.909  0.00  0.00     0.100 A 
ENDROOT
BRANCH   1   7
ATOM      7  S   UNL d   1     -55.047-101.054 -44.714  0.00  0.00     0.271 S 
ATOM      8  O   UNL d   1     -55.065-100.838 -45.510  0.00  0.00    -0.200 OA
ATOM      9  O   UNL d   1     -54.818-101.809 -44.927  0.00  0.00    -0.200 OA
BRANCH   7  10
ATOM     10  C   UNL d   1     -55.279-100.291 -44.502  0.00  0.00     0.104 A 
ATOM     11  C   UNL d   1     -56.070-100.060 -44.563  0.00  0.00     0.017 A 
ATOM     12  C   UNL d   1     -56.301 -99.297 -44.351  0.00  0.00     0.072 A 
ATOM     13  C   UNL d   1     -55.743 -98.757 -44.076  0.00  0.00     0.004 A 
ATOM     14  C   UNL d   1     -54.946 -98.980 -44.011  0.00  0.00     0.001 A 
ATOM     15  C   UNL d   1     -54.712 -99.751 -44.225  0.00  0.00     0.013 A 
BRANCH  12  16
ATOM     16  C   UNL d   1     -57.091 -99.072 -44.414  0.00  0.00     0.419 C 
ATOM     17  F   UNL d   1     -57.638 -98.848 -43.793  0.00  0.00    -0.166 F 
ATOM     18  F   UNL d   1     -57.583 -99.001 -45.118  0.00  0.00    -0.166 F 
ATOM     19  F   UNL d   1     -57.815 -98.866 -44.469  0.00  0.00    -0.166 F 
ENDBRANCH  12  16
ENDBRANCH   7  10
ENDBRANCH   1   7
BRANCH   2  20
ATOM     20  C   UNL d   1     -54.982-101.901 -41.542  0.00  0.00     0.064 A 
ATOM     21  C   UNL d   1     -55.217-102.657 -41.314  0.00  0.00     0.020 A 
ATOM     22  C   UNL d   1     -55.200-102.873 -40.518  0.00  0.00     0.026 A 
ATOM     23  C   UNL d   1     -54.947-102.332 -39.950  0.00  0.00     0.094 A 
ATOM     24  C   UNL d   1     -54.711-101.572 -40.185  0.00  0.00     0.026 A 
ATOM     25  C   UNL d   1     -54.730-101.360 -40.982  0.00  0.00     0.020 A 
BRANCH  23  26
ATOM     26  O   UNL d   1     -54.928-102.545 -39.153  0.00  0.00    -0.328 OA
ATOM     27  C   UNL d   1     -55.608-102.852 -38.788  0.00  0.00     0.181 C 
ENDBRANCH  23  26
ENDBRANCH   2  20
TORSDOF 5
ENDMDL
