MODEL 1
REMARK VINA RESULT:      57.2      0.000      0.000
REMARK  4 active torsions:
REMARK  status: ('A' for Active; 'I' for Inactive)
REMARK    1  A    between atoms: S_5  and  C_2 
REMARK    2  A    between atoms: C_15  and  S_5 
REMARK    3  A    between atoms: N_11  and  C_8 
REMARK    4  A    between atoms: C_12  and  N_11 
ROOT
ATOM      1  C   UNL d   1      14.298  14.795  -2.613  0.00  0.00     0.197 A 
ATOM      2  C   UNL d   1      14.072  14.618  -3.390  0.00  0.00     0.227 A 
ATOM      3  N   UNL d   1      14.630  15.553  -2.612  0.00  0.00    -0.192 N 
ATOM      4  N   UNL d   1      14.246  14.369  -1.908  0.00  0.00    -0.206 NA
ATOM      5  N   UNL d   1      14.263  15.265  -3.868  0.00  0.00    -0.115 NA
ATOM      6  N   UNL d   1      14.610  15.846  -3.389  0.00  0.00    -0.058 NA
ATOM      7  C   UNL d   1      14.526  14.698  -1.200  0.00  0.00     0.166 A 
ATOM      8  C   UNL d   1      14.856  15.454  -1.207  0.00  0.00     0.054 A 
ATOM      9  C   UNL d   1      14.911  15.887  -1.907  0.00  0.00     0.089 A 
ATOM     10  C   UNL d   1      15.138  15.788  -0.500  0.00  0.00     0.005 A 
ATOM     11  C   UNL d   1      15.242  16.641  -1.909  0.00  0.00     0.019 A 
ATOM     12  C   UNL d   1      15.468  16.542  -0.503  0.00  0.00     0.000 A 
ATOM     13  C   UNL d   1      15.520  16.969  -1.207  0.00  0.00     0.002 A 
ENDROOT
BRANCH   2  14
ATOM     14  S   UNL d   1      13.716  13.916  -3.641  0.00  0.00     0.231 S 
ATOM     15  O   UNL d   1      14.468  13.629  -3.816  0.00  0.00    -0.215 OA
ATOM     16  O   UNL d   1      12.967  14.207  -3.465  0.00  0.00    -0.215 OA
BRANCH  14  17
ATOM     17  C   UNL d   1      13.402  13.204  -3.899  0.00  0.00     0.090 A 
ATOM     18  C   UNL d   1      13.397  12.546  -3.407  0.00  0.00     0.011 A 
ATOM     19  C   UNL d   1      13.084  11.838  -3.666  0.00  0.00     0.001 A 
ATOM     20  C   UNL d   1      12.770  11.779  -4.429  0.00  0.00     0.000 A 
ATOM     21  C   UNL d   1      12.775  12.442  -4.925  0.00  0.00     0.001 A 
ATOM     22  C   UNL d   1      13.089  13.149  -4.662  0.00  0.00     0.011 A 
ENDBRANCH  14  17
ENDBRANCH   2  14
BRANCH   7  23
ATOM     23  N   UNL d   1      14.474  14.272  -0.496  0.00  0.00    -0.227 NA
BRANCH  23  24
ATOM     24  C   UNL d   1      14.486  13.450  -0.510  0.00  0.00     0.083 A 
ATOM     25  C   UNL d   1      15.158  13.051  -0.779  0.00  0.00     0.019 A 
ATOM     26  C   UNL d   1      15.170  12.227  -0.793  0.00  0.00     0.002 A 
ATOM     27  C   UNL d   1      15.841  11.829  -1.061  0.00  0.00     0.000 C 
ATOM     28  C   UNL d   1      14.509  11.796  -0.537  0.00  0.00     0.000 A 
ATOM     29  C   UNL d   1      13.838  12.204  -0.269  0.00  0.00     0.002 A 
ATOM     30  C   UNL d   1      13.829  13.024  -0.256  0.00  0.00     0.019 A 
ATOM     31  C   UNL d   1      13.181  11.779  -0.015  0.00  0.00     0.000 C 
ENDBRANCH  23  24
ENDBRANCH   7  23
TORSDOF 4
ENDMDL
MODEL 2
REMARK VINA RESULT:      58.8      1.065      3.707
REMARK  4 active torsions:
REMARK  status: ('A' for Active; 'I' for Inactive)
REMARK    1  A    between atoms: S_5  and  C_2 
REMARK    2  A    between atoms: C_15  and  S_5 
REMARK    3  A    between atoms: N_11  and  C_8 
REMARK    4  A    between atoms: C_12  and  N_11 
ROOT
ATOM      1  C   UNL d   1      13.825  14.010  -3.589  0.00  0.00     0.197 A 
ATOM      2  C   UNL d   1      14.103  14.782  -3.469  0.00  0.00     0.227 A 
ATOM      3  N   UNL d   1      13.644  13.929  -4.392  0.00  0.00    -0.192 N 
ATOM      4  N   UNL d   1      13.713  13.374  -3.076  0.00  0.00    -0.206 NA
ATOM      5  N   UNL d   1      14.094  15.175  -4.195  0.00  0.00    -0.115 NA
ATOM      6  N   UNL d   1      13.809  14.649  -4.770  0.00  0.00    -0.058 NA
ATOM      7  C   UNL d   1      13.420  12.653  -3.363  0.00  0.00     0.166 A 
ATOM      8  C   UNL d   1      13.242  12.578  -4.165  0.00  0.00     0.054 A 
ATOM      9  C   UNL d   1      13.351  13.210  -4.684  0.00  0.00     0.089 A 
ATOM     10  C   UNL d   1      12.948  11.858  -4.458  0.00  0.00     0.005 A 
ATOM     11  C   UNL d   1      13.171  13.131  -5.484  0.00  0.00     0.019 A 
ATOM     12  C   UNL d   1      12.769  11.781  -5.257  0.00  0.00     0.000 A 
ATOM     13  C   UNL d   1      12.880  12.417  -5.770  0.00  0.00     0.002 A 
ENDROOT
BRANCH   2  14
ATOM     14  S   UNL d   1      14.347  15.100  -2.747  0.00  0.00     0.231 S 
ATOM     15  O   UNL d   1      15.104  15.172  -3.063  0.00  0.00    -0.215 OA
ATOM     16  O   UNL d   1      13.589  15.027  -2.434  0.00  0.00    -0.215 OA
BRANCH  14  17
ATOM     17  C   UNL d   1      14.628  15.420  -2.046  0.00  0.00     0.090 A 
ATOM     18  C   UNL d   1      14.630  14.976  -1.354  0.00  0.00     0.011 A 
ATOM     19  C   UNL d   1      14.910  15.296  -0.658  0.00  0.00     0.001 A 
ATOM     20  C   UNL d   1      15.197  16.072  -0.646  0.00  0.00     0.000 A 
ATOM     21  C   UNL d   1      15.195  16.519  -1.342  0.00  0.00     0.001 A 
ATOM     22  C   UNL d   1      14.913  16.195  -2.037  0.00  0.00     0.011 A 
ENDBRANCH  14  17
ENDBRANCH   2  14
BRANCH   7  23
ATOM     23  N   UNL d   1      13.308  12.017  -2.850  0.00  0.00    -0.227 NA
BRANCH  23  24
ATOM     24  C   UNL d   1      13.780  11.940  -2.180  0.00  0.00     0.083 A 
ATOM     25  C   UNL d   1      13.432  11.899  -1.432  0.00  0.00     0.019 A 
ATOM     26  C   UNL d   1      13.905  11.822  -0.762  0.00  0.00     0.002 A 
ATOM     27  C   UNL d   1      13.558  11.780  -0.015  0.00  0.00     0.000 C 
ATOM     28  C   UNL d   1      14.730  11.785  -0.835  0.00  0.00     0.000 A 
ATOM     29  C   UNL d   1      15.072  11.828  -1.590  0.00  0.00     0.002 A 
ATOM     30  C   UNL d   1      14.599  11.904  -2.256  0.00  0.00     0.019 A 
ATOM     31  C   UNL d   1      15.890  11.792  -1.667  0.00  0.00     0.000 C 
ENDBRANCH  23  24
ENDBRANCH   7  23
TORSDOF 4
ENDMDL
