MODEL 1
REMARK VINA RESULT:      40.4      0.000      0.000
REMARK  4 active torsions:
REMARK  status: ('A' for Active; 'I' for Inactive)
REMARK    1  A    between atoms: N_15  and  C_6 
REMARK    2  A    between atoms: N_14  and  C_19 
REMARK    3  A    between atoms: C_18  and  N_15 
REMARK    4  A    between atoms: C_19  and  C_18 
ROOT
ATOM      1  N   UNL d   1     -57.250 -98.760 -44.742  0.00  0.00    -0.183 N 
ATOM      2  C   UNL d   1     -58.072 -98.761 -44.669  0.00  0.00     0.169 A 
ATOM      3  C   UNL d   1     -58.547 -98.764 -45.329  0.00  0.00     0.073 A 
ATOM      4  C   UNL d   1     -58.196 -98.766 -46.063  0.00  0.00     0.185 A 
ATOM      5  N   UNL d   1     -57.374 -98.764 -46.136  0.00  0.00    -0.142 NA
ATOM      6  C   UNL d   1     -56.792 -98.757 -44.072  0.00  0.00     0.218 A 
ATOM      7  N   UNL d   1     -58.413 -98.760 -43.927  0.00  0.00    -0.226 NA
ATOM      8  C   UNL d   1     -59.360 -98.766 -45.256  0.00  0.00     0.007 A 
ATOM      9  N   UNL d   1     -58.664 -98.769 -46.741  0.00  0.00    -0.225 NA
ATOM     10  C   UNL d   1     -57.125 -98.755 -43.335  0.00  0.00     0.071 A 
ATOM     11  C   UNL d   1     -59.836 -98.769 -45.917  0.00  0.00     0.019 A 
ATOM     12  C   UNL d   1     -57.946 -98.757 -43.262  0.00  0.00     0.087 A 
ATOM     13  C   UNL d   1     -59.486 -98.770 -46.668  0.00  0.00     0.083 A 
ATOM     14  C   UNL d   1     -59.701 -98.764 -44.511  0.00  0.00     0.000 C 
ATOM     15  C   UNL d   1     -58.298 -98.755 -42.490  0.00  0.00     0.021 C 
ATOM     16  C   UNL d   1     -59.952 -98.773 -47.329  0.00  0.00     0.021 C 
ENDROOT
BRANCH   6  17
ATOM     17  N   UNL d   1     -55.944 -98.755 -44.156  0.00  0.00    -0.379 NA
BRANCH  17  18
ATOM     18  C   UNL d   1     -55.147 -98.947 -44.323  0.00  0.00     0.182 C 
BRANCH  18  19
ATOM     19  C   UNL d   1     -54.797 -99.599 -43.918  0.00  0.00     0.116 C 
BRANCH  19  20
ATOM     20  N   UNL d   1     -54.792-100.364 -44.298  0.00  0.00    -0.297 N 
ATOM     21  C   UNL d   1     -54.859-101.053 -43.837  0.00  0.00     0.107 A 
ATOM     22  C   UNL d   1     -54.854-101.821 -44.219  0.00  0.00     0.142 A 
ATOM     23  O   UNL d   1     -54.783-101.879 -45.054  0.00  0.00    -0.300 OA
ATOM     24  C   UNL d   1     -54.715-101.173 -45.521  0.00  0.00     0.142 A 
ATOM     25  C   UNL d   1     -54.720-100.411 -45.145  0.00  0.00     0.107 A 
ENDBRANCH  19  20
ENDBRANCH  18  19
ENDBRANCH  17  18
ENDBRANCH   6  17
TORSDOF 4
ENDMDL
