MODEL 1
REMARK VINA RESULT:      32.7      0.000      0.000
REMARK  4 active torsions:
REMARK  status: ('A' for Active; 'I' for Inactive)
REMARK    1  A    between atoms: C_7  and  N_1 
REMARK    2  A    between atoms: N_6  and  C_2 
REMARK    3  A    between atoms: C_10  and  N_6 
REMARK    4  A    between atoms: C_12  and  C_7 
ROOT
ATOM      1  N   UNL d   1      13.206  13.215  -3.611  0.00  0.00    -0.239 N 
ATOM      2  C   UNL d   1      13.635  12.819  -2.393  0.00  0.00     0.151 A 
ATOM      3  C   UNL d   1      13.272  12.540  -3.112  0.00  0.00     0.285 A 
ATOM      4  C   UNL d   1      13.532  13.897  -3.184  0.00  0.00     0.269 A 
ATOM      5  C   UNL d   1      13.781  13.624  -2.455  0.00  0.00     0.086 A 
ATOM      6  O   UNL d   1      13.090  11.888  -3.214  0.00  0.00    -0.265 OA
ATOM      7  O   UNL d   1      13.511  14.472  -3.524  0.00  0.00    -0.267 OA
ENDROOT
BRANCH   2   8
ATOM      8  N   UNL d   1      13.822  12.367  -1.722  0.00  0.00    -0.181 N 
ATOM      9  O   UNL d   1      13.349  11.780  -1.704  0.00  0.00    -0.080 OA
BRANCH   8  10
ATOM     10  C   UNL d   1      14.437  12.603  -1.222  0.00  0.00     0.090 A 
ATOM     11  C   UNL d   1      15.225  12.406  -1.390  0.00  0.00     0.020 A 
ATOM     12  C   UNL d   1      15.840  12.649  -0.879  0.00  0.00     0.002 A 
ATOM     13  C   UNL d   1      15.678  13.090  -0.193  0.00  0.00     0.000 A 
ATOM     14  C   UNL d   1      14.889  13.285  -0.028  0.00  0.00     0.002 A 
ATOM     15  C   UNL d   1      14.273  13.048  -0.531  0.00  0.00     0.020 A 
ENDBRANCH   8  10
ENDBRANCH   2   8
BRANCH   1  16
ATOM     16  C   UNL d   1      12.924  13.314  -4.330  0.00  0.00     0.086 C 
BRANCH  16  17
ATOM     17  C   UNL d   1      13.207  12.870  -4.950  0.00  0.00     0.018 A 
ATOM     18  C   UNL d   1      13.909  13.078  -5.307  0.00  0.00     0.002 A 
ATOM     19  C   UNL d   1      14.192  12.634  -5.926  0.00  0.00     0.000 A 
ATOM     20  C   UNL d   1      13.784  11.991  -6.190  0.00  0.00     0.000 A 
ATOM     21  C   UNL d   1      13.072  11.780  -5.827  0.00  0.00     0.000 A 
ATOM     22  C   UNL d   1      12.780  12.226  -5.199  0.00  0.00     0.002 A 
ENDBRANCH  16  17
ENDBRANCH   1  16
TORSDOF 4
ENDMDL
MODEL 2
REMARK VINA RESULT:      35.6      1.398      2.242
REMARK  4 active torsions:
REMARK  status: ('A' for Active; 'I' for Inactive)
REMARK    1  A    between atoms: C_7  and  N_1 
REMARK    2  A    between atoms: N_6  and  C_2 
REMARK    3  A    between atoms: C_10  and  N_6 
REMARK    4  A    between atoms: C_12  and  C_7 
ROOT
ATOM      1  N   UNL d   1      13.405  13.180  -3.849  0.00  0.00    -0.239 N 
ATOM      2  C   UNL d   1      13.985  12.322  -2.983  0.00  0.00     0.151 A 
ATOM      3  C   UNL d   1      13.912  13.148  -3.178  0.00  0.00     0.285 A 
ATOM      4  C   UNL d   1      13.176  12.368  -4.052  0.00  0.00     0.269 A 
ATOM      5  C   UNL d   1      13.542  11.876  -3.512  0.00  0.00     0.086 A 
ATOM      6  O   UNL d   1      14.224  13.647  -2.828  0.00  0.00    -0.265 OA
ATOM      7  O   UNL d   1      12.771  12.318  -4.580  0.00  0.00    -0.267 OA
ENDROOT
BRANCH   2   8
ATOM      8  N   UNL d   1      14.428  11.994  -2.361  0.00  0.00    -0.181 N 
ATOM      9  O   UNL d   1      15.102  11.804  -2.639  0.00  0.00    -0.080 OA
BRANCH   8  10
ATOM     10  C   UNL d   1      14.097  11.931  -1.606  0.00  0.00     0.090 A 
ATOM     11  C   UNL d   1      14.573  11.951  -0.927  0.00  0.00     0.020 A 
ATOM     12  C   UNL d   1      14.231  11.886  -0.168  0.00  0.00     0.002 A 
ATOM     13  C   UNL d   1      13.409  11.800  -0.074  0.00  0.00     0.000 A 
ATOM     14  C   UNL d   1      12.935  11.780  -0.755  0.00  0.00     0.002 A 
ATOM     15  C   UNL d   1      13.269  11.844  -1.513  0.00  0.00     0.020 A 
ENDBRANCH   8  10
ENDBRANCH   2   8
BRANCH   1  16
ATOM     16  C   UNL d   1      13.133  13.772  -4.277  0.00  0.00     0.086 C 
BRANCH  16  17
ATOM     17  C   UNL d   1      13.553  14.465  -4.337  0.00  0.00     0.018 A 
ATOM     18  C   UNL d   1      13.627  14.949  -3.687  0.00  0.00     0.002 A 
ATOM     19  C   UNL d   1      14.047  15.643  -3.747  0.00  0.00     0.000 A 
ATOM     20  C   UNL d   1      14.390  15.855  -4.446  0.00  0.00     0.000 A 
ATOM     21  C   UNL d   1      14.314  15.363  -5.106  0.00  0.00     0.000 A 
ATOM     22  C   UNL d   1      13.890  14.659  -5.050  0.00  0.00     0.002 A 
ENDBRANCH  16  17
ENDBRANCH   1  16
TORSDOF 4
ENDMDL
