MODEL 1
REMARK VINA RESULT:     119.4      0.000      0.000
REMARK  4 active torsions:
REMARK  status: ('A' for Active; 'I' for Inactive)
REMARK    1  A    between atoms: C_10  and  C_1 
REMARK    2  A    between atoms: C_18  and  N_6 
REMARK       I    between atoms: N_13  and  C_10 
REMARK    3  A    between atoms: C_12  and  C_20 
REMARK    4  A    between atoms: C_20  and  N_13 
ROOT
ATOM      1  C   UNL d   1     -56.155-100.430 -42.767  0.00  0.00     0.077 A 
ATOM      2  C   UNL d   1     -55.415-101.469 -43.429  0.00  0.00     0.121 A 
ATOM      3  C   UNL d   1     -55.816-100.746 -43.450  0.00  0.00     0.028 A 
ATOM      4  C   UNL d   1     -55.352-101.884 -42.710  0.00  0.00     0.281 A 
ATOM      5  N   UNL d   1     -55.147-101.628 -44.189  0.00  0.00    -0.300 N 
ATOM      6  N   UNL d   1     -55.685-101.579 -42.021  0.00  0.00    -0.272 N 
ATOM      7  C   UNL d   1     -56.092-100.842 -42.048  0.00  0.00     0.088 A 
ATOM      8  C   UNL d   1     -55.788-100.468 -44.233  0.00  0.00     0.018 A 
ATOM      9  C   UNL d   1     -55.371-101.024 -44.677  0.00  0.00     0.064 A 
ATOM     10  O   UNL d   1     -54.945-102.616 -42.689  0.00  0.00    -0.265 OA
ATOM     11  C   UNL d   1     -54.715-102.308 -44.401  0.00  0.00     0.100 C 
ATOM     12  C   UNL d   1     -56.085 -99.793 -44.583  0.00  0.00     0.002 A 
ATOM     13  C   UNL d   1     -55.260-100.884 -45.484  0.00  0.00     0.018 A 
ATOM     14  C   UNL d   1     -55.967 -99.664 -45.390  0.00  0.00     0.000 A 
ATOM     15  C   UNL d   1     -55.560-100.202 -45.838  0.00  0.00     0.002 A 
ENDROOT
BRANCH   1  16
ATOM     16  C   UNL d   1     -56.551 -99.715 -42.787  0.00  0.00     0.281 C 
ATOM     17  N   UNL d   1     -57.134 -99.580 -43.354  0.00  0.00    -0.204 NA
ATOM     18  O   UNL d   1     -56.368 -99.122 -42.237  0.00  0.00    -0.265 OA
BRANCH  17  19
ATOM     19  C   UNL d   1     -57.533 -98.860 -43.375  0.00  0.00     0.127 C 
BRANCH  19  20
ATOM     20  C   UNL d   1     -58.329 -98.840 -43.598  0.00  0.00     0.119 A 
ATOM     21  O   UNL d   1     -58.620 -98.814 -44.368  0.00  0.00    -0.306 OA
ATOM     22  C   UNL d   1     -59.446 -98.800 -44.325  0.00  0.00     0.100 A 
ATOM     23  C   UNL d   1     -59.960 -98.774 -44.962  0.00  0.00     0.027 C 
ATOM     24  C   UNL d   1     -59.665 -98.818 -43.544  0.00  0.00     0.027 A 
ATOM     25  C   UNL d   1     -58.979 -98.843 -43.086  0.00  0.00     0.028 A 
ENDBRANCH  19  20
ENDBRANCH  17  19
ENDBRANCH   1  16
BRANCH   6  26
ATOM     26  C   UNL d   1     -55.620-101.992 -41.313  0.00  0.00     0.067 A 
ATOM     27  C   UNL d   1     -54.972-102.445 -41.079  0.00  0.00     0.018 A 
ATOM     28  C   UNL d   1     -55.141-102.754 -40.343  0.00  0.00     0.002 A 
ATOM     29  C   UNL d   1     -55.889-102.495 -40.122  0.00  0.00     0.002 A 
ATOM     30  C   UNL d   1     -56.184-102.021 -40.727  0.00  0.00     0.018 A 
ENDBRANCH   6  26
TORSDOF 4
ENDMDL
