MODEL 1
REMARK VINA RESULT:      98.5      0.000      0.000
REMARK  5 active torsions:
REMARK  status: ('A' for Active; 'I' for Inactive)
REMARK    1  A    between atoms: C_14  and  N_3 
REMARK    2  A    between atoms: C_15  and  C_9 
REMARK    3  A    between atoms: O_22  and  C_12 
REMARK    4  A    between atoms: O_23  and  C_13 
REMARK    5  A    between atoms: C_16  and  C_14 
ROOT
ATOM      1  C   UNL d   1     -58.657 -98.778 -44.467  0.00  0.00     0.056 A 
ATOM      2  C   UNL d   1     -59.091 -98.780 -45.175  0.00  0.00     0.107 A 
ATOM      3  N   UNL d   1     -57.442 -98.766 -45.226  0.00  0.00    -0.304 N 
ATOM      4  C   UNL d   1     -58.701 -98.775 -45.899  0.00  0.00     0.038 A 
ATOM      5  N   UNL d   1     -59.890 -98.787 -44.975  0.00  0.00    -0.148 NA
ATOM      6  C   UNL d   1     -57.832 -98.771 -44.492  0.00  0.00     0.083 A 
ATOM      7  N   UNL d   1     -59.948 -98.789 -44.152  0.00  0.00    -0.148 NA
ATOM      8  C   UNL d   1     -57.876 -98.768 -45.925  0.00  0.00     0.068 A 
ATOM      9  C   UNL d   1     -59.191 -98.784 -43.833  0.00  0.00     0.106 A 
ATOM     10  C   UNL d   1     -57.486 -98.763 -46.650  0.00  0.00     0.044 A 
ATOM     11  C   UNL d   1     -59.135 -98.777 -46.599  0.00  0.00     0.029 A 
ATOM     12  C   UNL d   1     -57.920 -98.765 -47.349  0.00  0.00     0.118 A 
ATOM     13  C   UNL d   1     -58.745 -98.772 -47.324  0.00  0.00     0.116 A 
ENDROOT
BRANCH   3  14
ATOM     14  C   UNL d   1     -56.617 -98.759 -45.251  0.00  0.00     0.080 C 
BRANCH  14  15
ATOM     15  C   UNL d   1     -56.189 -99.382 -44.924  0.00  0.00     0.020 A 
ATOM     16  C   UNL d   1     -55.691 -99.248 -44.271  0.00  0.00     0.031 A 
ATOM     17  C   UNL d   1     -55.263 -99.870 -43.943  0.00  0.00     0.140 A 
ATOM     18  F   UNL d   1     -54.770 -99.733 -43.296  0.00  0.00    -0.204 F 
ATOM     19  C   UNL d   1     -55.326-100.638 -44.263  0.00  0.00     0.030 A 
ATOM     20  C   UNL d   1     -55.825-100.772 -44.916  0.00  0.00     0.002 A 
ATOM     21  C   UNL d   1     -56.254-100.145 -45.243  0.00  0.00     0.002 A 
ENDBRANCH  14  15
ENDBRANCH   3  14
BRANCH   9  22
ATOM     22  C   UNL d   1     -59.087 -98.785 -43.015  0.00  0.00     0.020 A 
ATOM     23  C   UNL d   1     -58.323 -98.756 -42.697  0.00  0.00     0.004 A 
ATOM     24  C   UNL d   1     -58.223 -98.757 -41.874  0.00  0.00     0.030 A 
ATOM     25  C   UNL d   1     -58.871 -98.787 -41.381  0.00  0.00     0.140 A 
ATOM     26  C   UNL d   1     -59.633 -98.816 -41.696  0.00  0.00     0.030 A 
ATOM     27  F   UNL d   1     -58.758 -98.787 -40.561  0.00  0.00    -0.204 F 
ATOM     28  C   UNL d   1     -59.743 -98.815 -42.517  0.00  0.00     0.004 A 
ENDBRANCH   9  22
BRANCH  12  29
ATOM     29  O   UNL d   1     -57.518 -98.760 -48.087  0.00  0.00    -0.326 OA
ATOM     30  C   UNL d   1     -56.701 -98.885 -48.109  0.00  0.00     0.181 C 
ENDBRANCH  12  29
BRANCH  13  31
ATOM     31  O   UNL d   1     -59.179 -98.774 -48.035  0.00  0.00    -0.326 OA
ATOM     32  C   UNL d   1     -59.160 -99.438 -48.528  0.00  0.00     0.181 C 
ENDBRANCH  13  31
TORSDOF 5
ENDMDL
