MODEL 1
REMARK VINA RESULT:      -8.0      0.000      0.000
REMARK  4 active torsions:
REMARK  status: ('A' for Active; 'I' for Inactive)
REMARK    1  A    between atoms: C_5  and  C_1 
REMARK    2  A    between atoms: C_4  and  C_2 
REMARK    3  A    between atoms: C_12  and  C_4 
REMARK    4  A    between atoms: C_13  and  C_5 
ROOT
ATOM      1  C   UNL d   1     -48.505  14.258  22.504  0.00  0.00     0.039 A 
ATOM      2  C   UNL d   1     -47.239  13.641  23.008  0.00  0.00     0.039 A 
ATOM      3  C   UNL d   1     -47.681  14.338  22.740  0.00  0.00     0.196 A 
ATOM      4  C   UNL d   1     -48.895  13.484  22.533  0.00  0.00     0.003 A 
ATOM      5  C   UNL d   1     -47.629  12.867  23.037  0.00  0.00     0.003 A 
ATOM      6  O   UNL d   1     -47.311  15.075  22.713  0.00  0.00    -0.287 OA
ATOM      7  C   UNL d   1     -48.459  12.790  22.798  0.00  0.00     0.000 A 
ATOM      8  C   UNL d   1     -48.830  12.053  22.825  0.00  0.00     0.000 C 
ENDROOT
BRANCH   1   9
ATOM      9  C   UNL d   1     -48.932  14.919  22.248  0.00  0.00     0.005 C 
BRANCH   9  10
ATOM     10  C   UNL d   1     -49.639  15.126  22.609  0.00  0.00     0.019 A 
ATOM     11  C   UNL d   1     -50.352  14.941  22.242  0.00  0.00     0.099 A 
ATOM     12  N   UNL d   1     -51.062  15.146  22.601  0.00  0.00    -0.242 NA
ATOM     13  C   UNL d   1     -51.063  15.539  23.331  0.00  0.00     0.099 A 
ATOM     14  C   UNL d   1     -50.345  15.724  23.698  0.00  0.00     0.021 A 
ATOM     15  C   UNL d   1     -49.637  15.516  23.335  0.00  0.00     0.003 A 
ENDBRANCH   9  10
ENDBRANCH   1   9
BRANCH   2  16
ATOM     16  C   UNL d   1     -46.450  13.708  23.236  0.00  0.00     0.005 C 
BRANCH  16  17
ATOM     17  C   UNL d   1     -45.872  13.225  22.900  0.00  0.00     0.019 A 
ATOM     18  C   UNL d   1     -45.663  12.520  23.271  0.00  0.00     0.099 A 
ATOM     19  N   UNL d   1     -45.089  12.035  22.942  0.00  0.00    -0.242 NA
ATOM     20  C   UNL d   1     -44.717  12.255  22.232  0.00  0.00     0.099 A 
ATOM     21  C   UNL d   1     -44.929  12.963  21.864  0.00  0.00     0.021 A 
ATOM     22  C   UNL d   1     -45.507  13.444  22.201  0.00  0.00     0.003 A 
ENDBRANCH  16  17
ENDBRANCH   2  16
TORSDOF 4
ENDMDL
MODEL 2
REMARK VINA RESULT:      -7.5      0.519      4.450
REMARK  4 active torsions:
REMARK  status: ('A' for Active; 'I' for Inactive)
REMARK    1  A    between atoms: C_5  and  C_1 
REMARK    2  A    between atoms: C_4  and  C_2 
REMARK    3  A    between atoms: C_12  and  C_4 
REMARK    4  A    between atoms: C_13  and  C_5 
ROOT
ATOM      1  C   UNL d   1     -47.274  13.555  22.986  0.00  0.00     0.039 A 
ATOM      2  C   UNL d   1     -48.515  14.210  22.466  0.00  0.00     0.039 A 
ATOM      3  C   UNL d   1     -47.699  14.267  22.755  0.00  0.00     0.196 A 
ATOM      4  C   UNL d   1     -47.660  12.780  22.930  0.00  0.00     0.003 A 
ATOM      5  C   UNL d   1     -48.900  13.435  22.410  0.00  0.00     0.003 A 
ATOM      6  O   UNL d   1     -47.331  15.005  22.809  0.00  0.00    -0.287 OA
ATOM      7  C   UNL d   1     -48.470  12.719  22.644  0.00  0.00     0.000 A 
ATOM      8  C   UNL d   1     -48.837  11.981  22.591  0.00  0.00     0.000 C 
ENDROOT
BRANCH   1   9
ATOM      9  C   UNL d   1     -46.496  13.603  23.263  0.00  0.00     0.005 C 
BRANCH   9  10
ATOM     10  C   UNL d   1     -45.891  13.207  22.877  0.00  0.00     0.019 A 
ATOM     11  C   UNL d   1     -45.488  13.579  22.263  0.00  0.00     0.099 A 
ATOM     12  N   UNL d   1     -44.880  13.184  21.874  0.00  0.00    -0.242 NA
ATOM     13  C   UNL d   1     -44.672  12.414  22.097  0.00  0.00     0.099 A 
ATOM     14  C   UNL d   1     -45.078  12.042  22.715  0.00  0.00     0.021 A 
ATOM     15  C   UNL d   1     -45.685  12.440  23.101  0.00  0.00     0.003 A 
ENDBRANCH   9  10
ENDBRANCH   1   9
BRANCH   2  16
ATOM     16  C   UNL d   1     -48.928  14.887  22.243  0.00  0.00     0.005 C 
BRANCH  16  17
ATOM     17  C   UNL d   1     -49.639  15.086  22.610  0.00  0.00     0.019 A 
ATOM     18  C   UNL d   1     -49.630  15.491  23.327  0.00  0.00     0.099 A 
ATOM     19  N   UNL d   1     -50.334  15.692  23.697  0.00  0.00    -0.242 NA
ATOM     20  C   UNL d   1     -51.059  15.487  23.349  0.00  0.00     0.099 A 
ATOM     21  C   UNL d   1     -51.064  15.081  22.630  0.00  0.00     0.021 A 
ATOM     22  C   UNL d   1     -50.353  14.883  22.265  0.00  0.00     0.003 A 
ENDBRANCH  16  17
ENDBRANCH   2  16
TORSDOF 4
ENDMDL
MODEL 3
REMARK VINA RESULT:      -6.3      1.103      1.509
REMARK  4 active torsions:
REMARK  status: ('A' for Active; 'I' for Inactive)
REMARK    1  A    between atoms: C_5  and  C_1 
REMARK    2  A    between atoms: C_4  and  C_2 
REMARK    3  A    between atoms: C_12  and  C_4 
REMARK    4  A    between atoms: C_13  and  C_5 
ROOT
ATOM      1  C   UNL d   1     -48.468  13.554  23.017  0.00  0.00     0.039 A 
ATOM      2  C   UNL d   1     -47.020  13.287  23.282  0.00  0.00     0.039 A 
ATOM      3  C   UNL d   1     -47.653  13.832  23.047  0.00  0.00     0.196 A 
ATOM      4  C   UNL d   1     -48.656  12.732  23.219  0.00  0.00     0.003 A 
ATOM      5  C   UNL d   1     -47.208  12.466  23.485  0.00  0.00     0.003 A 
ATOM      6  O   UNL d   1     -47.474  14.614  22.854  0.00  0.00    -0.287 OA
ATOM      7  C   UNL d   1     -48.030  12.189  23.453  0.00  0.00     0.000 A 
ATOM      8  C   UNL d   1     -48.210  11.407  23.646  0.00  0.00     0.000 C 
ENDROOT
BRANCH   1   9
ATOM      9  C   UNL d   1     -49.076  14.068  22.793  0.00  0.00     0.005 C 
BRANCH   9  10
ATOM     10  C   UNL d   1     -49.706  13.799  22.342  0.00  0.00     0.019 A 
ATOM     11  C   UNL d   1     -50.427  13.640  22.706  0.00  0.00     0.099 A 
ATOM     12  N   UNL d   1     -51.060  13.370  22.257  0.00  0.00    -0.242 NA
ATOM     13  C   UNL d   1     -50.977  13.257  21.440  0.00  0.00     0.099 A 
ATOM     14  C   UNL d   1     -50.250  13.418  21.077  0.00  0.00     0.021 A 
ATOM     15  C   UNL d   1     -49.619  13.688  21.530  0.00  0.00     0.003 A 
ENDBRANCH   9  10
ENDBRANCH   1   9
BRANCH   2  16
ATOM     16  C   UNL d   1     -46.237  13.545  23.314  0.00  0.00     0.005 C 
BRANCH  16  17
ATOM     17  C   UNL d   1     -45.656  13.185  22.853  0.00  0.00     0.019 A 
ATOM     18  C   UNL d   1     -45.406  13.548  22.158  0.00  0.00     0.099 A 
ATOM     19  N   UNL d   1     -44.828  13.195  21.693  0.00  0.00    -0.242 NA
ATOM     20  C   UNL d   1     -44.495  12.470  21.925  0.00  0.00     0.099 A 
ATOM     21  C   UNL d   1     -44.749  12.111  22.623  0.00  0.00     0.021 A 
ATOM     22  C   UNL d   1     -45.329  12.471  23.083  0.00  0.00     0.003 A 
ENDBRANCH  16  17
ENDBRANCH   2  16
TORSDOF 4
ENDMDL
MODEL 4
REMARK VINA RESULT:      -6.0      7.789      9.547
REMARK  4 active torsions:
REMARK  status: ('A' for Active; 'I' for Inactive)
REMARK    1  A    between atoms: C_5  and  C_1 
REMARK    2  A    between atoms: C_4  and  C_2 
REMARK    3  A    between atoms: C_12  and  C_4 
REMARK    4  A    between atoms: C_13  and  C_5 
ROOT
ATOM      1  C   UNL d   1     -39.110  15.532  20.991  0.00  0.00     0.039 A 
ATOM      2  C   UNL d   1     -39.606  15.826  19.611  0.00  0.00     0.039 A 
ATOM      3  C   UNL d   1     -38.955  15.631  20.150  0.00  0.00     0.196 A 
ATOM      4  C   UNL d   1     -39.915  15.627  21.300  0.00  0.00     0.003 A 
ATOM      5  C   UNL d   1     -40.411  15.920  19.920  0.00  0.00     0.003 A 
ATOM      6  O   UNL d   1     -38.189  15.540  19.856  0.00  0.00    -0.287 OA
ATOM      7  C   UNL d   1     -40.563  15.820  20.768  0.00  0.00     0.000 A 
ATOM      8  C   UNL d   1     -41.330  15.911  21.063  0.00  0.00     0.000 C 
ENDROOT
BRANCH   1   9
ATOM      9  C   UNL d   1     -38.494  15.346  21.510  0.00  0.00     0.005 C 
BRANCH   9  10
ATOM     10  C   UNL d   1     -38.562  14.716  22.031  0.00  0.00     0.019 A 
ATOM     11  C   UNL d   1     -38.712  14.861  22.827  0.00  0.00     0.099 A 
ATOM     12  N   UNL d   1     -38.780  14.231  23.351  0.00  0.00    -0.242 NA
ATOM     13  C   UNL d   1     -38.699  13.452  23.082  0.00  0.00     0.099 A 
ATOM     14  C   UNL d   1     -38.549  13.309  22.280  0.00  0.00     0.021 A 
ATOM     15  C   UNL d   1     -38.481  13.941  21.760  0.00  0.00     0.003 A 
ENDBRANCH   9  10
ENDBRANCH   1   9
BRANCH   2  16
ATOM     16  C   UNL d   1     -39.467  15.922  18.804  0.00  0.00     0.005 C 
BRANCH  16  17
ATOM     17  C   UNL d   1     -39.922  15.518  18.247  0.00  0.00     0.019 A 
ATOM     18  C   UNL d   1     -39.808  14.711  18.135  0.00  0.00     0.099 A 
ATOM     19  N   UNL d   1     -40.257  14.303  17.582  0.00  0.00    -0.242 NA
ATOM     20  C   UNL d   1     -40.829  14.706  17.134  0.00  0.00     0.099 A 
ATOM     21  C   UNL d   1     -40.940  15.515  17.250  0.00  0.00     0.021 A 
ATOM     22  C   UNL d   1     -40.485  15.917  17.807  0.00  0.00     0.003 A 
ENDBRANCH  16  17
ENDBRANCH   2  16
TORSDOF 4
ENDMDL
MODEL 5
REMARK VINA RESULT:      -6.0      7.440      9.885
REMARK  4 active torsions:
REMARK  status: ('A' for Active; 'I' for Inactive)
REMARK    1  A    between atoms: C_5  and  C_1 
REMARK    2  A    between atoms: C_4  and  C_2 
REMARK    3  A    between atoms: C_12  and  C_4 
REMARK    4  A    between atoms: C_13  and  C_5 
ROOT
ATOM      1  C   UNL d   1     -39.775  15.765  18.807  0.00  0.00     0.039 A 
ATOM      2  C   UNL d   1     -38.992  15.480  17.565  0.00  0.00     0.039 A 
ATOM      3  C   UNL d   1     -39.018  15.635  18.419  0.00  0.00     0.196 A 
ATOM      4  C   UNL d   1     -40.511  15.741  18.349  0.00  0.00     0.003 A 
ATOM      5  C   UNL d   1     -39.727  15.456  17.107  0.00  0.00     0.003 A 
ATOM      6  O   UNL d   1     -38.318  15.658  18.855  0.00  0.00    -0.287 OA
ATOM      7  C   UNL d   1     -40.488  15.587  17.502  0.00  0.00     0.000 A 
ATOM      8  C   UNL d   1     -41.189  15.564  17.065  0.00  0.00     0.000 C 
ENDROOT
BRANCH   1   9
ATOM      9  C   UNL d   1     -39.807  15.913  19.620  0.00  0.00     0.005 C 
BRANCH   9  10
ATOM     10  C   UNL d   1     -40.335  15.506  20.099  0.00  0.00     0.019 A 
ATOM     11  C   UNL d   1     -41.005  15.890  20.382  0.00  0.00     0.099 A 
ATOM     12  N   UNL d   1     -41.536  15.485  20.862  0.00  0.00    -0.242 NA
ATOM     13  C   UNL d   1     -41.399  14.693  21.062  0.00  0.00     0.099 A 
ATOM     14  C   UNL d   1     -40.724  14.309  20.775  0.00  0.00     0.021 A 
ATOM     15  C   UNL d   1     -40.196  14.718  20.295  0.00  0.00     0.003 A 
ENDBRANCH   9  10
ENDBRANCH   1   9
BRANCH   2  16
ATOM     16  C   UNL d   1     -38.271  15.354  17.185  0.00  0.00     0.005 C 
BRANCH  16  17
ATOM     17  C   UNL d   1     -38.195  14.768  16.610  0.00  0.00     0.019 A 
ATOM     18  C   UNL d   1     -38.175  14.978  15.814  0.00  0.00     0.099 A 
ATOM     19  N   UNL d   1     -38.100  14.400  15.237  0.00  0.00    -0.242 NA
ATOM     20  C   UNL d   1     -38.043  13.600  15.455  0.00  0.00     0.099 A 
ATOM     21  C   UNL d   1     -38.063  13.395  16.254  0.00  0.00     0.021 A 
ATOM     22  C   UNL d   1     -38.139  13.981  16.827  0.00  0.00     0.003 A 
ENDBRANCH  16  17
ENDBRANCH   2  16
TORSDOF 4
ENDMDL
