MODEL 1
REMARK VINA RESULT:      42.6      0.000      0.000
REMARK  3 active torsions:
REMARK  status: ('A' for Active; 'I' for Inactive)
REMARK    1  A    between atoms: C_8  and  C_1 
REMARK    2  A    between atoms: C_3  and  N_14 
REMARK       I    between atoms: N_13  and  C_8 
REMARK    3  A    between atoms: N_14  and  N_13 
ROOT
ATOM      1  C   UNL d   1      15.789  13.017  -0.185  0.00  0.00     0.320 C 
ATOM      2  N   UNL d   1      15.749  13.823  -0.045  0.00  0.00    -0.102 NA
ATOM      3  O   UNL d   1      16.364  12.437  -0.016  0.00  0.00    -0.261 OA
ENDROOT
BRANCH   1   4
ATOM      4  C   UNL d   1      15.133  12.710  -0.571  0.00  0.00     0.162 A 
ATOM      5  C   UNL d   1      14.513  12.404  -0.132  0.00  0.00     0.072 A 
ATOM      6  C   UNL d   1      13.851  12.093  -0.514  0.00  0.00     0.200 A 
ATOM      7  O   UNL d   1      13.215  11.779  -0.064  0.00  0.00    -0.286 OA
ATOM      8  C   UNL d   1      13.812  12.090  -1.342  0.00  0.00     0.062 A 
ATOM      9  C   UNL d   1      14.434  12.397  -1.777  0.00  0.00     0.103 A 
ATOM     10  C   UNL d   1      13.150  11.780  -1.724  0.00  0.00     0.005 A 
ATOM     11  O   UNL d   1      15.091  12.705  -1.391  0.00  0.00    -0.302 OA
ATOM     12  C   UNL d   1      14.402  12.398  -2.595  0.00  0.00     0.025 A 
ATOM     13  C   UNL d   1      13.743  12.089  -2.984  0.00  0.00     0.002 A 
ATOM     14  C   UNL d   1      13.117  11.780  -2.541  0.00  0.00     0.000 A 
ENDBRANCH   1   4
BRANCH   2  15
ATOM     15  N   UNL d   1      15.088  14.243  -0.289  0.00  0.00    -0.118 NA
BRANCH  15  16
ATOM     16  C   UNL d   1      15.161  15.034  -0.537  0.00  0.00     0.215 A 
ATOM     17  N   UNL d   1      14.834  15.361  -1.215  0.00  0.00    -0.219 NA
ATOM     18  C   UNL d   1      15.039  16.154  -1.253  0.00  0.00     0.090 A 
ATOM     19  C   UNL d   1      14.872  16.748  -1.796  0.00  0.00     0.018 A 
ATOM     20  C   UNL d   1      15.503  16.321  -0.583  0.00  0.00     0.050 A 
ATOM     21  C   UNL d   1      15.166  17.510  -1.676  0.00  0.00     0.002 A 
ATOM     22  C   UNL d   1      14.409  16.578  -2.463  0.00  0.00     0.002 C 
ATOM     23  C   UNL d   1      15.625  17.673  -1.013  0.00  0.00     0.001 A 
ATOM     24  C   UNL d   1      15.801  17.080  -0.455  0.00  0.00     0.008 A 
ATOM     25  S   UNL d   1      15.575  15.629  -0.146  0.00  0.00    -0.045 SA
ENDBRANCH  15  16
ENDBRANCH   2  15
TORSDOF 3
ENDMDL
MODEL 2
REMARK VINA RESULT:      42.7      1.774      4.018
REMARK  3 active torsions:
REMARK  status: ('A' for Active; 'I' for Inactive)
REMARK    1  A    between atoms: C_8  and  C_1 
REMARK    2  A    between atoms: C_3  and  N_14 
REMARK       I    between atoms: N_13  and  C_8 
REMARK    3  A    between atoms: N_14  and  N_13 
ROOT
ATOM      1  C   UNL d   1      14.960  12.304  -0.497  0.00  0.00     0.320 C 
ATOM      2  N   UNL d   1      14.365  12.188  -1.047  0.00  0.00    -0.102 NA
ATOM      3  O   UNL d   1      15.403  11.784  -0.018  0.00  0.00    -0.261 OA
ENDROOT
BRANCH   1   4
ATOM      4  C   UNL d   1      15.169  13.090  -0.388  0.00  0.00     0.162 A 
ATOM      5  C   UNL d   1      15.959  13.293  -0.320  0.00  0.00     0.072 A 
ATOM      6  C   UNL d   1      16.176  14.081  -0.210  0.00  0.00     0.200 A 
ATOM      7  O   UNL d   1      16.987  14.289  -0.141  0.00  0.00    -0.286 OA
ATOM      8  C   UNL d   1      15.594  14.670  -0.169  0.00  0.00     0.062 A 
ATOM      9  C   UNL d   1      14.804  14.464  -0.237  0.00  0.00     0.103 A 
ATOM     10  C   UNL d   1      15.810  15.458  -0.059  0.00  0.00     0.005 A 
ATOM     11  O   UNL d   1      14.595  13.676  -0.346  0.00  0.00    -0.302 OA
ATOM     12  C   UNL d   1      14.224  15.040  -0.196  0.00  0.00     0.025 A 
ATOM     13  C   UNL d   1      14.433  15.830  -0.087  0.00  0.00     0.002 A 
ATOM     14  C   UNL d   1      15.231  16.035  -0.019  0.00  0.00     0.000 A 
ENDBRANCH   1   4
BRANCH   2  15
ATOM     15  N   UNL d   1      14.038  12.835  -1.431  0.00  0.00    -0.118 NA
BRANCH  15  16
ATOM     16  C   UNL d   1      13.785  12.770  -2.222  0.00  0.00     0.215 A 
ATOM     17  N   UNL d   1      13.779  13.372  -2.779  0.00  0.00    -0.219 NA
ATOM     18  C   UNL d   1      13.489  13.077  -3.487  0.00  0.00     0.090 A 
ATOM     19  C   UNL d   1      13.361  13.419  -4.223  0.00  0.00     0.018 A 
ATOM     20  C   UNL d   1      13.313  12.274  -3.364  0.00  0.00     0.050 A 
ATOM     21  C   UNL d   1      13.056  12.964  -4.840  0.00  0.00     0.002 A 
ATOM     22  C   UNL d   1      13.538  14.221  -4.342  0.00  0.00     0.002 C 
ATOM     23  C   UNL d   1      12.881  12.169  -4.717  0.00  0.00     0.001 A 
ATOM     24  C   UNL d   1      13.007  11.811  -3.976  0.00  0.00     0.008 A 
ATOM     25  S   UNL d   1      13.496  12.090  -2.584  0.00  0.00    -0.045 SA
ENDBRANCH  15  16
ENDBRANCH   2  15
TORSDOF 3
ENDMDL
