MODEL 1
REMARK VINA RESULT:      70.1      0.000      0.000
REMARK  5 active torsions:
REMARK  status: ('A' for Active; 'I' for Inactive)
REMARK    1  A    between atoms: C_2  and  C_1 
REMARK       I    between atoms: N_3  and  C_1 
REMARK    2  A    between atoms: C_8  and  N_3 
REMARK    3  A    between atoms: N_4  and  C_9 
REMARK    4  A    between atoms: N_5  and  N_4 
REMARK    5  A    between atoms: C_10  and  N_5 
ROOT
ATOM      1  C   UNL d   1      59.499  48.962  50.732  0.00  0.00     0.085 A 
ATOM      2  C   UNL d   1      61.075  48.625  50.355  0.00  0.00     0.103 A 
ATOM      3  C   UNL d   1      59.683  48.331  50.231  0.00  0.00     0.021 A 
ATOM      4  C   UNL d   1      60.108  49.423  51.042  0.00  0.00     0.021 A 
ATOM      5  C   UNL d   1      60.891  49.257  50.856  0.00  0.00     0.022 A 
ATOM      6  C   UNL d   1      60.471  48.159  50.040  0.00  0.00     0.022 A 
ENDROOT
BRANCH   1   7
ATOM      7  N   UNL d   1      58.712  49.131  50.920  0.00  0.00    -0.208 NA
ATOM      8  C   UNL d   1      58.169  49.299  50.319  0.00  0.00     0.280 C 
ATOM      9  O   UNL d   1      58.311  49.325  49.503  0.00  0.00    -0.265 OA
BRANCH   8  10
ATOM     10  C   UNL d   1      57.460  49.435  50.711  0.00  0.00     0.069 A 
ATOM     11  C   UNL d   1      56.761  49.477  50.279  0.00  0.00     0.062 A 
ATOM     12 CL   UNL d   1      56.767  49.383  49.464  0.00  0.00    -0.082 Cl
ATOM     13  C   UNL d   1      56.044  49.614  50.674  0.00  0.00     0.012 A 
ATOM     14  C   UNL d   1      56.039  49.708  51.498  0.00  0.00     0.001 A 
ATOM     15  C   UNL d   1      56.749  49.664  51.916  0.00  0.00     0.000 A 
ATOM     16  C   UNL d   1      57.453  49.528  51.524  0.00  0.00     0.006 A 
ENDBRANCH   8  10
ENDBRANCH   1   7
BRANCH   2  17
ATOM     17  N   UNL d   1      61.861  48.460  50.170  0.00  0.00    -0.148 NA
BRANCH  17  18
ATOM     18  N   UNL d   1      62.213  47.768  50.448  0.00  0.00    -0.148 NA
BRANCH  18  19
ATOM     19  C   UNL d   1      62.009  47.037  50.118  0.00  0.00     0.103 A 
ATOM     20  C   UNL d   1      62.268  46.836  49.363  0.00  0.00     0.021 A 
ATOM     21  C   UNL d   1      62.065  46.113  49.036  0.00  0.00     0.002 A 
ATOM     22  C   UNL d   1      61.599  45.581  49.466  0.00  0.00     0.000 A 
ATOM     23  C   UNL d   1      61.336  45.775  50.222  0.00  0.00     0.002 A 
ATOM     24  C   UNL d   1      61.543  46.506  50.547  0.00  0.00     0.021 A 
ENDBRANCH  18  19
ENDBRANCH  17  18
ENDBRANCH   2  17
TORSDOF 5
ENDMDL
MODEL 2
REMARK VINA RESULT:      70.4      1.703      5.158
REMARK  5 active torsions:
REMARK  status: ('A' for Active; 'I' for Inactive)
REMARK    1  A    between atoms: C_2  and  C_1 
REMARK       I    between atoms: N_3  and  C_1 
REMARK    2  A    between atoms: C_8  and  N_3 
REMARK    3  A    between atoms: N_4  and  C_9 
REMARK    4  A    between atoms: N_5  and  N_4 
REMARK    5  A    between atoms: C_10  and  N_5 
ROOT
ATOM      1  C   UNL d   1      60.614  47.997  50.300  0.00  0.00     0.085 A 
ATOM      2  C   UNL d   1      59.470  49.117  50.715  0.00  0.00     0.103 A 
ATOM      3  C   UNL d   1      60.017  47.804  50.838  0.00  0.00     0.021 A 
ATOM      4  C   UNL d   1      60.634  48.753  49.971  0.00  0.00     0.021 A 
ATOM      5  C   UNL d   1      60.067  49.310  50.176  0.00  0.00     0.022 A 
ATOM      6  C   UNL d   1      59.442  48.363  51.048  0.00  0.00     0.022 A 
ENDROOT
BRANCH   1   7
ATOM      7  N   UNL d   1      61.186  47.437  50.092  0.00  0.00    -0.208 NA
ATOM      8  C   UNL d   1      61.056  46.635  50.245  0.00  0.00     0.280 C 
ATOM      9  O   UNL d   1      60.391  46.291  50.600  0.00  0.00    -0.265 OA
BRANCH   8  10
ATOM     10  C   UNL d   1      61.730  46.258  49.968  0.00  0.00     0.069 A 
ATOM     11  C   UNL d   1      61.972  45.552  50.316  0.00  0.00     0.062 A 
ATOM     12 CL   UNL d   1      61.545  45.225  50.936  0.00  0.00    -0.082 Cl
ATOM     13  C   UNL d   1      62.653  45.170  50.037  0.00  0.00     0.012 A 
ATOM     14  C   UNL d   1      63.083  45.501  49.411  0.00  0.00     0.001 A 
ATOM     15  C   UNL d   1      62.829  46.209  49.073  0.00  0.00     0.000 A 
ATOM     16  C   UNL d   1      62.157  46.583  49.350  0.00  0.00     0.006 A 
ENDBRANCH   8  10
ENDBRANCH   1   7
BRANCH   2  17
ATOM     17  N   UNL d   1      58.901  49.679  50.920  0.00  0.00    -0.148 NA
BRANCH  17  18
ATOM     18  N   UNL d   1      58.148  49.435  51.153  0.00  0.00    -0.148 NA
BRANCH  18  19
ATOM     19  C   UNL d   1      57.506  49.520  50.637  0.00  0.00     0.103 A 
ATOM     20  C   UNL d   1      57.631  49.583  49.826  0.00  0.00     0.021 A 
ATOM     21  C   UNL d   1      56.995  49.667  49.316  0.00  0.00     0.002 A 
ATOM     22  C   UNL d   1      56.225  49.690  49.617  0.00  0.00     0.000 A 
ATOM     23  C   UNL d   1      56.091  49.628  50.427  0.00  0.00     0.002 A 
ATOM     24  C   UNL d   1      56.736  49.543  50.938  0.00  0.00     0.021 A 
ENDBRANCH  18  19
ENDBRANCH  17  18
ENDBRANCH   2  17
TORSDOF 5
ENDMDL
