MODEL 1
REMARK VINA RESULT:      23.4      0.000      0.000
REMARK  4 active torsions:
REMARK  status: ('A' for Active; 'I' for Inactive)
REMARK       I    between atoms: N_2  and  C_1 
REMARK    1  A    between atoms: C_4  and  C_1 
REMARK    2  A    between atoms: C_14  and  N_3 
REMARK    3  A    between atoms: C_5  and  C_6 
REMARK    4  A    between atoms: C_17  and  C_14 
ROOT
ATOM      1  C   UNL d   1      45.373 -17.054  44.365  0.00  0.00     0.265 C 
ATOM      2  N   UNL d   1      45.639 -16.282  44.353  0.00  0.00    -0.269 N 
ATOM      3  N   UNL d   1      46.171 -14.727  44.335  0.00  0.00    -0.300 N 
ATOM      4  O   UNL d   1      44.853 -17.296  44.955  0.00  0.00    -0.267 OA
ATOM      5  C   UNL d   1      46.157 -16.031  43.771  0.00  0.00     0.102 A 
ATOM      6  C   UNL d   1      45.382 -15.745  44.937  0.00  0.00     0.102 A 
ATOM      7  C   UNL d   1      45.650 -14.972  44.924  0.00  0.00     0.100 A 
ATOM      8  C   UNL d   1      46.421 -15.250  43.766  0.00  0.00     0.100 A 
ENDROOT
BRANCH   1   9
ATOM      9  C   UNL d   1      45.630 -17.591  43.781  0.00  0.00     0.057 A 
ATOM     10  C   UNL d   1      46.090 -18.230  43.991  0.00  0.00     0.004 A 
ATOM     11  C   UNL d   1      46.347 -18.767  43.406  0.00  0.00    -0.004 A 
ATOM     12  C   UNL d   1      46.138 -18.650  42.628  0.00  0.00    -0.023 A 
ATOM     13  C   UNL d   1      45.673 -18.006  42.411  0.00  0.00    -0.004 A 
ATOM     14  C   UNL d   1      45.416 -17.469  42.996  0.00  0.00     0.004 A 
BRANCH  12  15
ATOM     15  C   UNL d   1      46.391 -19.179  42.052  0.00  0.00     0.019 C 
ATOM     16  C   UNL d   1      46.156 -19.810  42.528  0.00  0.00     0.004 C 
ATOM     17  C   UNL d   1      46.646 -19.711  41.473  0.00  0.00     0.004 C 
ATOM     18  C   UNL d   1      46.629 -18.541  41.571  0.00  0.00     0.004 C 
ENDBRANCH  12  15
ENDBRANCH   1   9
BRANCH   3  19
ATOM     19  C   UNL d   1      46.443 -13.953  44.316  0.00  0.00     0.080 C 
BRANCH  19  20
ATOM     20  C   UNL d   1      45.956 -13.347  44.053  0.00  0.00     0.018 A 
ATOM     21  C   UNL d   1      45.794 -12.679  44.541  0.00  0.00     0.002 A 
ATOM     22  C   UNL d   1      45.305 -12.080  44.264  0.00  0.00     0.000 A 
ATOM     23  C   UNL d   1      44.968 -12.130  43.501  0.00  0.00     0.000 A 
ATOM     24  C   UNL d   1      45.129 -12.790  43.022  0.00  0.00     0.000 A 
ATOM     25  C   UNL d   1      45.622 -13.396  43.298  0.00  0.00     0.002 A 
ENDBRANCH  19  20
ENDBRANCH   3  19
TORSDOF 4
ENDMDL
