MODEL 1
REMARK VINA RESULT:      -7.1      0.000      0.000
REMARK  10 active torsions:
REMARK  status: ('A' for Active; 'I' for Inactive)
REMARK    1  A    between atoms: N_11  and  C_1 
REMARK    2  A    between atoms: C_12  and  C_2 
REMARK    3  A    between atoms: C_4  and  S_15 
REMARK    4  A    between atoms: C_18  and  C_6 
REMARK       I    between atoms: C_16  and  N_11 
REMARK    5  A    between atoms: O_28  and  C_12 
REMARK       I    between atoms: C_13  and  N_17 
REMARK    6  A    between atoms: C_14  and  C_13 
REMARK    7  A    between atoms: S_15  and  C_26 
REMARK    8  A    between atoms: C_26  and  C_16 
REMARK    9  A    between atoms: N_17  and  C_18 
REMARK   10  A    between atoms: C_32  and  O_28 
ROOT
ATOM      1  C   UNL d   1      51.763  34.017  52.733  0.00  0.00     0.101 C 
ENDROOT
BRANCH   1   2
ATOM      2  S   UNL d   1      51.253  34.074  52.150  0.00  0.00    -0.043 SA
BRANCH   2   3
ATOM      3  C   UNL d   1      50.493  34.358  52.350  0.00  0.00     0.202 A 
ATOM      4  N   UNL d   1      49.915  34.451  51.763  0.00  0.00    -0.265 N 
ATOM      5  C   UNL d   1      49.231  34.737  52.126  0.00  0.00     0.190 A 
ATOM      6  C   UNL d   1      50.007  34.284  50.936  0.00  0.00     0.103 C 
ATOM      7  N   UNL d   1      49.381  34.823  52.941  0.00  0.00    -0.126 NA
ATOM      8  N   UNL d   1      50.159  34.589  53.079  0.00  0.00    -0.121 NA
BRANCH   5   9
ATOM      9  C   UNL d   1      48.517  34.911  51.751  0.00  0.00     0.141 C 
BRANCH   9  10
ATOM     10  N   UNL d   1      47.905  35.271  52.166  0.00  0.00    -0.202 NA
ATOM     11  C   UNL d   1      47.198  35.461  51.787  0.00  0.00     0.302 C 
ATOM     12  O   UNL d   1      47.108  35.285  50.982  0.00  0.00    -0.263 OA
BRANCH  11  13
ATOM     13  C   UNL d   1      46.574  35.828  52.210  0.00  0.00     0.158 A 
ATOM     14  O   UNL d   1      46.627  36.551  52.662  0.00  0.00    -0.300 OA
ATOM     15  C   UNL d   1      45.863  36.709  52.992  0.00  0.00     0.123 A 
ATOM     16  C   UNL d   1      45.333  36.088  52.749  0.00  0.00     0.029 A 
ATOM     17  C   UNL d   1      45.771  35.546  52.268  0.00  0.00     0.032 A 
ENDBRANCH  11  13
ENDBRANCH   9  10
ENDBRANCH   5   9
ENDBRANCH   2   3
ENDBRANCH   1   2
BRANCH   1  18
ATOM     18  C   UNL d   1      52.519  34.436  52.861  0.00  0.00     0.286 C 
ATOM     19  N   UNL d   1      53.313  33.933  53.221  0.00  0.00    -0.201 NA
ATOM     20  O   UNL d   1      52.580  35.209  52.693  0.00  0.00    -0.265 OA
BRANCH  19  21
ATOM     21  C   UNL d   1      53.247  33.112  53.399  0.00  0.00     0.119 A 
ATOM     22  C   UNL d   1      53.456  32.854  54.070  0.00  0.00     0.088 A 
ATOM     23  C   UNL d   1      53.134  31.649  53.726  0.00  0.00     0.013 A 
ATOM     24  C   UNL d   1      53.083  30.930  53.897  0.00  0.00     0.001 A 
ATOM     25  C   UNL d   1      52.925  31.908  53.051  0.00  0.00     0.031 A 
ATOM     26  C   UNL d   1      52.814  30.442  53.385  0.00  0.00     0.001 A 
ATOM     27  C   UNL d   1      52.603  30.704  52.706  0.00  0.00     0.006 A 
ATOM     28  S   UNL d   1      52.979  32.631  52.885  0.00  0.00    -0.068 SA
BRANCH  22  29
ATOM     29  C   UNL d   1      53.755  33.196  54.726  0.00  0.00     0.302 C 
ATOM     30  O   UNL d   1      53.304  33.394  55.255  0.00  0.00    -0.259 OA
BRANCH  29  31
ATOM     31  O   UNL d   1      54.583  33.312  54.777  0.00  0.00    -0.271 OA
BRANCH  31  32
ATOM     32  C   UNL d   1      55.117  33.640  55.328  0.00  0.00     0.126 C 
ATOM     33  C   UNL d   1      55.791  34.104  55.285  0.00  0.00     0.029 C 
ENDBRANCH  31  32
ENDBRANCH  29  31
ENDBRANCH  22  29
ENDBRANCH  19  21
ENDBRANCH   1  18
TORSDOF 10
ENDMDL
MODEL 2
REMARK VINA RESULT:      -6.7      1.490      6.989
REMARK  10 active torsions:
REMARK  status: ('A' for Active; 'I' for Inactive)
REMARK    1  A    between atoms: N_11  and  C_1 
REMARK    2  A    between atoms: C_12  and  C_2 
REMARK    3  A    between atoms: C_4  and  S_15 
REMARK    4  A    between atoms: C_18  and  C_6 
REMARK       I    between atoms: C_16  and  N_11 
REMARK    5  A    between atoms: O_28  and  C_12 
REMARK       I    between atoms: C_13  and  N_17 
REMARK    6  A    between atoms: C_14  and  C_13 
REMARK    7  A    between atoms: S_15  and  C_26 
REMARK    8  A    between atoms: C_26  and  C_16 
REMARK    9  A    between atoms: N_17  and  C_18 
REMARK   10  A    between atoms: C_32  and  O_28 
ROOT
ATOM      1  C   UNL d   1      49.244  34.802  52.237  0.00  0.00     0.101 C 
ENDROOT
BRANCH   1   2
ATOM      2  S   UNL d   1      49.564  34.149  52.509  0.00  0.00    -0.043 SA
BRANCH   2   3
ATOM      3  C   UNL d   1      50.381  34.181  52.683  0.00  0.00     0.202 A 
ATOM      4  N   UNL d   1      50.790  33.492  52.892  0.00  0.00    -0.265 N 
ATOM      5  C   UNL d   1      51.577  33.698  53.028  0.00  0.00     0.190 A 
ATOM      6  C   UNL d   1      50.462  32.712  52.955  0.00  0.00     0.103 C 
ATOM      7  N   UNL d   1      51.661  34.518  52.904  0.00  0.00    -0.126 NA
ATOM      8  N   UNL d   1      50.923  34.816  52.691  0.00  0.00    -0.121 NA
BRANCH   5   9
ATOM      9  C   UNL d   1      52.184  33.185  53.250  0.00  0.00     0.141 C 
BRANCH   9  10
ATOM     10  N   UNL d   1      52.791  33.445  53.740  0.00  0.00    -0.202 NA
ATOM     11  C   UNL d   1      53.420  32.945  53.926  0.00  0.00     0.302 C 
ATOM     12  O   UNL d   1      53.437  32.177  53.615  0.00  0.00    -0.263 OA
BRANCH  11  13
ATOM     13  C   UNL d   1      54.040  33.210  54.426  0.00  0.00     0.158 A 
ATOM     14  O   UNL d   1      54.760  33.596  54.178  0.00  0.00    -0.300 OA
ATOM     15  C   UNL d   1      55.219  33.763  54.870  0.00  0.00     0.123 A 
ATOM     16  C   UNL d   1      54.789  33.482  55.550  0.00  0.00     0.029 A 
ATOM     17  C   UNL d   1      54.063  33.142  55.277  0.00  0.00     0.032 A 
ENDBRANCH  11  13
ENDBRANCH   9  10
ENDBRANCH   5   9
ENDBRANCH   2   3
ENDBRANCH   1   2
BRANCH   1  18
ATOM     18  C   UNL d   1      48.804  34.946  51.496  0.00  0.00     0.286 C 
ATOM     19  N   UNL d   1      47.948  35.476  51.519  0.00  0.00    -0.201 NA
ATOM     20  O   UNL d   1      49.076  34.660  50.808  0.00  0.00    -0.265 OA
BRANCH  19  21
ATOM     21  C   UNL d   1      47.659  35.779  52.250  0.00  0.00     0.119 A 
ATOM     22  C   UNL d   1      46.931  35.933  52.332  0.00  0.00     0.088 A 
ATOM     23  C   UNL d   1      47.133  36.321  53.550  0.00  0.00     0.013 A 
ATOM     24  C   UNL d   1      46.863  36.588  54.186  0.00  0.00     0.001 A 
ATOM     25  C   UNL d   1      47.865  36.166  53.467  0.00  0.00     0.031 A 
ATOM     26  C   UNL d   1      47.331  36.709  54.768  0.00  0.00     0.001 A 
ATOM     27  C   UNL d   1      48.068  36.553  54.685  0.00  0.00     0.006 A 
ATOM     28  S   UNL d   1      48.130  35.898  52.826  0.00  0.00    -0.068 SA
BRANCH  22  29
ATOM     29  C   UNL d   1      46.296  35.877  51.853  0.00  0.00     0.302 C 
ATOM     30  O   UNL d   1      46.211  36.363  51.325  0.00  0.00    -0.259 OA
BRANCH  29  31
ATOM     31  O   UNL d   1      45.750  35.255  51.981  0.00  0.00    -0.271 OA
BRANCH  31  32
ATOM     32  C   UNL d   1      44.937  35.123  51.846  0.00  0.00     0.126 C 
ATOM     33  C   UNL d   1      44.326  34.762  52.257  0.00  0.00     0.029 C 
ENDBRANCH  31  32
ENDBRANCH  29  31
ENDBRANCH  22  29
ENDBRANCH  19  21
ENDBRANCH   1  18
TORSDOF 10
ENDMDL
MODEL 3
REMARK VINA RESULT:      -6.2      1.543      2.485
REMARK  10 active torsions:
REMARK  status: ('A' for Active; 'I' for Inactive)
REMARK    1  A    between atoms: N_11  and  C_1 
REMARK    2  A    between atoms: C_12  and  C_2 
REMARK    3  A    between atoms: C_4  and  S_15 
REMARK    4  A    between atoms: C_18  and  C_6 
REMARK       I    between atoms: C_16  and  N_11 
REMARK    5  A    between atoms: O_28  and  C_12 
REMARK       I    between atoms: C_13  and  N_17 
REMARK    6  A    between atoms: C_14  and  C_13 
REMARK    7  A    between atoms: S_15  and  C_26 
REMARK    8  A    between atoms: C_26  and  C_16 
REMARK    9  A    between atoms: N_17  and  C_18 
REMARK   10  A    between atoms: C_32  and  O_28 
ROOT
ATOM      1  C   UNL d   1      52.259  32.926  52.879  0.00  0.00     0.101 C 
ENDROOT
BRANCH   1   2
ATOM      2  S   UNL d   1      51.906  33.502  52.497  0.00  0.00    -0.043 SA
BRANCH   2   3
ATOM      3  C   UNL d   1      51.240  33.841  52.872  0.00  0.00     0.202 A 
ATOM      4  N   UNL d   1      50.695  34.284  52.433  0.00  0.00    -0.265 N 
ATOM      5  C   UNL d   1      50.106  34.542  52.950  0.00  0.00     0.190 A 
ATOM      6  C   UNL d   1      50.734  34.445  51.601  0.00  0.00     0.103 C 
ATOM      7  N   UNL d   1      50.283  34.260  53.714  0.00  0.00    -0.126 NA
ATOM      8  N   UNL d   1      50.983  33.827  53.666  0.00  0.00    -0.121 NA
BRANCH   5   9
ATOM      9  C   UNL d   1      49.451  35.002  52.750  0.00  0.00     0.141 C 
BRANCH   9  10
ATOM     10  N   UNL d   1      48.958  35.302  53.337  0.00  0.00    -0.202 NA
ATOM     11  C   UNL d   1      48.300  35.757  53.137  0.00  0.00     0.302 C 
ATOM     12  O   UNL d   1      48.137  35.911  52.339  0.00  0.00    -0.263 OA
BRANCH  11  13
ATOM     13  C   UNL d   1      47.798  36.064  53.736  0.00  0.00     0.158 A 
ATOM     14  O   UNL d   1      48.042  36.521  54.414  0.00  0.00    -0.300 OA
ATOM     15  C   UNL d   1      47.349  36.709  54.865  0.00  0.00     0.123 A 
ATOM     16  C   UNL d   1      46.674  36.371  54.471  0.00  0.00     0.029 A 
ATOM     17  C   UNL d   1      46.950  35.974  53.776  0.00  0.00     0.032 A 
ENDBRANCH  11  13
ENDBRANCH   9  10
ENDBRANCH   5   9
ENDBRANCH   2   3
ENDBRANCH   1   2
BRANCH   1  18
ATOM     18  C   UNL d   1      52.564  32.161  52.585  0.00  0.00     0.286 C 
ATOM     19  N   UNL d   1      53.349  31.727  53.042  0.00  0.00    -0.201 NA
ATOM     20  O   UNL d   1      52.223  31.810  51.960  0.00  0.00    -0.265 OA
BRANCH  19  21
ATOM     21  C   UNL d   1      53.710  32.101  53.706  0.00  0.00     0.119 A 
ATOM     22  C   UNL d   1      53.709  31.764  54.374  0.00  0.00     0.088 A 
ATOM     23  C   UNL d   1      54.352  32.759  54.895  0.00  0.00     0.013 A 
ATOM     24  C   UNL d   1      54.666  33.075  55.488  0.00  0.00     0.001 A 
ATOM     25  C   UNL d   1      54.353  33.098  54.223  0.00  0.00     0.031 A 
ATOM     26  C   UNL d   1      54.995  33.752  55.420  0.00  0.00     0.001 A 
ATOM     27  C   UNL d   1      54.995  34.093  54.743  0.00  0.00     0.006 A 
ATOM     28  S   UNL d   1      54.037  32.776  53.632  0.00  0.00    -0.068 SA
BRANCH  22  29
ATOM     29  C   UNL d   1      53.424  31.070  54.644  0.00  0.00     0.302 C 
ATOM     30  O   UNL d   1      52.965  31.074  55.203  0.00  0.00    -0.259 OA
BRANCH  29  31
ATOM     31  O   UNL d   1      53.667  30.362  54.269  0.00  0.00    -0.271 OA
BRANCH  31  32
ATOM     32  C   UNL d   1      53.426  29.563  54.265  0.00  0.00     0.126 C 
ATOM     33  C   UNL d   1      53.718  28.862  54.573  0.00  0.00     0.029 C 
ENDBRANCH  31  32
ENDBRANCH  29  31
ENDBRANCH  22  29
ENDBRANCH  19  21
ENDBRANCH   1  18
TORSDOF 10
ENDMDL
MODEL 4
REMARK VINA RESULT:      -5.5      1.450      2.397
REMARK  10 active torsions:
REMARK  status: ('A' for Active; 'I' for Inactive)
REMARK    1  A    between atoms: N_11  and  C_1 
REMARK    2  A    between atoms: C_12  and  C_2 
REMARK    3  A    between atoms: C_4  and  S_15 
REMARK    4  A    between atoms: C_18  and  C_6 
REMARK       I    between atoms: C_16  and  N_11 
REMARK    5  A    between atoms: O_28  and  C_12 
REMARK       I    between atoms: C_13  and  N_17 
REMARK    6  A    between atoms: C_14  and  C_13 
REMARK    7  A    between atoms: S_15  and  C_26 
REMARK    8  A    between atoms: C_26  and  C_16 
REMARK    9  A    between atoms: N_17  and  C_18 
REMARK   10  A    between atoms: C_32  and  O_28 
ROOT
ATOM      1  C   UNL d   1      50.571  33.959  52.915  0.00  0.00     0.101 C 
ENDROOT
BRANCH   1   2
ATOM      2  S   UNL d   1      50.138  34.306  52.371  0.00  0.00    -0.043 SA
BRANCH   2   3
ATOM      3  C   UNL d   1      49.557  34.840  52.646  0.00  0.00     0.202 A 
ATOM      4  N   UNL d   1      48.925  35.057  52.156  0.00  0.00    -0.265 N 
ATOM      5  C   UNL d   1      48.449  35.584  52.577  0.00  0.00     0.190 A 
ATOM      6  C   UNL d   1      48.790  34.788  51.363  0.00  0.00     0.103 C 
ATOM      7  N   UNL d   1      48.784  35.696  53.332  0.00  0.00    -0.126 NA
ATOM      8  N   UNL d   1      49.467  35.237  53.375  0.00  0.00    -0.121 NA
BRANCH   5   9
ATOM      9  C   UNL d   1      47.759  35.942  52.302  0.00  0.00     0.141 C 
BRANCH   9  10
ATOM     10  N   UNL d   1      47.090  35.977  52.780  0.00  0.00    -0.202 NA
ATOM     11  C   UNL d   1      46.396  36.326  52.502  0.00  0.00     0.302 C 
ATOM     12  O   UNL d   1      46.378  36.643  51.736  0.00  0.00    -0.263 OA
BRANCH  11  13
ATOM     13  C   UNL d   1      45.714  36.362  52.989  0.00  0.00     0.158 A 
ATOM     14  O   UNL d   1      45.667  36.709  53.768  0.00  0.00    -0.300 OA
ATOM     15  C   UNL d   1      44.872  36.618  54.047  0.00  0.00     0.123 A 
ATOM     16  C   UNL d   1      44.422  36.215  53.446  0.00  0.00     0.029 A 
ATOM     17  C   UNL d   1      44.941  36.058  52.795  0.00  0.00     0.032 A 
ENDBRANCH  11  13
ENDBRANCH   9  10
ENDBRANCH   5   9
ENDBRANCH   2   3
ENDBRANCH   1   2
BRANCH   1  18
ATOM     18  C   UNL d   1      50.690  33.109  53.080  0.00  0.00     0.286 C 
ATOM     19  N   UNL d   1      51.566  32.794  53.463  0.00  0.00    -0.201 NA
ATOM     20  O   UNL d   1      50.111  32.588  52.929  0.00  0.00    -0.265 OA
BRANCH  19  21
ATOM     21  C   UNL d   1      52.180  33.347  53.623  0.00  0.00     0.119 A 
ATOM     22  C   UNL d   1      52.892  33.177  53.463  0.00  0.00     0.088 A 
ATOM     23  C   UNL d   1      53.284  34.328  53.906  0.00  0.00     0.013 A 
ATOM     24  C   UNL d   1      53.836  34.805  54.041  0.00  0.00     0.001 A 
ATOM     25  C   UNL d   1      52.569  34.499  54.067  0.00  0.00     0.031 A 
ATOM     26  C   UNL d   1      53.680  35.479  54.347  0.00  0.00     0.001 A 
ATOM     27  C   UNL d   1      52.960  35.651  54.509  0.00  0.00     0.006 A 
ATOM     28  S   UNL d   1      52.020  34.018  53.929  0.00  0.00    -0.068 SA
BRANCH  22  29
ATOM     29  C   UNL d   1      53.251  32.540  53.147  0.00  0.00     0.302 C 
ATOM     30  O   UNL d   1      53.399  32.536  52.439  0.00  0.00    -0.259 OA
BRANCH  29  31
ATOM     31  O   UNL d   1      53.443  31.897  53.648  0.00  0.00    -0.271 OA
BRANCH  31  32
ATOM     32  C   UNL d   1      53.833  31.162  53.572  0.00  0.00     0.126 C 
ATOM     33  C   UNL d   1      53.703  30.399  53.843  0.00  0.00     0.029 C 
ENDBRANCH  31  32
ENDBRANCH  29  31
ENDBRANCH  22  29
ENDBRANCH  19  21
ENDBRANCH   1  18
TORSDOF 10
ENDMDL
MODEL 5
REMARK VINA RESULT:      -4.9      1.768      6.952
REMARK  10 active torsions:
REMARK  status: ('A' for Active; 'I' for Inactive)
REMARK    1  A    between atoms: N_11  and  C_1 
REMARK    2  A    between atoms: C_12  and  C_2 
REMARK    3  A    between atoms: C_4  and  S_15 
REMARK    4  A    between atoms: C_18  and  C_6 
REMARK       I    between atoms: C_16  and  N_11 
REMARK    5  A    between atoms: O_28  and  C_12 
REMARK       I    between atoms: C_13  and  N_17 
REMARK    6  A    between atoms: C_14  and  C_13 
REMARK    7  A    between atoms: S_15  and  C_26 
REMARK    8  A    between atoms: C_26  and  C_16 
REMARK    9  A    between atoms: N_17  and  C_18 
REMARK   10  A    between atoms: C_32  and  O_28 
ROOT
ATOM      1  C   UNL d   1      48.474  35.562  53.000  0.00  0.00     0.101 C 
ENDROOT
BRANCH   1   2
ATOM      2  S   UNL d   1      49.106  35.380  52.588  0.00  0.00    -0.043 SA
BRANCH   2   3
ATOM      3  C   UNL d   1      49.612  34.803  52.922  0.00  0.00     0.202 A 
ATOM      4  N   UNL d   1      50.188  34.434  52.455  0.00  0.00    -0.265 N 
ATOM      5  C   UNL d   1      50.594  33.898  52.933  0.00  0.00     0.190 A 
ATOM      6  C   UNL d   1      50.335  34.578  51.632  0.00  0.00     0.103 C 
ATOM      7  N   UNL d   1      50.272  33.933  53.701  0.00  0.00    -0.126 NA
ATOM      8  N   UNL d   1      49.666  34.491  53.694  0.00  0.00    -0.121 NA
BRANCH   5   9
ATOM      9  C   UNL d   1      51.215  33.409  52.698  0.00  0.00     0.141 C 
BRANCH   9  10
ATOM     10  N   UNL d   1      51.865  33.294  53.189  0.00  0.00    -0.202 NA
ATOM     11  C   UNL d   1      52.463  32.769  52.975  0.00  0.00     0.302 C 
ATOM     12  O   UNL d   1      52.406  32.357  52.258  0.00  0.00    -0.263 OA
BRANCH  11  13
ATOM     13  C   UNL d   1      53.126  32.652  53.476  0.00  0.00     0.158 A 
ATOM     14  O   UNL d   1      53.223  32.024  54.046  0.00  0.00    -0.300 OA
ATOM     15  C   UNL d   1      53.975  32.127  54.423  0.00  0.00     0.123 A 
ATOM     16  C   UNL d   1      54.347  32.818  54.092  0.00  0.00     0.029 A 
ATOM     17  C   UNL d   1      53.825  33.141  53.509  0.00  0.00     0.032 A 
ENDBRANCH  11  13
ENDBRANCH   9  10
ENDBRANCH   5   9
ENDBRANCH   2   3
ENDBRANCH   1   2
BRANCH   1  18
ATOM     18  C   UNL d   1      48.286  36.286  53.451  0.00  0.00     0.286 C 
ATOM     19  N   UNL d   1      47.355  36.668  53.418  0.00  0.00    -0.201 NA
ATOM     20  O   UNL d   1      48.847  36.643  53.885  0.00  0.00    -0.265 OA
BRANCH  19  21
ATOM     21  C   UNL d   1      46.760  36.290  52.957  0.00  0.00     0.119 A 
ATOM     22  C   UNL d   1      46.140  36.028  53.284  0.00  0.00     0.088 A 
ATOM     23  C   UNL d   1      45.693  35.613  52.142  0.00  0.00     0.013 A 
ATOM     24  C   UNL d   1      45.161  35.278  51.750  0.00  0.00     0.001 A 
ATOM     25  C   UNL d   1      46.317  35.876  51.814  0.00  0.00     0.031 A 
ATOM     26  C   UNL d   1      45.243  35.196  51.003  0.00  0.00     0.001 A 
ATOM     27  C   UNL d   1      45.871  35.461  50.672  0.00  0.00     0.006 A 
ATOM     28  S   UNL d   1      46.847  36.211  52.212  0.00  0.00    -0.068 SA
BRANCH  22  29
ATOM     29  C   UNL d   1      45.873  36.016  54.035  0.00  0.00     0.302 C 
ATOM     30  O   UNL d   1      46.159  36.475  54.515  0.00  0.00    -0.259 OA
BRANCH  29  31
ATOM     31  O   UNL d   1      45.270  35.472  54.239  0.00  0.00    -0.271 OA
BRANCH  31  32
ATOM     32  C   UNL d   1      44.905  35.206  54.941  0.00  0.00     0.126 C 
ATOM     33  C   UNL d   1      44.528  34.518  55.180  0.00  0.00     0.029 C 
ENDBRANCH  31  32
ENDBRANCH  29  31
ENDBRANCH  22  29
ENDBRANCH  19  21
ENDBRANCH   1  18
TORSDOF 10
ENDMDL
