MODEL 1
REMARK VINA RESULT:      10.6      0.000      0.000
REMARK  4 active torsions:
REMARK  status: ('A' for Active; 'I' for Inactive)
REMARK    1  A    between atoms: N_2  and  C_1 
REMARK       I    between atoms: C_3  and  N_2 
REMARK    2  A    between atoms: C_6  and  C_3 
REMARK    3  A    between atoms: C_14  and  C_7 
REMARK    4  A    between atoms: C_15  and  C_14 
ROOT
ATOM      1  C   UNL d   1      45.986 -16.920  44.244  0.00  0.00     0.197 A 
ATOM      2  N   UNL d   1      46.326 -16.403  43.784  0.00  0.00    -0.219 NA
ATOM      3  S   UNL d   1      45.512 -16.515  44.779  0.00  0.00    -0.047 SA
ATOM      4  C   UNL d   1      45.579 -15.721  44.623  0.00  0.00     0.051 A 
ATOM      5  C   UNL d   1      46.096 -15.648  43.992  0.00  0.00     0.108 A 
ENDROOT
BRANCH   1   6
ATOM      6  N   UNL d   1      46.123 -17.761  44.158  0.00  0.00    -0.182 NA
ATOM      7  C   UNL d   1      46.316 -18.059  43.416  0.00  0.00     0.287 C 
ATOM      8  O   UNL d   1      46.376 -17.550  42.766  0.00  0.00    -0.265 OA
BRANCH   7   9
ATOM      9  C   UNL d   1      46.444 -18.848  43.337  0.00  0.00     0.087 A 
ATOM     10  S   UNL d   1      46.530 -19.289  42.638  0.00  0.00    -0.082 SA
ATOM     11  C   UNL d   1      46.646 -20.040  42.831  0.00  0.00     0.036 A 
ATOM     12  C   UNL d   1      46.635 -20.091  43.686  0.00  0.00     0.008 A 
ATOM     13  C   UNL d   1      46.509 -19.338  43.948  0.00  0.00     0.012 A 
ENDBRANCH   7   9
ENDBRANCH   1   6
BRANCH   4  14
ATOM     14  C   UNL d   1      45.253 -15.059  44.954  0.00  0.00     0.008 C 
BRANCH  14  15
ATOM     15  C   UNL d   1      45.330 -14.316  44.577  0.00  0.00     0.001 A 
ATOM     16  C   UNL d   1      45.811 -13.724  44.917  0.00  0.00     0.002 A 
ATOM     17  C   UNL d   1      45.894 -12.981  44.547  0.00  0.00     0.030 A 
ATOM     18  C   UNL d   1      45.500 -12.830  43.844  0.00  0.00     0.140 A 
ATOM     19  C   UNL d   1      45.006 -13.427  43.487  0.00  0.00     0.030 A 
ATOM     20  F   UNL d   1      45.521 -12.179  43.441  0.00  0.00    -0.204 F 
ATOM     21  C   UNL d   1      44.934 -14.162  43.867  0.00  0.00     0.002 A 
ENDBRANCH  14  15
ENDBRANCH   4  14
TORSDOF 4
ENDMDL
MODEL 2
REMARK VINA RESULT:      12.0      2.109      4.944
REMARK  4 active torsions:
REMARK  status: ('A' for Active; 'I' for Inactive)
REMARK    1  A    between atoms: N_2  and  C_1 
REMARK       I    between atoms: C_3  and  N_2 
REMARK    2  A    between atoms: C_6  and  C_3 
REMARK    3  A    between atoms: C_14  and  C_7 
REMARK    4  A    between atoms: C_15  and  C_14 
ROOT
ATOM      1  C   UNL d   1      45.943 -16.460  44.541  0.00  0.00     0.197 A 
ATOM      2  N   UNL d   1      45.375 -16.779  44.955  0.00  0.00    -0.219 NA
ATOM      3  S   UNL d   1      46.396 -17.065  44.219  0.00  0.00    -0.047 SA
ATOM      4  C   UNL d   1      46.077 -17.773  44.458  0.00  0.00     0.051 A 
ATOM      5  C   UNL d   1      45.428 -17.593  44.925  0.00  0.00     0.108 A 
ENDROOT
BRANCH   1   6
ATOM      6  N   UNL d   1      46.028 -15.611  44.469  0.00  0.00    -0.182 NA
ATOM      7  C   UNL d   1      45.356 -15.139  44.508  0.00  0.00     0.287 C 
ATOM      8  O   UNL d   1      44.611 -15.483  44.613  0.00  0.00    -0.265 OA
BRANCH   7   9
ATOM      9  C   UNL d   1      45.438 -14.342  44.441  0.00  0.00     0.087 A 
ATOM     10  S   UNL d   1      45.123 -13.839  43.860  0.00  0.00    -0.082 SA
ATOM     11  C   UNL d   1      45.349 -13.105  44.019  0.00  0.00     0.036 A 
ATOM     12  C   UNL d   1      45.829 -13.131  44.728  0.00  0.00     0.008 A 
ATOM     13  C   UNL d   1      45.854 -13.908  44.947  0.00  0.00     0.012 A 
ENDBRANCH   7   9
ENDBRANCH   1   6
BRANCH   4  14
ATOM     14  C   UNL d   1      46.274 -18.546  44.324  0.00  0.00     0.008 C 
BRANCH  14  15
ATOM     15  C   UNL d   1      46.366 -18.828  43.541  0.00  0.00     0.001 A 
ATOM     16  C   UNL d   1      46.550 -18.294  42.926  0.00  0.00     0.002 A 
ATOM     17  C   UNL d   1      46.644 -18.566  42.143  0.00  0.00     0.030 A 
ATOM     18  C   UNL d   1      46.554 -19.363  41.976  0.00  0.00     0.140 A 
ATOM     19  C   UNL d   1      46.366 -19.918  42.596  0.00  0.00     0.030 A 
ATOM     20  F   UNL d   1      46.623 -19.695  41.288  0.00  0.00    -0.204 F 
ATOM     21  C   UNL d   1      46.276 -19.632  43.370  0.00  0.00     0.002 A 
ENDBRANCH  14  15
ENDBRANCH   4  14
TORSDOF 4
ENDMDL
