MODEL 1
REMARK VINA RESULT:      37.1      0.000      0.000
REMARK  3 active torsions:
REMARK  status: ('A' for Active; 'I' for Inactive)
REMARK    1  A    between atoms: C_2  and  C_1 
REMARK    2  A    between atoms: N_5  and  C_2 
REMARK    3  A    between atoms: C_9  and  C_4 
ROOT
ATOM      1  C   UNL d   1     -56.060 -99.540 -44.947  0.00  0.00     0.126 A 
ATOM      2  O   UNL d   1     -56.592 -99.574 -44.318  0.00  0.00    -0.305 OA
ATOM      3  C   UNL d   1     -57.275 -99.170 -44.550  0.00  0.00     0.100 A 
ATOM      4  C   UNL d   1     -56.418 -99.115 -45.561  0.00  0.00     0.029 A 
ATOM      5  C   UNL d   1     -57.158 -98.890 -45.319  0.00  0.00     0.027 A 
ENDROOT
BRANCH   1   6
ATOM      6  C   UNL d   1     -55.304 -99.839 -45.031  0.00  0.00     0.143 C 
ATOM      7  S   UNL d   1     -54.711 -99.374 -45.365  0.00  0.00    -0.057 SA
BRANCH   6   8
ATOM      8  N   UNL d   1     -55.131-100.604 -44.784  0.00  0.00    -0.290 N 
ATOM      9  C   UNL d   1     -54.903-101.180 -45.329  0.00  0.00     0.108 A 
ATOM     10  C   UNL d   1     -54.730-101.948 -45.076  0.00  0.00     0.142 A 
ATOM     11  O   UNL d   1     -54.788-102.129 -44.274  0.00  0.00    -0.300 OA
ATOM     12  C   UNL d   1     -55.016-101.555 -43.728  0.00  0.00     0.142 A 
ATOM     13  C   UNL d   1     -55.186-100.796 -43.988  0.00  0.00     0.108 A 
ENDBRANCH   6   8
ENDBRANCH   1   6
BRANCH   3  14
ATOM     14  C   UNL d   1     -57.942 -99.070 -44.093  0.00  0.00     0.023 A 
ATOM     15  C   UNL d   1     -57.872 -99.026 -43.272  0.00  0.00     0.003 A 
ATOM     16  C   UNL d   1     -58.535 -98.926 -42.807  0.00  0.00     0.007 A 
ATOM     17  C   UNL d   1     -59.285 -98.868 -43.153  0.00  0.00     0.035 A 
ATOM     18  C   UNL d   1     -59.359 -98.912 -43.977  0.00  0.00     0.007 A 
ATOM     19 BR   UNL d   1     -59.954 -98.767 -42.682  0.00  0.00    -0.049 Br
ATOM     20  C   UNL d   1     -58.698 -99.012 -44.439  0.00  0.00     0.003 A 
ENDBRANCH   3  14
TORSDOF 3
ENDMDL
