MODEL 1
REMARK VINA RESULT:      -7.2      0.000      0.000
REMARK  7 active torsions:
REMARK  status: ('A' for Active; 'I' for Inactive)
REMARK       I    between atoms: C_3  and  N_1 
REMARK    1  A    between atoms: C_4  and  N_1 
REMARK    2  A    between atoms: C_5  and  N_1 
REMARK    3  A    between atoms: N_2  and  C_7 
REMARK    4  A    between atoms: C_8  and  C_3 
REMARK    5  A    between atoms: C_6  and  C_5 
REMARK    6  A    between atoms: C_9  and  C_6 
REMARK    7  A    between atoms: O_19  and  C_9 
ROOT
ATOM      1  N   UNL d   1     -48.718  13.926  22.760  0.00  0.00    -0.258 N 
ATOM      2  C   UNL d   1     -48.015  14.369  22.751  0.00  0.00     0.266 C 
ATOM      3  O   UNL d   1     -48.008  15.179  22.783  0.00  0.00    -0.267 OA
ENDROOT
BRANCH   1   4
ATOM      4  C   UNL d   1     -49.440  14.340  22.804  0.00  0.00     0.150 A 
ATOM      5  N   UNL d   1     -49.716  14.591  23.528  0.00  0.00    -0.227 NA
ATOM      6  C   UNL d   1     -50.419  14.991  23.557  0.00  0.00     0.101 A 
ATOM      7  C   UNL d   1     -50.865  15.149  22.841  0.00  0.00     0.021 A 
ATOM      8  C   UNL d   1     -50.591  14.901  22.124  0.00  0.00     0.005 A 
ATOM      9  C   UNL d   1     -49.886  14.498  22.088  0.00  0.00     0.037 A 
ENDBRANCH   1   4
BRANCH   1  10
ATOM     10  C   UNL d   1     -48.687  13.102  22.726  0.00  0.00     0.090 C 
BRANCH  10  11
ATOM     11  C   UNL d   1     -49.397  12.667  22.899  0.00  0.00     0.087 C 
BRANCH  11  12
ATOM     12  C   UNL d   1     -49.388  11.835  22.914  0.00  0.00     0.297 C 
ATOM     13  O   UNL d   1     -49.199  11.422  22.259  0.00  0.00    -0.259 OA
BRANCH  12  14
ATOM     14  O   UNL d   1     -49.576  11.450  23.616  0.00  0.00    -0.296 OA
ATOM     15  C   UNL d   1     -50.292  11.048  23.698  0.00  0.00     0.185 C 
ENDBRANCH  12  14
ENDBRANCH  11  12
ENDBRANCH  10  11
ENDBRANCH   1  10
BRANCH   2  16
ATOM     16  C   UNL d   1     -47.290  13.951  22.707  0.00  0.00     0.057 A 
ATOM     17  C   UNL d   1     -46.967  13.762  22.005  0.00  0.00     0.006 A 
ATOM     18  C   UNL d   1     -46.244  13.345  21.956  0.00  0.00     0.024 A 
ATOM     19  C   UNL d   1     -45.867  13.130  22.632  0.00  0.00     0.127 A 
ATOM     20  C   UNL d   1     -46.204  13.328  23.370  0.00  0.00     0.024 A 
ATOM     21  C   UNL d   1     -46.903  13.731  23.401  0.00  0.00     0.006 A 
BRANCH  19  22
ATOM     22  N   UNL d   1     -45.158  12.721  22.569  0.00  0.00    -0.114 N 
ATOM     23  O   UNL d   1     -44.522  12.932  22.068  0.00  0.00    -0.532 OA
ATOM     24  O   UNL d   1     -44.984  12.040  23.000  0.00  0.00    -0.532 OA
ENDBRANCH  19  22
ENDBRANCH   2  16
TORSDOF 7
ENDMDL
MODEL 2
REMARK VINA RESULT:      -6.5      1.065      2.513
REMARK  7 active torsions:
REMARK  status: ('A' for Active; 'I' for Inactive)
REMARK       I    between atoms: C_3  and  N_1 
REMARK    1  A    between atoms: C_4  and  N_1 
REMARK    2  A    between atoms: C_5  and  N_1 
REMARK    3  A    between atoms: N_2  and  C_7 
REMARK    4  A    between atoms: C_8  and  C_3 
REMARK    5  A    between atoms: C_6  and  C_5 
REMARK    6  A    between atoms: C_9  and  C_6 
REMARK    7  A    between atoms: O_19  and  C_9 
ROOT
ATOM      1  N   UNL d   1     -48.755  12.906  22.728  0.00  0.00    -0.258 N 
ATOM      2  C   UNL d   1     -48.162  12.343  22.584  0.00  0.00     0.266 C 
ATOM      3  O   UNL d   1     -48.315  11.549  22.535  0.00  0.00    -0.267 OA
ENDROOT
BRANCH   1   4
ATOM      4  C   UNL d   1     -49.537  12.633  22.825  0.00  0.00     0.150 A 
ATOM      5  N   UNL d   1     -50.043  12.629  22.186  0.00  0.00    -0.227 NA
ATOM      6  C   UNL d   1     -50.799  12.362  22.294  0.00  0.00     0.101 A 
ATOM      7  C   UNL d   1     -51.064  12.090  23.063  0.00  0.00     0.021 A 
ATOM      8  C   UNL d   1     -50.563  12.095  23.695  0.00  0.00     0.005 A 
ATOM      9  C   UNL d   1     -49.802  12.361  23.594  0.00  0.00     0.037 A 
ENDBRANCH   1   4
BRANCH   1  10
ATOM     10  C   UNL d   1     -48.562  13.707  22.772  0.00  0.00     0.090 C 
BRANCH  10  11
ATOM     11  C   UNL d   1     -49.198  14.271  22.808  0.00  0.00     0.087 C 
BRANCH  11  12
ATOM     12  C   UNL d   1     -49.036  15.086  22.849  0.00  0.00     0.297 C 
ATOM     13  O   UNL d   1     -48.737  15.471  22.217  0.00  0.00    -0.259 OA
BRANCH  12  14
ATOM     14  O   UNL d   1     -49.190  15.485  23.551  0.00  0.00    -0.296 OA
ATOM     15  C   UNL d   1     -49.889  15.912  23.649  0.00  0.00     0.185 C 
ENDBRANCH  12  14
ENDBRANCH  11  12
ENDBRANCH  10  11
ENDBRANCH   1  10
BRANCH   2  16
ATOM     16  C   UNL d   1     -47.376  12.619  22.487  0.00  0.00     0.057 A 
ATOM     17  C   UNL d   1     -46.885  12.689  23.109  0.00  0.00     0.006 A 
ATOM     18  C   UNL d   1     -46.101  12.963  23.016  0.00  0.00     0.024 A 
ATOM     19  C   UNL d   1     -45.837  13.162  22.284  0.00  0.00     0.127 A 
ATOM     20  C   UNL d   1     -46.351  13.090  21.629  0.00  0.00     0.024 A 
ATOM     21  C   UNL d   1     -47.105  12.823  21.735  0.00  0.00     0.006 A 
BRANCH  19  22
ATOM     22  N   UNL d   1     -45.065  13.431  22.209  0.00  0.00    -0.114 N 
ATOM     23  O   UNL d   1     -44.391  12.944  22.120  0.00  0.00    -0.532 OA
ATOM     24  O   UNL d   1     -44.857  14.229  22.211  0.00  0.00    -0.532 OA
ENDBRANCH  19  22
ENDBRANCH   2  16
TORSDOF 7
ENDMDL
MODEL 3
REMARK VINA RESULT:      -5.6      1.301      3.781
REMARK  7 active torsions:
REMARK  status: ('A' for Active; 'I' for Inactive)
REMARK       I    between atoms: C_3  and  N_1 
REMARK    1  A    between atoms: C_4  and  N_1 
REMARK    2  A    between atoms: C_5  and  N_1 
REMARK    3  A    between atoms: N_2  and  C_7 
REMARK    4  A    between atoms: C_8  and  C_3 
REMARK    5  A    between atoms: C_6  and  C_5 
REMARK    6  A    between atoms: C_9  and  C_6 
REMARK    7  A    between atoms: O_19  and  C_9 
ROOT
ATOM      1  N   UNL d   1     -47.431  13.500  22.635  0.00  0.00    -0.258 N 
ATOM      2  C   UNL d   1     -47.534  14.322  22.680  0.00  0.00     0.266 C 
ATOM      3  O   UNL d   1     -46.911  14.840  22.712  0.00  0.00    -0.267 OA
ENDROOT
BRANCH   1   4
ATOM      4  C   UNL d   1     -46.652  13.202  22.623  0.00  0.00     0.150 A 
ATOM      5  N   UNL d   1     -46.313  12.939  23.315  0.00  0.00    -0.227 NA
ATOM      6  C   UNL d   1     -45.556  12.653  23.289  0.00  0.00     0.101 A 
ATOM      7  C   UNL d   1     -45.120  12.627  22.551  0.00  0.00     0.021 A 
ATOM      8  C   UNL d   1     -45.458  12.888  21.866  0.00  0.00     0.005 A 
ATOM      9  C   UNL d   1     -46.217  13.176  21.884  0.00  0.00     0.037 A 
ENDBRANCH   1   4
BRANCH   1  10
ATOM     10  C   UNL d   1     -48.090  13.003  22.605  0.00  0.00     0.090 C 
BRANCH  10  11
ATOM     11  C   UNL d   1     -47.993  12.193  22.846  0.00  0.00     0.087 C 
BRANCH  11  12
ATOM     12  C   UNL d   1     -48.625  11.657  22.784  0.00  0.00     0.297 C 
ATOM     13  O   UNL d   1     -48.585  11.040  22.279  0.00  0.00    -0.259 OA
BRANCH  12  14
ATOM     14  O   UNL d   1     -49.290  11.774  23.253  0.00  0.00    -0.296 OA
ATOM     15  C   UNL d   1     -49.642  11.145  23.654  0.00  0.00     0.185 C 
ENDBRANCH  12  14
ENDBRANCH  11  12
ENDBRANCH  10  11
ENDBRANCH   1  10
BRANCH   2  16
ATOM     16  C   UNL d   1     -48.317  14.619  22.692  0.00  0.00     0.057 A 
ATOM     17  C   UNL d   1     -48.742  14.688  22.022  0.00  0.00     0.006 A 
ATOM     18  C   UNL d   1     -49.523  14.983  22.030  0.00  0.00     0.024 A 
ATOM     19  C   UNL d   1     -49.855  15.202  22.728  0.00  0.00     0.127 A 
ATOM     20  C   UNL d   1     -49.412  15.131  23.433  0.00  0.00     0.024 A 
ATOM     21  C   UNL d   1     -48.658  14.844  23.409  0.00  0.00     0.006 A 
BRANCH  19  22
ATOM     22  N   UNL d   1     -50.624  15.491  22.720  0.00  0.00    -0.114 N 
ATOM     23  O   UNL d   1     -51.064  15.711  23.396  0.00  0.00    -0.532 OA
ATOM     24  O   UNL d   1     -51.063  15.600  22.030  0.00  0.00    -0.532 OA
ENDBRANCH  19  22
ENDBRANCH   2  16
TORSDOF 7
ENDMDL
MODEL 4
REMARK VINA RESULT:      -4.9      6.681      9.301
REMARK  7 active torsions:
REMARK  status: ('A' for Active; 'I' for Inactive)
REMARK       I    between atoms: C_3  and  N_1 
REMARK    1  A    between atoms: C_4  and  N_1 
REMARK    2  A    between atoms: C_5  and  N_1 
REMARK    3  A    between atoms: N_2  and  C_7 
REMARK    4  A    between atoms: C_8  and  C_3 
REMARK    5  A    between atoms: C_6  and  C_5 
REMARK    6  A    between atoms: C_9  and  C_6 
REMARK    7  A    between atoms: O_19  and  C_9 
ROOT
ATOM      1  N   UNL d   1     -39.590  14.577  20.408  0.00  0.00    -0.258 N 
ATOM      2  C   UNL d   1     -39.163  14.759  19.719  0.00  0.00     0.266 C 
ATOM      3  O   UNL d   1     -38.353  14.780  19.700  0.00  0.00    -0.267 OA
ENDROOT
BRANCH   1   4
ATOM      4  C   UNL d   1     -39.160  14.410  21.103  0.00  0.00     0.150 A 
ATOM      5  N   UNL d   1     -38.884  13.655  21.232  0.00  0.00    -0.227 NA
ATOM      6  C   UNL d   1     -38.468  13.507  21.911  0.00  0.00     0.101 A 
ATOM      7  C   UNL d   1     -38.321  14.130  22.481  0.00  0.00     0.021 A 
ATOM      8  C   UNL d   1     -38.595  14.878  22.352  0.00  0.00     0.005 A 
ATOM      9  C   UNL d   1     -39.013  15.034  21.673  0.00  0.00     0.037 A 
ENDBRANCH   1   4
BRANCH   1  10
ATOM     10  C   UNL d   1     -40.415  14.565  20.390  0.00  0.00     0.090 C 
BRANCH  10  11
ATOM     11  C   UNL d   1     -40.824  14.167  21.022  0.00  0.00     0.087 C 
BRANCH  11  12
ATOM     12  C   UNL d   1     -41.653  14.106  21.013  0.00  0.00     0.297 C 
ATOM     13  O   UNL d   1     -42.108  14.756  21.096  0.00  0.00    -0.259 OA
BRANCH  12  14
ATOM     14  O   UNL d   1     -41.994  13.363  20.918  0.00  0.00    -0.296 OA
ATOM     15  C   UNL d   1     -42.772  13.223  21.152  0.00  0.00     0.185 C 
ENDBRANCH  12  14
ENDBRANCH  11  12
ENDBRANCH  10  11
ENDBRANCH   1  10
BRANCH   2  16
ATOM     16  C   UNL d   1     -39.597  14.926  19.022  0.00  0.00     0.057 A 
ATOM     17  C   UNL d   1     -39.877  15.657  18.877  0.00  0.00     0.006 A 
ATOM     18  C   UNL d   1     -40.310  15.827  18.183  0.00  0.00     0.024 A 
ATOM     19  C   UNL d   1     -40.448  15.242  17.651  0.00  0.00     0.127 A 
ATOM     20  C   UNL d   1     -40.156  14.474  17.801  0.00  0.00     0.024 A 
ATOM     21  C   UNL d   1     -39.739  14.325  18.476  0.00  0.00     0.006 A 
BRANCH  19  22
ATOM     22  N   UNL d   1     -40.875  15.425  16.974  0.00  0.00    -0.114 N 
ATOM     23  O   UNL d   1     -41.648  15.156  16.803  0.00  0.00    -0.532 OA
ATOM     24  O   UNL d   1     -40.587  15.906  16.368  0.00  0.00    -0.532 OA
ENDBRANCH  19  22
ENDBRANCH   2  16
TORSDOF 7
ENDMDL
MODEL 5
REMARK VINA RESULT:      -4.2      8.506     10.415
REMARK  7 active torsions:
REMARK  status: ('A' for Active; 'I' for Inactive)
REMARK       I    between atoms: C_3  and  N_1 
REMARK    1  A    between atoms: C_4  and  N_1 
REMARK    2  A    between atoms: C_5  and  N_1 
REMARK    3  A    between atoms: N_2  and  C_7 
REMARK    4  A    between atoms: C_8  and  C_3 
REMARK    5  A    between atoms: C_6  and  C_5 
REMARK    6  A    between atoms: C_9  and  C_6 
REMARK    7  A    between atoms: O_19  and  C_9 
ROOT
ATOM      1  N   UNL d   1     -39.210  15.120  17.732  0.00  0.00    -0.258 N 
ATOM      2  C   UNL d   1     -38.852  14.899  18.448  0.00  0.00     0.266 C 
ATOM      3  O   UNL d   1     -38.117  14.560  18.484  0.00  0.00    -0.267 OA
ENDROOT
BRANCH   1   4
ATOM      4  C   UNL d   1     -38.789  14.983  17.026  0.00  0.00     0.150 A 
ATOM      5  N   UNL d   1     -38.357  15.588  16.692  0.00  0.00    -0.227 NA
ATOM      6  C   UNL d   1     -37.953  15.442  16.006  0.00  0.00     0.101 A 
ATOM      7  C   UNL d   1     -37.977  14.667  15.638  0.00  0.00     0.021 A 
ATOM      8  C   UNL d   1     -38.405  14.069  15.969  0.00  0.00     0.005 A 
ATOM      9  C   UNL d   1     -38.813  14.208  16.657  0.00  0.00     0.037 A 
ENDBRANCH   1   4
BRANCH   1  10
ATOM     10  C   UNL d   1     -39.961  15.463  17.734  0.00  0.00     0.090 C 
BRANCH  10  11
ATOM     11  C   UNL d   1     -40.424  15.419  17.022  0.00  0.00     0.087 C 
BRANCH  11  12
ATOM     12  C   UNL d   1     -41.183  15.758  16.992  0.00  0.00     0.297 C 
ATOM     13  O   UNL d   1     -41.580  15.921  17.664  0.00  0.00    -0.259 OA
BRANCH  12  14
ATOM     14  O   UNL d   1     -41.514  15.921  16.257  0.00  0.00    -0.296 OA
ATOM     15  C   UNL d   1     -42.299  15.725  16.095  0.00  0.00     0.185 C 
ENDBRANCH  12  14
ENDBRANCH  11  12
ENDBRANCH  10  11
ENDBRANCH   1  10
BRANCH   2  16
ATOM     16  C   UNL d   1     -39.278  15.038  19.157  0.00  0.00     0.057 A 
ATOM     17  C   UNL d   1     -39.785  14.496  19.445  0.00  0.00     0.006 A 
ATOM     18  C   UNL d   1     -40.211  14.630  20.151  0.00  0.00     0.024 A 
ATOM     19  C   UNL d   1     -40.107  15.320  20.549  0.00  0.00     0.127 A 
ATOM     20  C   UNL d   1     -39.576  15.891  20.248  0.00  0.00     0.024 A 
ATOM     21  C   UNL d   1     -39.172  15.747  19.565  0.00  0.00     0.006 A 
BRANCH  19  22
ATOM     22  N   UNL d   1     -40.533  15.438  21.241  0.00  0.00    -0.114 N 
ATOM     23  O   UNL d   1     -41.291  15.123  21.402  0.00  0.00    -0.532 OA
ATOM     24  O   UNL d   1     -40.259  15.891  21.874  0.00  0.00    -0.532 OA
ENDBRANCH  19  22
ENDBRANCH   2  16
TORSDOF 7
ENDMDL
