MODEL 1
REMARK VINA RESULT:      -1.7      0.000      0.000
REMARK  4 active torsions:
REMARK  status: ('A' for Active; 'I' for Inactive)
REMARK    1  A    between atoms: N_2  and  C_1 
REMARK    2  A    between atoms: C_9  and  C_3 
REMARK    3  A    between atoms: O_15  and  C_9 
REMARK    4  A    between atoms: C_18  and  O_15 
ROOT
ATOM      1  C   UNL d   1      31.325  16.312 -24.269  0.00  0.00     0.105 A 
ATOM      2  C   UNL d   1      31.843  16.955 -24.265  0.00  0.00     0.086 A 
ATOM      3  S   UNL d   1      31.739  15.676 -24.582  0.00  0.00    -0.069 SA
ATOM      4  C   UNL d   1      32.563  16.711 -24.573  0.00  0.00     0.013 A 
ATOM      5  C   UNL d   1      32.502  15.922 -24.769  0.00  0.00     0.031 A 
ATOM      6  C   UNL d   1      33.239  17.173 -24.671  0.00  0.00     0.001 C 
ATOM      7  C   UNL d   1      33.097  15.453 -25.097  0.00  0.00     0.007 C 
ENDROOT
BRANCH   1   8
ATOM      8  N   UNL d   1      30.546  16.351 -23.998  0.00  0.00    -0.236 N 
ATOM      9  C   UNL d   1      29.881  16.706 -24.325  0.00  0.00     0.268 A 
ATOM     10  C   UNL d   1      29.246  16.567 -23.809  0.00  0.00     0.066 A 
ATOM     11  O   UNL d   1      29.845  17.130 -25.046  0.00  0.00    -0.267 OA
ATOM     12  C   UNL d   1      29.533  16.132 -23.178  0.00  0.00     0.066 A 
ATOM     13  C   UNL d   1      30.328  15.999 -23.292  0.00  0.00     0.268 A 
ATOM     14  O   UNL d   1      30.819  15.587 -22.792  0.00  0.00    -0.267 OA
ENDBRANCH   1   8
BRANCH   2  15
ATOM     15  C   UNL d   1      31.662  17.723 -23.994  0.00  0.00     0.302 C 
ATOM     16  O   UNL d   1      31.160  18.214 -24.445  0.00  0.00    -0.259 OA
BRANCH  15  17
ATOM     17  O   UNL d   1      31.976  17.984 -23.293  0.00  0.00    -0.271 OA
BRANCH  17  18
ATOM     18  C   UNL d   1      32.133  18.797 -23.189  0.00  0.00     0.126 C 
ATOM     19  C   UNL d   1      32.655  19.045 -22.598  0.00  0.00     0.029 C 
ENDBRANCH  17  18
ENDBRANCH  15  17
ENDBRANCH   2  15
TORSDOF 4
ENDMDL
MODEL 2
REMARK VINA RESULT:      -1.6      1.332      3.132
REMARK  4 active torsions:
REMARK  status: ('A' for Active; 'I' for Inactive)
REMARK    1  A    between atoms: N_2  and  C_1 
REMARK    2  A    between atoms: C_9  and  C_3 
REMARK    3  A    between atoms: O_15  and  C_9 
REMARK    4  A    between atoms: C_18  and  O_15 
ROOT
ATOM      1  C   UNL d   1      30.876  17.291 -24.300  0.00  0.00     0.105 A 
ATOM      2  C   UNL d   1      30.153  16.904 -24.200  0.00  0.00     0.086 A 
ATOM      3  S   UNL d   1      30.711  18.016 -24.648  0.00  0.00    -0.069 SA
ATOM      4  C   UNL d   1      29.557  17.390 -24.485  0.00  0.00     0.013 A 
ATOM      5  C   UNL d   1      29.898  18.077 -24.762  0.00  0.00     0.031 A 
ATOM      6  C   UNL d   1      28.749  17.224 -24.495  0.00  0.00     0.001 C 
ATOM      7  C   UNL d   1      29.501  18.718 -25.097  0.00  0.00     0.007 C 
ENDROOT
BRANCH   1   8
ATOM      8  N   UNL d   1      31.602  16.968 -24.076  0.00  0.00    -0.236 N 
ATOM      9  C   UNL d   1      32.049  16.366 -24.413  0.00  0.00     0.268 A 
ATOM     10  C   UNL d   1      32.732  16.276 -23.950  0.00  0.00     0.066 A 
ATOM     11  O   UNL d   1      31.855  15.923 -25.096  0.00  0.00    -0.267 OA
ATOM     12  C   UNL d   1      32.691  16.821 -23.341  0.00  0.00     0.066 A 
ATOM     13  C   UNL d   1      32.000  17.245 -23.417  0.00  0.00     0.268 A 
ATOM     14  O   UNL d   1      31.750  17.841 -22.923  0.00  0.00    -0.267 OA
ENDBRANCH   1   8
BRANCH   2  15
ATOM     15  C   UNL d   1      30.050  16.147 -23.866  0.00  0.00     0.302 C 
ATOM     16  O   UNL d   1      30.108  15.469 -24.350  0.00  0.00    -0.259 OA
BRANCH  15  17
ATOM     17  O   UNL d   1      29.893  16.077 -23.073  0.00  0.00    -0.271 OA
BRANCH  17  18
ATOM     18  C   UNL d   1      29.411  15.453 -22.802  0.00  0.00     0.126 C 
ATOM     19  C   UNL d   1      29.107  15.468 -22.033  0.00  0.00     0.029 C 
ENDBRANCH  17  18
ENDBRANCH  15  17
ENDBRANCH   2  15
TORSDOF 4
ENDMDL
MODEL 3
REMARK VINA RESULT:      -0.5      1.569      2.410
REMARK  4 active torsions:
REMARK  status: ('A' for Active; 'I' for Inactive)
REMARK    1  A    between atoms: N_2  and  C_1 
REMARK    2  A    between atoms: C_9  and  C_3 
REMARK    3  A    between atoms: O_15  and  C_9 
REMARK    4  A    between atoms: C_18  and  O_15 
ROOT
ATOM      1  C   UNL d   1      29.999  16.925 -24.205  0.00  0.00     0.105 A 
ATOM      2  C   UNL d   1      30.776  16.788 -24.449  0.00  0.00     0.086 A 
ATOM      3  S   UNL d   1      29.834  17.712 -24.371  0.00  0.00    -0.069 SA
ATOM      4  C   UNL d   1      31.078  17.484 -24.759  0.00  0.00     0.013 A 
ATOM      5  C   UNL d   1      30.499  18.057 -24.712  0.00  0.00     0.031 A 
ATOM      6  C   UNL d   1      31.834  17.599 -25.067  0.00  0.00     0.001 C 
ATOM      7  C   UNL d   1      30.566  18.840 -24.962  0.00  0.00     0.007 C 
ENDROOT
BRANCH   1   8
ATOM      8  N   UNL d   1      29.519  16.347 -23.864  0.00  0.00    -0.236 N 
ATOM      9  C   UNL d   1      29.522  16.023 -23.108  0.00  0.00     0.268 A 
ATOM     10  C   UNL d   1      28.911  15.462 -23.077  0.00  0.00     0.066 A 
ATOM     11  O   UNL d   1      30.043  16.219 -22.484  0.00  0.00    -0.267 OA
ATOM     12  C   UNL d   1      28.547  15.453 -23.810  0.00  0.00     0.066 A 
ATOM     13  C   UNL d   1      28.917  15.993 -24.292  0.00  0.00     0.268 A 
ATOM     14  O   UNL d   1      28.723  16.154 -25.065  0.00  0.00    -0.267 OA
ENDBRANCH   1   8
BRANCH   2  15
ATOM     15  C   UNL d   1      31.183  16.062 -24.389  0.00  0.00     0.302 C 
ATOM     16  O   UNL d   1      31.040  15.460 -24.949  0.00  0.00    -0.259 OA
BRANCH  15  17
ATOM     17  O   UNL d   1      31.715  15.949 -23.787  0.00  0.00    -0.271 OA
BRANCH  17  18
ATOM     18  C   UNL d   1      32.382  15.464 -23.911  0.00  0.00     0.126 C 
ATOM     19  C   UNL d   1      33.032  15.516 -23.403  0.00  0.00     0.029 C 
ENDBRANCH  17  18
ENDBRANCH  15  17
ENDBRANCH   2  15
TORSDOF 4
ENDMDL
MODEL 4
REMARK VINA RESULT:       0.3      1.394      2.002
REMARK  4 active torsions:
REMARK  status: ('A' for Active; 'I' for Inactive)
REMARK    1  A    between atoms: N_2  and  C_1 
REMARK    2  A    between atoms: C_9  and  C_3 
REMARK    3  A    between atoms: O_15  and  C_9 
REMARK    4  A    between atoms: C_18  and  O_15 
ROOT
ATOM      1  C   UNL d   1      30.152  15.965 -24.208  0.00  0.00     0.105 A 
ATOM      2  C   UNL d   1      30.370  16.737 -24.405  0.00  0.00     0.086 A 
ATOM      3  S   UNL d   1      30.770  15.477 -24.441  0.00  0.00    -0.069 SA
ATOM      4  C   UNL d   1      31.112  16.716 -24.755  0.00  0.00     0.013 A 
ATOM      5  C   UNL d   1      31.361  15.940 -24.778  0.00  0.00     0.031 A 
ATOM      6  C   UNL d   1      31.541  17.361 -25.037  0.00  0.00     0.001 C 
ATOM      7  C   UNL d   1      32.077  15.666 -25.085  0.00  0.00     0.007 C 
ENDROOT
BRANCH   1   8
ATOM      8  N   UNL d   1      29.437  15.771 -23.844  0.00  0.00    -0.236 N 
ATOM      9  C   UNL d   1      28.696  15.617 -24.165  0.00  0.00     0.268 A 
ATOM     10  C   UNL d   1      28.182  15.453 -23.534  0.00  0.00     0.066 A 
ATOM     11  O   UNL d   1      28.493  15.622 -24.977  0.00  0.00    -0.267 OA
ATOM     12  C   UNL d   1      28.615  15.511 -22.843  0.00  0.00     0.066 A 
ATOM     13  C   UNL d   1      29.383  15.705 -23.030  0.00  0.00     0.268 A 
ATOM     14  O   UNL d   1      29.989  15.814 -22.501  0.00  0.00    -0.267 OA
ENDBRANCH   1   8
BRANCH   2  15
ATOM     15  C   UNL d   1      29.912  17.420 -24.271  0.00  0.00     0.302 C 
ATOM     16  O   UNL d   1      30.048  17.883 -23.589  0.00  0.00    -0.259 OA
BRANCH  15  17
ATOM     17  O   UNL d   1      29.338  17.629 -24.805  0.00  0.00    -0.271 OA
BRANCH  17  18
ATOM     18  C   UNL d   1      28.796  18.234 -24.612  0.00  0.00     0.126 C 
ATOM     19  C   UNL d   1      28.731  18.901 -25.097  0.00  0.00     0.029 C 
ENDBRANCH  17  18
ENDBRANCH  15  17
ENDBRANCH   2  15
TORSDOF 4
ENDMDL
MODEL 5
REMARK VINA RESULT:       1.2      1.373      2.520
REMARK  4 active torsions:
REMARK  status: ('A' for Active; 'I' for Inactive)
REMARK    1  A    between atoms: N_2  and  C_1 
REMARK    2  A    between atoms: C_9  and  C_3 
REMARK    3  A    between atoms: O_15  and  C_9 
REMARK    4  A    between atoms: C_18  and  O_15 
ROOT
ATOM      1  C   UNL d   1      30.439  16.114 -24.069  0.00  0.00     0.105 A 
ATOM      2  C   UNL d   1      30.248  16.883 -24.300  0.00  0.00     0.086 A 
ATOM      3  S   UNL d   1      29.752  15.669 -24.132  0.00  0.00    -0.069 SA
ATOM      4  C   UNL d   1      29.453  16.904 -24.500  0.00  0.00     0.013 A 
ATOM      5  C   UNL d   1      29.144  16.156 -24.398  0.00  0.00     0.031 A 
ATOM      6  C   UNL d   1      29.028  17.561 -24.761  0.00  0.00     0.001 C 
ATOM      7  C   UNL d   1      28.363  15.928 -24.535  0.00  0.00     0.007 C 
ENDROOT
BRANCH   1   8
ATOM      8  N   UNL d   1      31.195  15.884 -23.829  0.00  0.00    -0.236 N 
ATOM      9  C   UNL d   1      31.831  15.594 -24.261  0.00  0.00     0.268 A 
ATOM     10  C   UNL d   1      32.452  15.456 -23.726  0.00  0.00     0.066 A 
ATOM     11  O   UNL d   1      31.854  15.460 -25.086  0.00  0.00    -0.267 OA
ATOM     12  C   UNL d   1      32.185  15.664 -22.981  0.00  0.00     0.066 A 
ATOM     13  C   UNL d   1      31.417  15.926 -23.042  0.00  0.00     0.268 A 
ATOM     14  O   UNL d   1      30.952  16.184 -22.427  0.00  0.00    -0.267 OA
ENDBRANCH   1   8
BRANCH   2  15
ATOM     15  C   UNL d   1      30.775  17.529 -24.324  0.00  0.00     0.302 C 
ATOM     16  O   UNL d   1      31.201  17.742 -23.637  0.00  0.00    -0.259 OA
BRANCH  15  17
ATOM     17  O   UNL d   1      30.870  17.944 -25.014  0.00  0.00    -0.271 OA
BRANCH  17  18
ATOM     18  C   UNL d   1      31.500  18.486 -25.086  0.00  0.00     0.126 C 
ATOM     19  C   UNL d   1      31.351  19.299 -25.067  0.00  0.00     0.029 C 
ENDBRANCH  17  18
ENDBRANCH  15  17
ENDBRANCH   2  15
TORSDOF 4
ENDMDL
