MODEL 1
REMARK VINA RESULT:      31.6      0.000      0.000
REMARK  4 active torsions:
REMARK  status: ('A' for Active; 'I' for Inactive)
REMARK    1  A    between atoms: S_10  and  C_3 
REMARK    2  A    between atoms: C_11  and  C_7 
REMARK    3  A    between atoms: C_13  and  S_10 
REMARK    4  A    between atoms: C_14  and  C_13 
ROOT
ATOM      1  N   UNL d   1      14.681  13.096  -0.967  0.00  0.00    -0.186 N 
ATOM      2  N   UNL d   1      14.648  13.893  -1.145  0.00  0.00    -0.162 NA
ATOM      3  C   UNL d   1      14.254  12.448  -1.258  0.00  0.00     0.217 A 
ATOM      4  C   UNL d   1      15.212  12.810  -0.406  0.00  0.00     0.187 A 
ATOM      5  N   UNL d   1      14.528  11.780  -0.873  0.00  0.00    -0.120 NA
ATOM      6  N   UNL d   1      15.120  12.002  -0.345  0.00  0.00    -0.127 NA
ATOM      7  C   UNL d   1      15.155  14.418  -0.755  0.00  0.00     0.102 A 
ATOM      8  C   UNL d   1      15.720  13.340  -0.015  0.00  0.00     0.042 A 
ATOM      9  C   UNL d   1      15.690  14.137  -0.190  0.00  0.00     0.024 A 
ENDROOT
BRANCH   3  10
ATOM     10  S   UNL d   1      13.659  12.453  -1.830  0.00  0.00    -0.046 SA
BRANCH  10  11
ATOM     11  C   UNL d   1      13.712  11.974  -2.485  0.00  0.00     0.038 C 
BRANCH  11  12
ATOM     12  C   UNL d   1      13.476  12.250  -3.216  0.00  0.00     0.007 A 
ATOM     13  C   UNL d   1      13.569  11.779  -3.888  0.00  0.00     0.001 A 
ATOM     14  C   UNL d   1      13.331  12.057  -4.633  0.00  0.00     0.000 A 
ATOM     15  C   UNL d   1      13.000  12.802  -4.713  0.00  0.00     0.000 A 
ATOM     16  C   UNL d   1      12.904  13.281  -4.041  0.00  0.00     0.000 A 
ATOM     17  C   UNL d   1      12.769  13.062  -5.461  0.00  0.00     0.000 C 
ATOM     18  C   UNL d   1      13.142  13.002  -3.302  0.00  0.00     0.001 A 
ENDBRANCH  11  12
ENDBRANCH  10  11
ENDBRANCH   3  10
BRANCH   7  19
ATOM     19  C   UNL d   1      15.126  15.224  -0.929  0.00  0.00     0.022 A 
ATOM     20  C   UNL d   1      15.304  15.779  -0.347  0.00  0.00     0.022 A 
ATOM     21  C   UNL d   1      15.278  16.582  -0.516  0.00  0.00     0.099 A 
ATOM     22  N   UNL d   1      15.073  16.832  -1.267  0.00  0.00    -0.242 NA
ATOM     23  C   UNL d   1      14.889  16.267  -1.869  0.00  0.00     0.099 A 
ATOM     24  C   UNL d   1      14.922  15.470  -1.679  0.00  0.00     0.022 A 
ENDBRANCH   7  19
TORSDOF 4
ENDMDL
