MODEL 1
REMARK VINA RESULT:      -8.4      0.000      0.000
REMARK  6 active torsions:
REMARK  status: ('A' for Active; 'I' for Inactive)
REMARK    1  A    between atoms: C_2  and  S_1 
REMARK    2  A    between atoms: N_7  and  S_1 
REMARK    3  A    between atoms: C_15  and  N_7 
REMARK    4  A    between atoms: C_14  and  O_21 
REMARK    5  A    between atoms: C_24  and  C_15 
REMARK    6  A    between atoms: O_21  and  C_24 
ROOT
ATOM      1  S   UNL d   1      51.422  33.793  52.927  0.00  0.00     0.285 S 
ATOM      2  O   UNL d   1      51.839  34.398  52.536  0.00  0.00    -0.198 OA
ATOM      3  O   UNL d   1      51.011  33.193  53.316  0.00  0.00    -0.198 OA
ENDROOT
BRANCH   1   4
ATOM      4  C   UNL d   1      52.144  33.518  53.252  0.00  0.00     0.107 A 
ATOM      5  C   UNL d   1      52.500  33.924  53.865  0.00  0.00     0.040 A 
ATOM      6  C   UNL d   1      53.204  33.647  54.175  0.00  0.00     0.123 A 
ATOM      7  O   UNL d   1      53.568  34.054  54.794  0.00  0.00    -0.301 OA
ATOM      8  C   UNL d   1      53.553  32.963  53.870  0.00  0.00     0.123 A 
ATOM      9  C   UNL d   1      54.279  33.778  55.109  0.00  0.00     0.149 A 
ATOM     10  C   UNL d   1      54.627  33.093  54.805  0.00  0.00     0.149 A 
ATOM     11  O   UNL d   1      54.263  32.687  54.186  0.00  0.00    -0.301 OA
ATOM     12  C   UNL d   1      53.196  32.557  53.257  0.00  0.00     0.028 A 
ATOM     13  C   UNL d   1      52.492  32.834  52.947  0.00  0.00     0.015 A 
ENDBRANCH   1   4
BRANCH   1  14
ATOM     14  N   UNL d   1      50.715  34.073  52.601  0.00  0.00    -0.155 NA
BRANCH  14  15
ATOM     15  C   UNL d   1      50.214  34.549  53.049  0.00  0.00     0.139 C 
BRANCH  15  16
ATOM     16  C   UNL d   1      49.528  34.862  52.719  0.00  0.00     0.144 C 
BRANCH  16  17
ATOM     17  O   UNL d   1      49.011  35.311  53.176  0.00  0.00    -0.303 OA
BRANCH  17  18
ATOM     18  C   UNL d   1      48.343  35.654  52.838  0.00  0.00     0.100 A 
ATOM     19  C   UNL d   1      47.937  36.245  53.245  0.00  0.00     0.027 A 
ATOM     20  C   UNL d   1      47.266  36.591  52.909  0.00  0.00     0.032 A 
ATOM     21  C   UNL d   1      47.003  36.345  52.166  0.00  0.00     0.140 A 
ATOM     22  C   UNL d   1      47.410  35.754  51.759  0.00  0.00     0.032 A 
ATOM     23  F   UNL d   1      46.324  36.693  51.820  0.00  0.00    -0.204 F 
ATOM     24  C   UNL d   1      48.078  35.411  52.097  0.00  0.00     0.027 A 
ENDBRANCH  17  18
ENDBRANCH  16  17
ENDBRANCH  15  16
ENDBRANCH  14  15
ENDBRANCH   1  14
TORSDOF 6
ENDMDL
MODEL 2
REMARK VINA RESULT:      -7.9      2.609      5.933
REMARK  6 active torsions:
REMARK  status: ('A' for Active; 'I' for Inactive)
REMARK    1  A    between atoms: C_2  and  S_1 
REMARK    2  A    between atoms: N_7  and  S_1 
REMARK    3  A    between atoms: C_15  and  N_7 
REMARK    4  A    between atoms: C_14  and  O_21 
REMARK    5  A    between atoms: C_24  and  C_15 
REMARK    6  A    between atoms: O_21  and  C_24 
ROOT
ATOM      1  S   UNL d   1      50.878  34.049  52.854  0.00  0.00     0.285 S 
ATOM      2  O   UNL d   1      50.444  33.589  53.395  0.00  0.00    -0.198 OA
ATOM      3  O   UNL d   1      51.306  34.505  52.316  0.00  0.00    -0.198 OA
ENDROOT
BRANCH   1   4
ATOM      4  C   UNL d   1      50.166  34.413  52.606  0.00  0.00     0.107 A 
ATOM      5  C   UNL d   1      49.753  34.900  53.116  0.00  0.00     0.040 A 
ATOM      6  C   UNL d   1      49.059  35.251  52.864  0.00  0.00     0.123 A 
ATOM      7  O   UNL d   1      48.639  35.744  53.375  0.00  0.00    -0.301 OA
ATOM      8  C   UNL d   1      48.777  35.113  52.100  0.00  0.00     0.123 A 
ATOM      9  C   UNL d   1      47.938  36.099  53.125  0.00  0.00     0.149 A 
ATOM     10  C   UNL d   1      47.656  35.962  52.361  0.00  0.00     0.149 A 
ATOM     11  O   UNL d   1      48.075  35.469  51.849  0.00  0.00    -0.301 OA
ATOM     12  C   UNL d   1      49.189  34.626  51.590  0.00  0.00     0.028 A 
ATOM     13  C   UNL d   1      49.883  34.275  51.842  0.00  0.00     0.015 A 
ENDBRANCH   1   4
BRANCH   1  14
ATOM     14  N   UNL d   1      51.576  33.682  53.106  0.00  0.00    -0.155 NA
BRANCH  14  15
ATOM     15  C   UNL d   1      51.872  33.033  52.697  0.00  0.00     0.139 C 
BRANCH  15  16
ATOM     16  C   UNL d   1      52.392  32.509  53.061  0.00  0.00     0.144 C 
BRANCH  16  17
ATOM     17  O   UNL d   1      52.721  31.884  52.639  0.00  0.00    -0.303 OA
BRANCH  17  18
ATOM     18  C   UNL d   1      52.957  31.196  53.026  0.00  0.00     0.100 A 
ATOM     19  C   UNL d   1      52.576  30.483  52.862  0.00  0.00     0.027 A 
ATOM     20  C   UNL d   1      52.810  29.792  53.247  0.00  0.00     0.032 A 
ATOM     21  C   UNL d   1      53.425  29.813  53.797  0.00  0.00     0.140 A 
ATOM     22  C   UNL d   1      53.807  30.526  53.961  0.00  0.00     0.032 A 
ATOM     23  F   UNL d   1      53.668  29.115  54.191  0.00  0.00    -0.204 F 
ATOM     24  C   UNL d   1      53.571  31.214  53.574  0.00  0.00     0.027 A 
ENDBRANCH  17  18
ENDBRANCH  16  17
ENDBRANCH  15  16
ENDBRANCH  14  15
ENDBRANCH   1  14
TORSDOF 6
ENDMDL
MODEL 3
REMARK VINA RESULT:      -7.7      2.289      5.815
REMARK  6 active torsions:
REMARK  status: ('A' for Active; 'I' for Inactive)
REMARK    1  A    between atoms: C_2  and  S_1 
REMARK    2  A    between atoms: N_7  and  S_1 
REMARK    3  A    between atoms: C_15  and  N_7 
REMARK    4  A    between atoms: C_14  and  O_21 
REMARK    5  A    between atoms: C_24  and  C_15 
REMARK    6  A    between atoms: O_21  and  C_24 
ROOT
ATOM      1  S   UNL d   1      50.577  34.107  52.472  0.00  0.00     0.285 S 
ATOM      2  O   UNL d   1      50.918  34.515  51.832  0.00  0.00    -0.198 OA
ATOM      3  O   UNL d   1      50.237  33.704  53.107  0.00  0.00    -0.198 OA
ENDROOT
BRANCH   1   4
ATOM      4  C   UNL d   1      49.852  34.502  52.326  0.00  0.00     0.107 A 
ATOM      5  C   UNL d   1      49.525  34.988  52.895  0.00  0.00     0.040 A 
ATOM      6  C   UNL d   1      48.818  35.368  52.742  0.00  0.00     0.123 A 
ATOM      7  O   UNL d   1      48.485  35.860  53.314  0.00  0.00    -0.301 OA
ATOM      8  C   UNL d   1      48.437  35.261  52.017  0.00  0.00     0.123 A 
ATOM      9  C   UNL d   1      47.771  36.246  53.163  0.00  0.00     0.149 A 
ATOM     10  C   UNL d   1      47.390  36.139  52.438  0.00  0.00     0.149 A 
ATOM     11  O   UNL d   1      47.723  35.647  51.866  0.00  0.00    -0.301 OA
ATOM     12  C   UNL d   1      48.764  34.775  51.447  0.00  0.00     0.028 A 
ATOM     13  C   UNL d   1      49.471  34.395  51.601  0.00  0.00     0.015 A 
ENDBRANCH   1   4
BRANCH   1  14
ATOM     14  N   UNL d   1      51.297  33.723  52.609  0.00  0.00    -0.155 NA
BRANCH  14  15
ATOM     15  C   UNL d   1      51.596  33.667  53.374  0.00  0.00     0.139 C 
BRANCH  15  16
ATOM     16  C   UNL d   1      52.398  33.536  53.502  0.00  0.00     0.144 C 
BRANCH  16  17
ATOM     17  O   UNL d   1      52.671  33.295  54.240  0.00  0.00    -0.303 OA
BRANCH  17  18
ATOM     18  C   UNL d   1      53.458  33.408  54.453  0.00  0.00     0.100 A 
ATOM     19  C   UNL d   1      54.040  32.909  54.148  0.00  0.00     0.027 A 
ATOM     20  C   UNL d   1      54.831  33.019  54.359  0.00  0.00     0.032 A 
ATOM     21  C   UNL d   1      55.039  33.628  54.875  0.00  0.00     0.140 A 
ATOM     22  C   UNL d   1      54.457  34.128  55.180  0.00  0.00     0.032 A 
ATOM     23  F   UNL d   1      55.839  33.745  55.094  0.00  0.00    -0.204 F 
ATOM     24  C   UNL d   1      53.670  34.015  54.967  0.00  0.00     0.027 A 
ENDBRANCH  17  18
ENDBRANCH  16  17
ENDBRANCH  15  16
ENDBRANCH  14  15
ENDBRANCH   1  14
TORSDOF 6
ENDMDL
MODEL 4
REMARK VINA RESULT:      -7.3      1.229      1.795
REMARK  6 active torsions:
REMARK  status: ('A' for Active; 'I' for Inactive)
REMARK    1  A    between atoms: C_2  and  S_1 
REMARK    2  A    between atoms: N_7  and  S_1 
REMARK    3  A    between atoms: C_15  and  N_7 
REMARK    4  A    between atoms: C_14  and  O_21 
REMARK    5  A    between atoms: C_24  and  C_15 
REMARK    6  A    between atoms: O_21  and  C_24 
ROOT
ATOM      1  S   UNL d   1      52.058  33.569  52.902  0.00  0.00     0.285 S 
ATOM      2  O   UNL d   1      52.040  33.790  53.704  0.00  0.00    -0.198 OA
ATOM      3  O   UNL d   1      52.076  33.349  52.107  0.00  0.00    -0.198 OA
ENDROOT
BRANCH   1   4
ATOM      4  C   UNL d   1      52.502  32.890  53.107  0.00  0.00     0.107 A 
ATOM      5  C   UNL d   1      52.255  32.148  52.870  0.00  0.00     0.040 A 
ATOM      6  C   UNL d   1      52.697  31.492  53.076  0.00  0.00     0.123 A 
ATOM      7  O   UNL d   1      52.451  30.741  52.838  0.00  0.00    -0.301 OA
ATOM      8  C   UNL d   1      53.387  31.578  53.520  0.00  0.00     0.123 A 
ATOM      9  C   UNL d   1      52.893  30.076  53.043  0.00  0.00     0.149 A 
ATOM     10  C   UNL d   1      53.584  30.162  53.488  0.00  0.00     0.149 A 
ATOM     11  O   UNL d   1      53.830  30.913  53.726  0.00  0.00    -0.301 OA
ATOM     12  C   UNL d   1      53.635  32.320  53.758  0.00  0.00     0.028 A 
ATOM     13  C   UNL d   1      53.193  32.976  53.552  0.00  0.00     0.015 A 
ENDBRANCH   1   4
BRANCH   1  14
ATOM     14  N   UNL d   1      51.618  34.243  52.710  0.00  0.00    -0.155 NA
BRANCH  14  15
ATOM     15  C   UNL d   1      50.888  34.375  53.067  0.00  0.00     0.139 C 
BRANCH  15  16
ATOM     16  C   UNL d   1      50.298  34.792  52.673  0.00  0.00     0.144 C 
BRANCH  16  17
ATOM     17  O   UNL d   1      49.710  35.185  53.094  0.00  0.00    -0.303 OA
BRANCH  17  18
ATOM     18  C   UNL d   1      48.978  35.339  52.749  0.00  0.00     0.100 A 
ATOM     19  C   UNL d   1      48.384  35.699  53.193  0.00  0.00     0.027 A 
ATOM     20  C   UNL d   1      47.649  35.855  52.850  0.00  0.00     0.032 A 
ATOM     21  C   UNL d   1      47.510  35.650  52.063  0.00  0.00     0.140 A 
ATOM     22  C   UNL d   1      48.104  35.290  51.619  0.00  0.00     0.032 A 
ATOM     23  F   UNL d   1      46.766  35.806  51.709  0.00  0.00    -0.204 F 
ATOM     24  C   UNL d   1      48.835  35.136  51.964  0.00  0.00     0.027 A 
ENDBRANCH  17  18
ENDBRANCH  16  17
ENDBRANCH  15  16
ENDBRANCH  14  15
ENDBRANCH   1  14
TORSDOF 6
ENDMDL
MODEL 5
REMARK VINA RESULT:      -6.6      2.500      6.482
REMARK  6 active torsions:
REMARK  status: ('A' for Active; 'I' for Inactive)
REMARK    1  A    between atoms: C_2  and  S_1 
REMARK    2  A    between atoms: N_7  and  S_1 
REMARK    3  A    between atoms: C_15  and  N_7 
REMARK    4  A    between atoms: C_14  and  O_21 
REMARK    5  A    between atoms: C_24  and  C_15 
REMARK    6  A    between atoms: O_21  and  C_24 
ROOT
ATOM      1  S   UNL d   1      48.045  35.784  52.733  0.00  0.00     0.285 S 
ATOM      2  O   UNL d   1      47.785  35.858  53.520  0.00  0.00    -0.198 OA
ATOM      3  O   UNL d   1      48.301  35.711  51.952  0.00  0.00    -0.198 OA
ENDROOT
BRANCH   1   4
ATOM      4  C   UNL d   1      47.269  35.959  52.469  0.00  0.00     0.107 A 
ATOM      5  C   UNL d   1      46.955  35.567  51.825  0.00  0.00     0.040 A 
ATOM      6  C   UNL d   1      46.197  35.745  51.576  0.00  0.00     0.123 A 
ATOM      7  O   UNL d   1      45.875  35.352  50.926  0.00  0.00    -0.301 OA
ATOM      8  C   UNL d   1      45.752  36.317  51.973  0.00  0.00     0.123 A 
ATOM      9  C   UNL d   1      45.111  35.529  50.672  0.00  0.00     0.149 A 
ATOM     10  C   UNL d   1      44.666  36.101  51.068  0.00  0.00     0.149 A 
ATOM     11  O   UNL d   1      44.987  36.494  51.719  0.00  0.00    -0.301 OA
ATOM     12  C   UNL d   1      46.067  36.709  52.618  0.00  0.00     0.028 A 
ATOM     13  C   UNL d   1      46.825  36.531  52.866  0.00  0.00     0.015 A 
ENDBRANCH   1   4
BRANCH   1  14
ATOM     14  N   UNL d   1      48.808  35.612  53.003  0.00  0.00    -0.155 NA
BRANCH  14  15
ATOM     15  C   UNL d   1      49.225  34.978  52.684  0.00  0.00     0.139 C 
BRANCH  15  16
ATOM     16  C   UNL d   1      49.997  34.822  52.924  0.00  0.00     0.144 C 
BRANCH  16  17
ATOM     17  O   UNL d   1      50.374  34.127  52.695  0.00  0.00    -0.303 OA
BRANCH  17  18
ATOM     18  C   UNL d   1      51.149  33.975  52.928  0.00  0.00     0.100 A 
ATOM     19  C   UNL d   1      51.319  33.293  53.359  0.00  0.00     0.027 A 
ATOM     20  C   UNL d   1      52.095  33.136  53.595  0.00  0.00     0.032 A 
ATOM     21  C   UNL d   1      52.700  33.663  53.399  0.00  0.00     0.140 A 
ATOM     22  C   UNL d   1      52.530  34.345  52.967  0.00  0.00     0.032 A 
ATOM     23  F   UNL d   1      53.489  33.510  53.635  0.00  0.00    -0.204 F 
ATOM     24  C   UNL d   1      51.755  34.497  52.734  0.00  0.00     0.027 A 
ENDBRANCH  17  18
ENDBRANCH  16  17
ENDBRANCH  15  16
ENDBRANCH  14  15
ENDBRANCH   1  14
TORSDOF 6
ENDMDL
