MODEL 1
REMARK VINA RESULT:      -2.8      0.000      0.000
REMARK  5 active torsions:
REMARK  status: ('A' for Active; 'I' for Inactive)
REMARK    1  A    between atoms: C_4  and  C_1 
REMARK    2  A    between atoms: N_8  and  C_4 
REMARK    3  A    between atoms: C_11  and  N_8 
REMARK    4  A    between atoms: O_17  and  C_12 
REMARK    5  A    between atoms: C_20  and  O_17 
ROOT
ATOM      1  C   UNL d   1      32.653  20.795 -21.497  0.00  0.00     0.105 C 
ENDROOT
BRANCH   1   2
ATOM      2  C   UNL d   1      32.715  21.487 -21.030  0.00  0.00     0.096 A 
ATOM      3  C   UNL d   1      32.488  22.215 -21.336  0.00  0.00     0.196 A 
ATOM      4  C   UNL d   1      32.554  22.893 -20.865  0.00  0.00     0.019 A 
ATOM      5  O   UNL d   1      32.194  22.275 -22.116  0.00  0.00    -0.287 OA
ATOM      6  C   UNL d   1      32.845  22.840 -20.092  0.00  0.00     0.043 A 
ATOM      7  C   UNL d   1      33.071  22.102 -19.792  0.00  0.00     0.019 A 
ATOM      8  C   UNL d   1      32.669  23.618 -20.238  0.00  0.00     0.009 C 
ATOM      9  C   UNL d   1      33.049  23.202 -19.379  0.00  0.00     0.009 C 
ATOM     10  C   UNL d   1      33.008  21.425 -20.254  0.00  0.00     0.196 A 
ATOM     11  O   UNL d   1      33.241  20.691 -19.933  0.00  0.00    -0.287 OA
ENDBRANCH   1   2
BRANCH   1  12
ATOM     12  N   UNL d   1      33.240  20.590 -22.030  0.00  0.00    -0.244 NA
BRANCH  12  13
ATOM     13  C   UNL d   1      33.161  19.906 -22.477  0.00  0.00     0.082 A 
ATOM     14  C   UNL d   1      33.001  19.970 -23.283  0.00  0.00     0.021 A 
ATOM     15  C   UNL d   1      32.923  19.277 -23.730  0.00  0.00     0.026 A 
ATOM     16  C   UNL d   1      33.001  18.533 -23.383  0.00  0.00     0.100 A 
ATOM     17  C   UNL d   1      33.162  18.483 -22.573  0.00  0.00     0.026 A 
ATOM     18  C   UNL d   1      33.241  19.167 -22.123  0.00  0.00     0.021 A 
BRANCH  16  19
ATOM     19  O   UNL d   1      32.921  17.827 -23.843  0.00  0.00    -0.305 OA
BRANCH  19  20
ATOM     20  C   UNL d   1      32.164  17.571 -24.117  0.00  0.00     0.123 C 
ATOM     21  C   UNL d   1      32.124  16.910 -24.609  0.00  0.00     0.029 C 
ENDBRANCH  19  20
ENDBRANCH  16  19
ENDBRANCH  12  13
ENDBRANCH   1  12
TORSDOF 5
ENDMDL
MODEL 2
REMARK VINA RESULT:      -2.4      1.124      4.997
REMARK  5 active torsions:
REMARK  status: ('A' for Active; 'I' for Inactive)
REMARK    1  A    between atoms: C_4  and  C_1 
REMARK    2  A    between atoms: N_8  and  C_4 
REMARK    3  A    between atoms: C_11  and  N_8 
REMARK    4  A    between atoms: O_17  and  C_12 
REMARK    5  A    between atoms: C_20  and  O_17 
ROOT
ATOM      1  C   UNL d   1      33.241  20.135 -22.350  0.00  0.00     0.105 C 
ENDROOT
BRANCH   1   2
ATOM      2  C   UNL d   1      33.194  19.440 -22.813  0.00  0.00     0.096 A 
ATOM      3  C   UNL d   1      33.192  18.702 -22.452  0.00  0.00     0.196 A 
ATOM      4  C   UNL d   1      33.145  18.020 -22.920  0.00  0.00     0.019 A 
ATOM      5  O   UNL d   1      33.237  18.635 -21.620  0.00  0.00    -0.287 OA
ATOM      6  C   UNL d   1      33.100  18.080 -23.745  0.00  0.00     0.043 A 
ATOM      7  C   UNL d   1      33.103  18.829 -24.099  0.00  0.00     0.019 A 
ATOM      8  C   UNL d   1      33.087  17.292 -23.552  0.00  0.00     0.009 C 
ATOM      9  C   UNL d   1      33.048  17.719 -24.485  0.00  0.00     0.009 C 
ATOM     10  C   UNL d   1      33.149  19.509 -23.640  0.00  0.00     0.196 A 
ATOM     11  O   UNL d   1      33.150  20.253 -24.017  0.00  0.00    -0.287 OA
ENDBRANCH   1   2
BRANCH   1  12
ATOM     12  N   UNL d   1      32.575  20.455 -21.996  0.00  0.00    -0.244 NA
BRANCH  12  13
ATOM     13  C   UNL d   1      32.639  21.149 -21.562  0.00  0.00     0.082 A 
ATOM     14  C   UNL d   1      32.156  21.254 -20.902  0.00  0.00     0.021 A 
ATOM     15  C   UNL d   1      32.224  21.957 -20.467  0.00  0.00     0.026 A 
ATOM     16  C   UNL d   1      32.761  22.543 -20.683  0.00  0.00     0.100 A 
ATOM     17  C   UNL d   1      33.240  22.424 -21.347  0.00  0.00     0.026 A 
ATOM     18  C   UNL d   1      33.178  21.730 -21.784  0.00  0.00     0.021 A 
BRANCH  16  19
ATOM     19  O   UNL d   1      32.828  23.259 -20.236  0.00  0.00    -0.305 OA
BRANCH  19  20
ATOM     20  C   UNL d   1      32.442  23.343 -19.490  0.00  0.00     0.123 C 
ATOM     21  C   UNL d   1      32.853  23.698 -18.869  0.00  0.00     0.029 C 
ENDBRANCH  19  20
ENDBRANCH  16  19
ENDBRANCH  12  13
ENDBRANCH   1  12
TORSDOF 5
ENDMDL
MODEL 3
REMARK VINA RESULT:       0.2      1.925      5.093
REMARK  5 active torsions:
REMARK  status: ('A' for Active; 'I' for Inactive)
REMARK    1  A    between atoms: C_4  and  C_1 
REMARK    2  A    between atoms: N_8  and  C_4 
REMARK    3  A    between atoms: C_11  and  N_8 
REMARK    4  A    between atoms: O_17  and  C_12 
REMARK    5  A    between atoms: C_20  and  O_17 
ROOT
ATOM      1  C   UNL d   1      32.606  22.046 -21.244  0.00  0.00     0.105 C 
ENDROOT
BRANCH   1   2
ATOM      2  C   UNL d   1      32.775  21.881 -22.046  0.00  0.00     0.096 A 
ATOM      3  C   UNL d   1      32.885  21.106 -22.295  0.00  0.00     0.196 A 
ATOM      4  C   UNL d   1      33.052  20.954 -23.093  0.00  0.00     0.019 A 
ATOM      5  O   UNL d   1      32.830  20.473 -21.752  0.00  0.00    -0.287 OA
ATOM      6  C   UNL d   1      33.107  21.577 -23.635  0.00  0.00     0.043 A 
ATOM      7  C   UNL d   1      32.995  22.355 -23.375  0.00  0.00     0.019 A 
ATOM      8  C   UNL d   1      33.241  20.885 -24.037  0.00  0.00     0.009 C 
ATOM      9  C   UNL d   1      33.236  21.843 -24.405  0.00  0.00     0.009 C 
ATOM     10  C   UNL d   1      32.829  22.512 -22.585  0.00  0.00     0.196 A 
ATOM     11  O   UNL d   1      32.719  23.303 -22.343  0.00  0.00    -0.287 OA
ENDBRANCH   1   2
BRANCH   1  12
ATOM     12  N   UNL d   1      32.667  22.806 -20.946  0.00  0.00    -0.244 NA
BRANCH  12  13
ATOM     13  C   UNL d   1      32.751  22.920 -20.137  0.00  0.00     0.082 A 
ATOM     14  C   UNL d   1      33.158  22.357 -19.694  0.00  0.00     0.021 A 
ATOM     15  C   UNL d   1      33.241  22.475 -18.877  0.00  0.00     0.026 A 
ATOM     16  C   UNL d   1      32.924  23.141 -18.508  0.00  0.00     0.100 A 
ATOM     17  C   UNL d   1      32.518  23.698 -18.964  0.00  0.00     0.026 A 
ATOM     18  C   UNL d   1      32.432  23.587 -19.776  0.00  0.00     0.021 A 
BRANCH  16  19
ATOM     19  O   UNL d   1      33.011  23.259 -17.674  0.00  0.00    -0.305 OA
BRANCH  19  20
ATOM     20  C   UNL d   1      33.125  22.605 -17.152  0.00  0.00     0.123 C 
ATOM     21  C   UNL d   1      33.136  22.745 -16.340  0.00  0.00     0.029 C 
ENDBRANCH  19  20
ENDBRANCH  16  19
ENDBRANCH  12  13
ENDBRANCH   1  12
TORSDOF 5
ENDMDL
