MODEL 1
REMARK VINA RESULT:      -0.5      0.000      0.000
REMARK  8 active torsions:
REMARK  status: ('A' for Active; 'I' for Inactive)
REMARK    1  A    between atoms: N_2  and  S_1 
REMARK    2  A    between atoms: C_5  and  S_1 
REMARK    3  A    between atoms: C_11  and  C_3 
REMARK       I    between atoms: C_4  and  N_9 
REMARK    4  A    between atoms: C_6  and  C_4 
REMARK       I    between atoms: N_16  and  C_6 
REMARK    5  A    between atoms: N_9  and  C_11 
REMARK    6  A    between atoms: N_10  and  C_25 
REMARK    7  A    between atoms: C_24  and  N_16 
REMARK    8  A    between atoms: C_25  and  C_24 
ROOT
ATOM      1  N   UNL d   1      31.615  16.999 -24.642  0.00  0.00    -0.209 N 
ATOM      2  C   UNL d   1      32.220  17.524 -24.452  0.00  0.00     0.197 A 
ATOM      3  O   UNL d   1      33.003  17.308 -24.510  0.00  0.00    -0.287 OA
ATOM      4  C   UNL d   1      31.804  16.227 -24.900  0.00  0.00     0.096 A 
ATOM      5  C   UNL d   1      32.607  16.002 -24.961  0.00  0.00     0.047 A 
ATOM      6  C   UNL d   1      33.198  16.541 -24.767  0.00  0.00     0.126 A 
ENDROOT
BRANCH   2   7
ATOM      7  C   UNL d   1      32.020  18.297 -24.194  0.00  0.00     0.146 C 
BRANCH   7   8
ATOM      8  N   UNL d   1      32.333  18.589 -23.491  0.00  0.00    -0.199 NA
ATOM      9  C   UNL d   1      32.360  19.394 -23.348  0.00  0.00     0.337 C 
ATOM     10  O   UNL d   1      32.069  19.912 -23.922  0.00  0.00    -0.260 OA
BRANCH   9  11
ATOM     11  C   UNL d   1      32.670  19.685 -22.649  0.00  0.00     0.337 C 
ATOM     12  O   UNL d   1      32.875  19.164 -22.042  0.00  0.00    -0.260 OA
ATOM     13  N   UNL d   1      32.778  20.491 -22.551  0.00  0.00    -0.201 NA
BRANCH  13  14
ATOM     14  C   UNL d   1      33.086  20.779 -21.856  0.00  0.00     0.121 C 
BRANCH  14  15
ATOM     15  C   UNL d   1      33.206  21.590 -21.756  0.00  0.00     0.101 C 
BRANCH  15  16
ATOM     16  N   UNL d   1      32.673  22.026 -21.296  0.00  0.00    -0.298 N 
ATOM     17  C   UNL d   1      32.141  22.531 -21.659  0.00  0.00     0.107 A 
ATOM     18  C   UNL d   1      31.599  22.976 -21.206  0.00  0.00     0.142 A 
ATOM     19  O   UNL d   1      31.606  22.902 -20.387  0.00  0.00    -0.300 OA
ATOM     20  C   UNL d   1      32.162  22.377 -20.030  0.00  0.00     0.142 A 
ATOM     21  C   UNL d   1      32.677  21.954 -20.472  0.00  0.00     0.107 A 
ENDBRANCH  15  16
ENDBRANCH  14  15
ENDBRANCH  13  14
ENDBRANCH   9  11
ENDBRANCH   7   8
ENDBRANCH   2   7
BRANCH   1  22
ATOM     22  S   UNL d   1      30.827  17.223 -24.581  0.00  0.00     0.273 S 
ATOM     23  O   UNL d   1      30.968  17.859 -25.092  0.00  0.00    -0.200 OA
ATOM     24  O   UNL d   1      30.688  16.590 -24.072  0.00  0.00    -0.200 OA
BRANCH  22  25
ATOM     25  C   UNL d   1      30.029  17.448 -24.518  0.00  0.00     0.104 A 
ATOM     26  C   UNL d   1      29.581  17.183 -23.893  0.00  0.00     0.015 A 
ATOM     27  C   UNL d   1      28.782  17.405 -23.826  0.00  0.00     0.030 A 
ATOM     28  C   UNL d   1      28.450  17.896 -24.398  0.00  0.00     0.140 A 
ATOM     29  C   UNL d   1      28.906  18.172 -25.045  0.00  0.00     0.030 A 
ATOM     30  F   UNL d   1      27.657  18.118 -24.335  0.00  0.00    -0.204 F 
ATOM     31  C   UNL d   1      29.693  17.944 -25.097  0.00  0.00     0.015 A 
ENDBRANCH  22  25
ENDBRANCH   1  22
TORSDOF 8
ENDMDL
MODEL 2
REMARK VINA RESULT:       1.1      2.911      6.453
REMARK  8 active torsions:
REMARK  status: ('A' for Active; 'I' for Inactive)
REMARK    1  A    between atoms: N_2  and  S_1 
REMARK    2  A    between atoms: C_5  and  S_1 
REMARK    3  A    between atoms: C_11  and  C_3 
REMARK       I    between atoms: C_4  and  N_9 
REMARK    4  A    between atoms: C_6  and  C_4 
REMARK       I    between atoms: N_16  and  C_6 
REMARK    5  A    between atoms: N_9  and  C_11 
REMARK    6  A    between atoms: N_10  and  C_25 
REMARK    7  A    between atoms: C_24  and  N_16 
REMARK    8  A    between atoms: C_25  and  C_24 
ROOT
ATOM      1  N   UNL d   1      32.308  23.027 -21.709  0.00  0.00    -0.209 N 
ATOM      2  C   UNL d   1      32.563  22.435 -22.222  0.00  0.00     0.197 A 
ATOM      3  O   UNL d   1      32.392  22.462 -23.018  0.00  0.00    -0.287 OA
ATOM      4  C   UNL d   1      31.865  23.669 -22.007  0.00  0.00     0.096 A 
ATOM      5  C   UNL d   1      31.688  23.700 -22.823  0.00  0.00     0.047 A 
ATOM      6  C   UNL d   1      31.951  23.099 -23.321  0.00  0.00     0.126 A 
ENDROOT
BRANCH   2   7
ATOM      7  C   UNL d   1      33.007  21.795 -21.914  0.00  0.00     0.146 C 
BRANCH   7   8
ATOM      8  N   UNL d   1      33.194  21.154 -22.396  0.00  0.00    -0.199 NA
ATOM      9  C   UNL d   1      32.837  20.427 -22.283  0.00  0.00     0.337 C 
ATOM     10  O   UNL d   1      32.283  20.344 -21.676  0.00  0.00    -0.260 OA
BRANCH   9  11
ATOM     11  C   UNL d   1      33.022  19.790 -22.762  0.00  0.00     0.337 C 
ATOM     12  O   UNL d   1      33.229  19.916 -23.552  0.00  0.00    -0.260 OA
ATOM     13  N   UNL d   1      33.004  19.029 -22.460  0.00  0.00    -0.201 NA
BRANCH  13  14
ATOM     14  C   UNL d   1      33.189  18.397 -22.936  0.00  0.00     0.121 C 
BRANCH  14  15
ATOM     15  C   UNL d   1      32.592  17.933 -23.267  0.00  0.00     0.101 C 
BRANCH  15  16
ATOM     16  N   UNL d   1      32.705  17.116 -23.342  0.00  0.00    -0.298 N 
ATOM     17  C   UNL d   1      33.052  16.696 -22.732  0.00  0.00     0.107 A 
ATOM     18  C   UNL d   1      33.172  15.872 -22.796  0.00  0.00     0.142 A 
ATOM     19  O   UNL d   1      32.937  15.485 -23.482  0.00  0.00    -0.300 OA
ATOM     20  C   UNL d   1      32.580  15.935 -24.101  0.00  0.00     0.142 A 
ATOM     21  C   UNL d   1      32.470  16.724 -24.031  0.00  0.00     0.107 A 
ENDBRANCH  15  16
ENDBRANCH  14  15
ENDBRANCH  13  14
ENDBRANCH   9  11
ENDBRANCH   7   8
ENDBRANCH   2   7
BRANCH   1  22
ATOM     22  S   UNL d   1      32.484  22.994 -20.907  0.00  0.00     0.273 S 
ATOM     23  O   UNL d   1      31.735  22.677 -20.755  0.00  0.00    -0.200 OA
ATOM     24  O   UNL d   1      33.230  23.310 -21.059  0.00  0.00    -0.200 OA
BRANCH  22  25
ATOM     25  C   UNL d   1      32.665  22.962 -20.096  0.00  0.00     0.104 A 
ATOM     26  C   UNL d   1      33.032  23.592 -19.737  0.00  0.00     0.015 A 
ATOM     27  C   UNL d   1      33.215  23.564 -18.925  0.00  0.00     0.030 A 
ATOM     28  C   UNL d   1      33.020  22.893 -18.491  0.00  0.00     0.140 A 
ATOM     29  C   UNL d   1      32.641  22.239 -18.855  0.00  0.00     0.030 A 
ATOM     30  F   UNL d   1      33.199  22.861 -17.685  0.00  0.00    -0.204 F 
ATOM     31  C   UNL d   1      32.467  22.282 -19.657  0.00  0.00     0.015 A 
ENDBRANCH  22  25
ENDBRANCH   1  22
TORSDOF 8
ENDMDL
