MODEL 1
REMARK VINA RESULT:      -4.6      0.000      0.000
REMARK  4 active torsions:
REMARK  status: ('A' for Active; 'I' for Inactive)
REMARK    1  A    between atoms: C_2  and  C_1 
REMARK       I    between atoms: N_6  and  C_2 
REMARK    2  A    between atoms: C_4  and  C_11 
REMARK    3  A    between atoms: N_8  and  N_6 
REMARK    4  A    between atoms: C_11  and  N_8 
ROOT
ATOM      1  C   UNL d   1     -41.463-121.616 -51.392  0.00  0.00     0.300 C 
ATOM      2  O   UNL d   1     -41.379-120.962 -50.896  0.00  0.00    -0.264 OA
ATOM      3  N   UNL d   1     -41.339-121.540 -52.210  0.00  0.00    -0.105 NA
ENDROOT
BRANCH   3   4
ATOM      4  N   UNL d   1     -41.423-122.192 -52.708  0.00  0.00    -0.143 NA
BRANCH   4   5
ATOM      5  C   UNL d   1     -41.139-122.164 -53.497  0.00  0.00     0.126 C 
BRANCH   5   6
ATOM      6  C   UNL d   1     -41.647-122.307 -54.125  0.00  0.00     0.060 A 
ATOM      7  C   UNL d   1     -41.644-123.044 -54.513  0.00  0.00     0.197 A 
ATOM      8  O   UNL d   1     -41.128-123.628 -54.263  0.00  0.00    -0.286 OA
ATOM      9  C   UNL d   1     -42.152-123.188 -55.140  0.00  0.00     0.042 A 
ATOM     10  C   UNL d   1     -42.671-122.604 -55.392  0.00  0.00     0.003 A 
ATOM     11  C   UNL d   1     -42.681-121.853 -55.005  0.00  0.00     0.000 A 
ATOM     12  C   UNL d   1     -42.171-121.709 -54.375  0.00  0.00     0.005 A 
ENDBRANCH   5   6
ENDBRANCH   4   5
ENDBRANCH   3   4
BRANCH   1  13
ATOM     13  C   UNL d   1     -41.672-122.349 -51.076  0.00  0.00     0.098 A 
ATOM     14  C   UNL d   1     -42.428-122.450 -50.759  0.00  0.00     0.200 A 
ATOM     15  O   UNL d   1     -42.958-121.825 -50.763  0.00  0.00    -0.286 OA
ATOM     16  C   UNL d   1     -42.656-123.179 -50.437  0.00  0.00     0.042 A 
ATOM     17  C   UNL d   1     -42.124-123.806 -50.434  0.00  0.00     0.003 A 
ATOM     18  C   UNL d   1     -41.358-123.713 -50.752  0.00  0.00     0.000 A 
ATOM     19  C   UNL d   1     -41.127-122.992 -51.072  0.00  0.00     0.008 A 
ENDBRANCH   1  13
TORSDOF 4
ENDMDL
MODEL 2
REMARK VINA RESULT:      -4.1      1.194      1.637
REMARK  4 active torsions:
REMARK  status: ('A' for Active; 'I' for Inactive)
REMARK    1  A    between atoms: C_2  and  C_1 
REMARK       I    between atoms: N_6  and  C_2 
REMARK    2  A    between atoms: C_4  and  C_11 
REMARK    3  A    between atoms: N_8  and  N_6 
REMARK    4  A    between atoms: C_11  and  N_8 
ROOT
ATOM      1  C   UNL d   1     -42.811-122.228 -50.810  0.00  0.00     0.300 C 
ATOM      2  O   UNL d   1     -43.531-121.923 -50.544  0.00  0.00    -0.264 OA
ATOM      3  N   UNL d   1     -42.579-122.124 -51.601  0.00  0.00    -0.105 NA
ENDROOT
BRANCH   3   4
ATOM      4  N   UNL d   1     -41.860-122.428 -51.868  0.00  0.00    -0.143 NA
BRANCH   4   5
ATOM      5  C   UNL d   1     -41.492-122.109 -52.552  0.00  0.00     0.126 C 
BRANCH   5   6
ATOM      6  C   UNL d   1     -41.427-122.559 -53.235  0.00  0.00     0.060 A 
ATOM      7  C   UNL d   1     -41.594-122.227 -53.979  0.00  0.00     0.197 A 
ATOM      8  O   UNL d   1     -41.826-121.443 -54.027  0.00  0.00    -0.286 OA
ATOM      9  C   UNL d   1     -41.529-122.676 -54.661  0.00  0.00     0.042 A 
ATOM     10  C   UNL d   1     -41.297-123.462 -54.616  0.00  0.00     0.003 A 
ATOM     11  C   UNL d   1     -41.125-123.809 -53.865  0.00  0.00     0.000 A 
ATOM     12  C   UNL d   1     -41.191-123.357 -53.180  0.00  0.00     0.005 A 
ENDBRANCH   5   6
ENDBRANCH   4   5
ENDBRANCH   3   4
BRANCH   1  13
ATOM     13  C   UNL d   1     -42.320-122.638 -50.289  0.00  0.00     0.098 A 
ATOM     14  C   UNL d   1     -42.545-123.390 -50.031  0.00  0.00     0.200 A 
ATOM     15  O   UNL d   1     -43.250-123.716 -50.293  0.00  0.00    -0.286 OA
ATOM     16  C   UNL d   1     -42.065-123.817 -49.508  0.00  0.00     0.042 A 
ATOM     17  C   UNL d   1     -41.358-123.490 -49.245  0.00  0.00     0.003 A 
ATOM     18  C   UNL d   1     -41.122-122.731 -49.500  0.00  0.00     0.000 A 
ATOM     19  C   UNL d   1     -41.595-122.302 -50.019  0.00  0.00     0.008 A 
ENDBRANCH   1  13
TORSDOF 4
ENDMDL
