MODEL 1
REMARK VINA RESULT:      -6.9      0.000      0.000
REMARK  5 active torsions:
REMARK  status: ('A' for Active; 'I' for Inactive)
REMARK    1  A    between atoms: N_2  and  C_1 
REMARK    2  A    between atoms: C_9  and  C_5 
REMARK       I    between atoms: N_6  and  C_7 
REMARK    3  A    between atoms: C_11  and  N_6 
REMARK    4  A    between atoms: C_7  and  C_10 
REMARK    5  A    between atoms: C_10  and  C_9 
ROOT
ATOM      1  N   UNL d   1     -49.130  13.821  22.680  0.00  0.00    -0.208 NA
ATOM      2  C   UNL d   1     -48.368  14.057  22.746  0.00  0.00     0.279 C 
ATOM      3  O   UNL d   1     -48.175  14.833  22.913  0.00  0.00    -0.265 OA
ENDROOT
BRANCH   2   4
ATOM      4  C   UNL d   1     -47.759  13.506  22.644  0.00  0.00     0.063 C 
BRANCH   4   5
ATOM      5  C   UNL d   1     -46.975  13.682  22.871  0.00  0.00     0.011 C 
BRANCH   5   6
ATOM      6  C   UNL d   1     -46.400  13.113  22.865  0.00  0.00     0.031 A 
ATOM      7  S   UNL d   1     -46.294  12.426  23.308  0.00  0.00    -0.064 SA
ATOM      8  C   UNL d   1     -45.613  12.081  23.050  0.00  0.00     0.156 A 
ATOM      9  C   UNL d   1     -45.292  12.535  22.460  0.00  0.00     0.031 A 
ATOM     10  C   UNL d   1     -45.766  13.171  22.338  0.00  0.00     0.009 A 
BRANCH   8  11
ATOM     11  N   UNL d   1     -45.307  11.366  23.361  0.00  0.00    -0.107 N 
ATOM     12  O   UNL d   1     -45.783  10.799  23.689  0.00  0.00    -0.531 OA
ATOM     13  O   UNL d   1     -44.482  11.246  23.326  0.00  0.00    -0.531 OA
ENDBRANCH   8  11
ENDBRANCH   5   6
ENDBRANCH   4   5
ENDBRANCH   2   4
BRANCH   1  14
ATOM     14  C   UNL d   1     -49.736  14.368  22.781  0.00  0.00     0.085 A 
ATOM     15  C   UNL d   1     -50.461  14.260  22.393  0.00  0.00     0.018 A 
ATOM     16  C   UNL d   1     -50.572  13.606  21.907  0.00  0.00     0.002 C 
ATOM     17  C   UNL d   1     -51.064  14.806  22.494  0.00  0.00     0.002 A 
ATOM     18  C   UNL d   1     -50.953  15.469  22.986  0.00  0.00     0.000 A 
ATOM     19  C   UNL d   1     -50.227  15.570  23.370  0.00  0.00     0.002 A 
ATOM     20  C   UNL d   1     -49.623  15.025  23.269  0.00  0.00     0.019 A 
ENDBRANCH   1  14
TORSDOF 5
ENDMDL
MODEL 2
REMARK VINA RESULT:      -6.5      1.615      2.037
REMARK  5 active torsions:
REMARK  status: ('A' for Active; 'I' for Inactive)
REMARK    1  A    between atoms: N_2  and  C_1 
REMARK    2  A    between atoms: C_9  and  C_5 
REMARK       I    between atoms: N_6  and  C_7 
REMARK    3  A    between atoms: C_11  and  N_6 
REMARK    4  A    between atoms: C_7  and  C_10 
REMARK    5  A    between atoms: C_10  and  C_9 
ROOT
ATOM      1  N   UNL d   1     -48.873  12.774  22.608  0.00  0.00    -0.208 NA
ATOM      2  C   UNL d   1     -48.200  12.530  22.967  0.00  0.00     0.279 C 
ATOM      3  O   UNL d   1     -48.219  12.127  23.678  0.00  0.00    -0.265 OA
ENDROOT
BRANCH   2   4
ATOM      4  C   UNL d   1     -47.468  12.686  22.615  0.00  0.00     0.063 C 
BRANCH   4   5
ATOM      5  C   UNL d   1     -46.771  12.737  23.072  0.00  0.00     0.011 C 
BRANCH   5   6
ATOM      6  C   UNL d   1     -46.053  12.872  22.725  0.00  0.00     0.031 A 
ATOM      7  S   UNL d   1     -45.415  12.377  22.560  0.00  0.00    -0.064 SA
ATOM      8  C   UNL d   1     -44.849  12.830  22.206  0.00  0.00     0.156 A 
ATOM      9  C   UNL d   1     -45.118  13.592  22.147  0.00  0.00     0.031 A 
ATOM     10  C   UNL d   1     -45.856  13.629  22.462  0.00  0.00     0.009 A 
BRANCH   8  11
ATOM     11  N   UNL d   1     -44.109  12.534  21.950  0.00  0.00    -0.107 N 
ATOM     12  O   UNL d   1     -43.761  12.778  21.261  0.00  0.00    -0.531 OA
ATOM     13  O   UNL d   1     -43.726  11.969  22.431  0.00  0.00    -0.531 OA
ENDBRANCH   8  11
ENDBRANCH   5   6
ENDBRANCH   4   5
ENDBRANCH   2   4
BRANCH   1  14
ATOM     14  C   UNL d   1     -49.601  12.619  22.959  0.00  0.00     0.085 A 
ATOM     15  C   UNL d   1     -50.201  13.192  22.939  0.00  0.00     0.018 A 
ATOM     16  C   UNL d   1     -50.065  13.914  22.568  0.00  0.00     0.002 C 
ATOM     17  C   UNL d   1     -50.926  13.037  23.288  0.00  0.00     0.002 A 
ATOM     18  C   UNL d   1     -51.064  12.306  23.663  0.00  0.00     0.000 A 
ATOM     19  C   UNL d   1     -50.461  11.739  23.679  0.00  0.00     0.002 A 
ATOM     20  C   UNL d   1     -49.735  11.894  23.330  0.00  0.00     0.019 A 
ENDBRANCH   1  14
TORSDOF 5
ENDMDL
MODEL 3
REMARK VINA RESULT:      -5.6      1.741      5.134
REMARK  5 active torsions:
REMARK  status: ('A' for Active; 'I' for Inactive)
REMARK    1  A    between atoms: N_2  and  C_1 
REMARK    2  A    between atoms: C_9  and  C_5 
REMARK       I    between atoms: N_6  and  C_7 
REMARK    3  A    between atoms: C_11  and  N_6 
REMARK    4  A    between atoms: C_7  and  C_10 
REMARK    5  A    between atoms: C_10  and  C_9 
ROOT
ATOM      1  N   UNL d   1     -46.962  12.614  23.008  0.00  0.00    -0.208 NA
ATOM      2  C   UNL d   1     -47.700  12.472  23.286  0.00  0.00     0.279 C 
ATOM      3  O   UNL d   1     -47.876  11.785  23.694  0.00  0.00    -0.265 OA
ENDROOT
BRANCH   2   4
ATOM      4  C   UNL d   1     -48.299  13.027  23.159  0.00  0.00     0.063 C 
BRANCH   4   5
ATOM      5  C   UNL d   1     -49.095  12.854  23.344  0.00  0.00     0.011 C 
BRANCH   5   6
ATOM      6  C   UNL d   1     -49.683  13.391  23.204  0.00  0.00     0.031 A 
ATOM      7  S   UNL d   1     -49.694  14.215  23.204  0.00  0.00    -0.064 SA
ATOM      8  C   UNL d   1     -50.446  14.442  23.023  0.00  0.00     0.156 A 
ATOM      9  C   UNL d   1     -50.903  13.782  22.910  0.00  0.00     0.031 A 
ATOM     10  C   UNL d   1     -50.445  13.131  23.019  0.00  0.00     0.009 A 
BRANCH   8  11
ATOM     11  N   UNL d   1     -50.691  15.241  22.967  0.00  0.00    -0.107 N 
ATOM     12  O   UNL d   1     -50.577  15.771  23.568  0.00  0.00    -0.531 OA
ATOM     13  O   UNL d   1     -51.064  15.487  22.262  0.00  0.00    -0.531 OA
ENDBRANCH   8  11
ENDBRANCH   5   6
ENDBRANCH   4   5
ENDBRANCH   2   4
BRANCH   1  14
ATOM     14  C   UNL d   1     -46.366  12.061  23.134  0.00  0.00     0.085 A 
ATOM     15  C   UNL d   1     -45.609  12.189  22.820  0.00  0.00     0.018 A 
ATOM     16  C   UNL d   1     -45.457  12.870  22.384  0.00  0.00     0.002 C 
ATOM     17  C   UNL d   1     -45.015  11.638  22.946  0.00  0.00     0.002 A 
ATOM     18  C   UNL d   1     -45.168  10.949  23.387  0.00  0.00     0.000 A 
ATOM     19  C   UNL d   1     -45.926  10.827  23.698  0.00  0.00     0.002 A 
ATOM     20  C   UNL d   1     -46.520  11.378  23.572  0.00  0.00     0.019 A 
ENDBRANCH   1  14
TORSDOF 5
ENDMDL
