MODEL 1
REMARK VINA RESULT:      -3.6      0.000      0.000
REMARK  2 active torsions:
REMARK  status: ('A' for Active; 'I' for Inactive)
REMARK    1  A    between atoms: C_10  and  C_1 
REMARK    2  A    between atoms: N_6  and  C_10 
ROOT
ATOM      1  C   UNL d   1     -41.521-122.339 -51.529  0.00  0.00     0.025 A 
ATOM      2  C   UNL d   1     -41.440-122.372 -52.350  0.00  0.00     0.025 A 
ATOM      3  C   UNL d   1     -41.543-123.072 -52.752  0.00  0.00     0.013 A 
ATOM      4  C   UNL d   1     -41.252-121.684 -52.758  0.00  0.00     0.103 A 
ATOM      5  O   UNL d   1     -41.145-120.966 -52.364  0.00  0.00    -0.273 OA
ATOM      6  C   UNL d   1     -41.461-123.099 -53.562  0.00  0.00     0.058 A 
ATOM      7  C   UNL d   1     -41.228-120.942 -51.542  0.00  0.00     0.300 A 
ATOM      8  C   UNL d   1     -41.415-121.622 -51.123  0.00  0.00     0.070 A 
ATOM      9  C   UNL d   1     -41.273-122.412 -53.979  0.00  0.00     0.013 A 
ATOM     10  C   UNL d   1     -41.169-121.704 -53.573  0.00  0.00     0.026 A 
ATOM     11  O   UNL d   1     -41.123-120.233 -51.141  0.00  0.00    -0.259 OA
ATOM     12 CL   UNL d   1     -41.566-123.811 -53.970  0.00  0.00    -0.082 Cl
ATOM     13  C   UNL d   1     -41.731-123.758 -52.334  0.00  0.00     0.001 C 
ATOM     14  C   UNL d   1     -41.190-122.439 -54.805  0.00  0.00     0.001 C 
ENDROOT
BRANCH   1  15
ATOM     15  C   UNL d   1     -41.709-123.025 -51.112  0.00  0.00     0.080 C 
BRANCH  15  16
ATOM     16  N   UNL d   1     -42.123-122.973 -50.395  0.00  0.00    -0.304 N 
ATOM     17  C   UNL d   1     -41.828-123.347 -49.721  0.00  0.00     0.064 A 
ATOM     18  C   UNL d   1     -41.123-123.774 -49.753  0.00  0.00     0.019 C 
ATOM     19  C   UNL d   1     -42.243-123.291 -49.016  0.00  0.00     0.018 A 
ATOM     20  C   UNL d   1     -42.945-122.868 -48.976  0.00  0.00     0.003 A 
ATOM     21  C   UNL d   1     -43.240-122.495 -49.650  0.00  0.00     0.019 A 
ATOM     22  C   UNL d   1     -42.833-122.544 -50.363  0.00  0.00     0.080 A 
ENDBRANCH  15  16
ENDBRANCH   1  15
TORSDOF 2
ENDMDL
MODEL 2
REMARK VINA RESULT:      -2.1      1.846      4.008
REMARK  2 active torsions:
REMARK  status: ('A' for Active; 'I' for Inactive)
REMARK    1  A    between atoms: C_10  and  C_1 
REMARK    2  A    between atoms: N_6  and  C_10 
ROOT
ATOM      1  C   UNL d   1     -42.435-122.862 -50.386  0.00  0.00     0.025 A 
ATOM      2  C   UNL d   1     -42.426-122.993 -49.571  0.00  0.00     0.025 A 
ATOM      3  C   UNL d   1     -41.782-123.334 -49.210  0.00  0.00     0.013 A 
ATOM      4  C   UNL d   1     -43.081-122.773 -49.127  0.00  0.00     0.103 A 
ATOM      5  O   UNL d   1     -43.743-122.425 -49.480  0.00  0.00    -0.273 OA
ATOM      6  C   UNL d   1     -41.779-123.461 -48.405  0.00  0.00     0.058 A 
ATOM      7  C   UNL d   1     -43.743-122.298 -50.296  0.00  0.00     0.300 A 
ATOM      8  C   UNL d   1     -43.094-122.514 -50.751  0.00  0.00     0.070 A 
ATOM      9  C   UNL d   1     -42.433-123.242 -47.952  0.00  0.00     0.013 A 
ATOM     10  C   UNL d   1     -43.084-122.897 -48.317  0.00  0.00     0.026 A 
ATOM     11  O   UNL d   1     -44.396-121.953 -50.656  0.00  0.00    -0.259 OA
ATOM     12 CL   UNL d   1     -41.123-123.808 -48.038  0.00  0.00    -0.082 Cl
ATOM     13  C   UNL d   1     -41.128-123.553 -49.663  0.00  0.00     0.001 C 
ATOM     14  C   UNL d   1     -42.430-123.371 -47.132  0.00  0.00     0.001 C 
ENDROOT
BRANCH   1  15
ATOM     15  C   UNL d   1     -41.781-123.081 -50.839  0.00  0.00     0.080 C 
BRANCH  15  16
ATOM     16  N   UNL d   1     -41.563-122.626 -51.498  0.00  0.00    -0.304 N 
ATOM     17  C   UNL d   1     -41.390-122.996 -52.215  0.00  0.00     0.064 A 
ATOM     18  C   UNL d   1     -41.432-123.817 -52.285  0.00  0.00     0.019 C 
ATOM     19  C   UNL d   1     -41.176-122.539 -52.862  0.00  0.00     0.018 A 
ATOM     20  C   UNL d   1     -41.132-121.722 -52.800  0.00  0.00     0.003 A 
ATOM     21  C   UNL d   1     -41.304-121.352 -52.083  0.00  0.00     0.019 A 
ATOM     22  C   UNL d   1     -41.521-121.800 -51.428  0.00  0.00     0.080 A 
ENDBRANCH  15  16
ENDBRANCH   1  15
TORSDOF 2
ENDMDL
