MODEL 1
REMARK VINA RESULT:      -8.2      0.000      0.000
REMARK  3 active torsions:
REMARK  status: ('A' for Active; 'I' for Inactive)
REMARK    1  A    between atoms: S_10  and  C_7 
REMARK    2  A    between atoms: C_13  and  S_10 
REMARK    3  A    between atoms: C_12  and  C_13 
ROOT
ATOM      1  N   UNL d   1     -47.086  12.425  23.296  0.00  0.00    -0.167 N 
ATOM      2  C   UNL d   1     -46.537  13.000  23.097  0.00  0.00     0.220 A 
ATOM      3  C   UNL d   1     -46.843  11.655  23.499  0.00  0.00     0.301 A 
ATOM      4  S   UNL d   1     -46.946  13.693  22.927  0.00  0.00    -0.019 SA
ATOM      5  N   UNL d   1     -47.830  12.758  23.251  0.00  0.00    -0.147 NA
ATOM      6  N   UNL d   1     -45.730  12.809  23.098  0.00  0.00    -0.121 NA
ATOM      7  C   UNL d   1     -47.746  13.537  23.024  0.00  0.00     0.163 A 
ATOM      8  N   UNL d   1     -45.482  12.056  23.296  0.00  0.00    -0.141 NA
ATOM      9  C   UNL d   1     -46.037  11.481  23.495  0.00  0.00     0.161 A 
ATOM     10  O   UNL d   1     -47.396  11.082  23.698  0.00  0.00    -0.263 OA
ATOM     11  C   UNL d   1     -45.794  10.717  23.696  0.00  0.00     0.028 C 
ENDROOT
BRANCH   7  12
ATOM     12  S   UNL d   1     -48.362  14.079  22.911  0.00  0.00    -0.059 SA
BRANCH  12  13
ATOM     13  C   UNL d   1     -48.975  13.897  22.395  0.00  0.00     0.038 C 
BRANCH  13  14
ATOM     14  C   UNL d   1     -49.664  14.336  22.484  0.00  0.00     0.017 A 
ATOM     15  C   UNL d   1     -50.322  14.177  22.008  0.00  0.00     0.058 A 
ATOM     16 CL   UNL d   1     -50.287  13.577  21.446  0.00  0.00    -0.082 Cl
ATOM     17  C   UNL d   1     -51.009  14.608  22.090  0.00  0.00     0.011 A 
ATOM     18  C   UNL d   1     -51.053  15.216  22.656  0.00  0.00     0.001 A 
ATOM     19  C   UNL d   1     -50.406  15.380  23.130  0.00  0.00     0.000 A 
ATOM     20  C   UNL d   1     -49.708  14.945  23.050  0.00  0.00     0.001 A 
ENDBRANCH  13  14
ENDBRANCH  12  13
ENDBRANCH   7  12
TORSDOF 3
ENDMDL
MODEL 2
REMARK VINA RESULT:      -6.9      1.304      1.414
REMARK  3 active torsions:
REMARK  status: ('A' for Active; 'I' for Inactive)
REMARK    1  A    between atoms: S_10  and  C_7 
REMARK    2  A    between atoms: C_13  and  S_10 
REMARK    3  A    between atoms: C_12  and  C_13 
ROOT
ATOM      1  N   UNL d   1     -46.190  12.573  22.969  0.00  0.00    -0.167 N 
ATOM      2  C   UNL d   1     -46.123  13.243  22.501  0.00  0.00     0.220 A 
ATOM      3  C   UNL d   1     -45.545  12.056  23.070  0.00  0.00     0.301 A 
ATOM      4  S   UNL d   1     -46.846  13.634  22.513  0.00  0.00    -0.019 SA
ATOM      5  N   UNL d   1     -46.949  12.549  23.269  0.00  0.00    -0.147 NA
ATOM      6  N   UNL d   1     -45.402  13.404  22.124  0.00  0.00    -0.121 NA
ATOM      7  C   UNL d   1     -47.353  13.200  22.990  0.00  0.00     0.163 A 
ATOM      8  N   UNL d   1     -44.764  12.903  22.217  0.00  0.00    -0.141 NA
ATOM      9  C   UNL d   1     -44.836  12.231  22.688  0.00  0.00     0.161 A 
ATOM     10  O   UNL d   1     -45.617  11.388  23.539  0.00  0.00    -0.263 OA
ATOM     11  C   UNL d   1     -44.194  11.719  22.788  0.00  0.00     0.028 C 
ENDROOT
BRANCH   7  12
ATOM     12  S   UNL d   1     -48.141  13.391  23.158  0.00  0.00    -0.059 SA
BRANCH  12  13
ATOM     13  C   UNL d   1     -48.747  12.936  22.841  0.00  0.00     0.038 C 
BRANCH  13  14
ATOM     14  C   UNL d   1     -49.512  13.161  23.045  0.00  0.00     0.017 A 
ATOM     15  C   UNL d   1     -50.147  12.650  22.901  0.00  0.00     0.058 A 
ATOM     16 CL   UNL d   1     -50.014  11.916  22.554  0.00  0.00    -0.082 Cl
ATOM     17  C   UNL d   1     -50.907  12.865  23.100  0.00  0.00     0.011 A 
ATOM     18  C   UNL d   1     -51.051  13.605  23.452  0.00  0.00     0.001 A 
ATOM     19  C   UNL d   1     -50.429  14.116  23.597  0.00  0.00     0.000 A 
ATOM     20  C   UNL d   1     -49.657  13.901  23.396  0.00  0.00     0.001 A 
ENDBRANCH  13  14
ENDBRANCH  12  13
ENDBRANCH   7  12
TORSDOF 3
ENDMDL
MODEL 3
REMARK VINA RESULT:      -6.6      1.636      1.999
REMARK  3 active torsions:
REMARK  status: ('A' for Active; 'I' for Inactive)
REMARK    1  A    between atoms: S_10  and  C_7 
REMARK    2  A    between atoms: C_13  and  S_10 
REMARK    3  A    between atoms: C_12  and  C_13 
ROOT
ATOM      1  N   UNL d   1     -46.053  11.335  23.450  0.00  0.00    -0.167 N 
ATOM      2  C   UNL d   1     -45.995  12.115  23.205  0.00  0.00     0.220 A 
ATOM      3  C   UNL d   1     -45.385  10.837  23.451  0.00  0.00     0.301 A 
ATOM      4  S   UNL d   1     -46.741  12.456  23.267  0.00  0.00    -0.019 SA
ATOM      5  N   UNL d   1     -46.829  11.193  23.662  0.00  0.00    -0.147 NA
ATOM      6  N   UNL d   1     -45.260  12.410  22.956  0.00  0.00    -0.121 NA
ATOM      7  C   UNL d   1     -47.252  11.880  23.551  0.00  0.00     0.163 A 
ATOM      8  N   UNL d   1     -44.600  11.930  22.954  0.00  0.00    -0.141 NA
ATOM      9  C   UNL d   1     -44.663  11.146  23.201  0.00  0.00     0.161 A 
ATOM     10  O   UNL d   1     -45.447  10.058  23.697  0.00  0.00    -0.263 OA
ATOM     11  C   UNL d   1     -43.999  10.653  23.202  0.00  0.00     0.028 C 
ENDROOT
BRANCH   7  12
ATOM     12  S   UNL d   1     -48.061  11.982  23.698  0.00  0.00    -0.059 SA
BRANCH  12  13
ATOM     13  C   UNL d   1     -48.491  12.523  23.255  0.00  0.00     0.038 C 
BRANCH  13  14
ATOM     14  C   UNL d   1     -49.309  12.478  23.325  0.00  0.00     0.017 A 
ATOM     15  C   UNL d   1     -49.781  13.120  23.100  0.00  0.00     0.058 A 
ATOM     16 CL   UNL d   1     -49.431  13.804  22.806  0.00  0.00    -0.082 Cl
ATOM     17  C   UNL d   1     -50.592  13.083  23.166  0.00  0.00     0.011 A 
ATOM     18  C   UNL d   1     -50.954  12.396  23.462  0.00  0.00     0.001 A 
ATOM     19  C   UNL d   1     -50.495  11.757  23.687  0.00  0.00     0.000 A 
ATOM     20  C   UNL d   1     -49.672  11.790  23.621  0.00  0.00     0.001 A 
ENDBRANCH  13  14
ENDBRANCH  12  13
ENDBRANCH   7  12
TORSDOF 3
ENDMDL
MODEL 4
REMARK VINA RESULT:      -5.8      9.437     10.309
REMARK  3 active torsions:
REMARK  status: ('A' for Active; 'I' for Inactive)
REMARK    1  A    between atoms: S_10  and  C_7 
REMARK    2  A    between atoms: C_13  and  S_10 
REMARK    3  A    between atoms: C_12  and  C_13 
ROOT
ATOM      1  N   UNL d   1     -39.986  14.841  18.246  0.00  0.00    -0.167 N 
ATOM      2  C   UNL d   1     -39.324  15.317  18.158  0.00  0.00     0.220 A 
ATOM      3  C   UNL d   1     -40.617  14.883  17.705  0.00  0.00     0.301 A 
ATOM      4  S   UNL d   1     -38.806  15.146  18.774  0.00  0.00    -0.019 SA
ATOM      5  N   UNL d   1     -39.880  14.379  18.911  0.00  0.00    -0.147 NA
ATOM      6  N   UNL d   1     -39.286  15.846  17.521  0.00  0.00    -0.121 NA
ATOM      7  C   UNL d   1     -39.156  14.565  19.236  0.00  0.00     0.163 A 
ATOM      8  N   UNL d   1     -39.899  15.895  16.985  0.00  0.00    -0.141 NA
ATOM      9  C   UNL d   1     -40.563  15.415  17.076  0.00  0.00     0.161 A 
ATOM     10  O   UNL d   1     -41.277  14.406  17.796  0.00  0.00    -0.263 OA
ATOM     11  C   UNL d   1     -41.189  15.458  16.537  0.00  0.00     0.028 C 
ENDROOT
BRANCH   7  12
ATOM     12  S   UNL d   1     -38.828  14.226  19.917  0.00  0.00    -0.059 SA
BRANCH  12  13
ATOM     13  C   UNL d   1     -39.118  14.436  20.657  0.00  0.00     0.038 C 
BRANCH  13  14
ATOM     14  C   UNL d   1     -38.799  14.032  21.298  0.00  0.00     0.017 A 
ATOM     15  C   UNL d   1     -39.015  14.240  22.069  0.00  0.00     0.058 A 
ATOM     16 CL   UNL d   1     -39.550  14.852  22.195  0.00  0.00    -0.082 Cl
ATOM     17  C   UNL d   1     -38.703  13.844  22.709  0.00  0.00     0.011 A 
ATOM     18  C   UNL d   1     -38.161  13.224  22.591  0.00  0.00     0.001 A 
ATOM     19  C   UNL d   1     -37.942  13.012  21.832  0.00  0.00     0.000 A 
ATOM     20  C   UNL d   1     -38.257  13.411  21.180  0.00  0.00     0.001 A 
ENDBRANCH  13  14
ENDBRANCH  12  13
ENDBRANCH   7  12
TORSDOF 3
ENDMDL
MODEL 5
REMARK VINA RESULT:      -5.7      9.311     10.499
REMARK  3 active torsions:
REMARK  status: ('A' for Active; 'I' for Inactive)
REMARK    1  A    between atoms: S_10  and  C_7 
REMARK    2  A    between atoms: C_13  and  S_10 
REMARK    3  A    between atoms: C_12  and  C_13 
ROOT
ATOM      1  N   UNL d   1     -38.983  14.622  17.005  0.00  0.00    -0.167 N 
ATOM      2  C   UNL d   1     -39.025  15.408  16.776  0.00  0.00     0.220 A 
ATOM      3  C   UNL d   1     -38.619  14.055  16.517  0.00  0.00     0.301 A 
ATOM      4  S   UNL d   1     -39.413  15.824  17.371  0.00  0.00    -0.019 SA
ATOM      5  N   UNL d   1     -39.340  14.552  17.736  0.00  0.00    -0.147 NA
ATOM      6  N   UNL d   1     -38.701  15.637  16.048  0.00  0.00    -0.121 NA
ATOM      7  C   UNL d   1     -39.605  15.289  17.962  0.00  0.00     0.163 A 
ATOM      8  N   UNL d   1     -38.342  15.088  15.562  0.00  0.00    -0.141 NA
ATOM      9  C   UNL d   1     -38.301  14.299  15.796  0.00  0.00     0.161 A 
ATOM     10  O   UNL d   1     -38.578  13.269  16.750  0.00  0.00    -0.263 OA
ATOM     11  C   UNL d   1     -37.940  13.736  15.310  0.00  0.00     0.028 C 
ENDROOT
BRANCH   7  12
ATOM     12  S   UNL d   1     -40.000  15.468  18.667  0.00  0.00    -0.059 SA
BRANCH  12  13
ATOM     13  C   UNL d   1     -39.569  15.599  19.354  0.00  0.00     0.038 C 
BRANCH  13  14
ATOM     14  C   UNL d   1     -40.008  15.701  20.041  0.00  0.00     0.017 A 
ATOM     15  C   UNL d   1     -39.633  15.685  20.780  0.00  0.00     0.058 A 
ATOM     16 CL   UNL d   1     -38.820  15.567  20.825  0.00  0.00    -0.082 Cl
ATOM     17  C   UNL d   1     -40.061  15.785  21.466  0.00  0.00     0.011 A 
ATOM     18  C   UNL d   1     -40.883  15.905  21.429  0.00  0.00     0.001 A 
ATOM     19  C   UNL d   1     -41.262  15.922  20.704  0.00  0.00     0.000 A 
ATOM     20  C   UNL d   1     -40.831  15.821  20.006  0.00  0.00     0.001 A 
ENDBRANCH  13  14
ENDBRANCH  12  13
ENDBRANCH   7  12
TORSDOF 3
ENDMDL
MODEL 6
REMARK VINA RESULT:      -5.6      9.050      9.322
REMARK  3 active torsions:
REMARK  status: ('A' for Active; 'I' for Inactive)
REMARK    1  A    between atoms: S_10  and  C_7 
REMARK    2  A    between atoms: C_13  and  S_10 
REMARK    3  A    between atoms: C_12  and  C_13 
ROOT
ATOM      1  N   UNL d   1     -39.353  14.647  21.609  0.00  0.00    -0.167 N 
ATOM      2  C   UNL d   1     -39.323  15.461  21.711  0.00  0.00     0.220 A 
ATOM      3  C   UNL d   1     -39.067  14.133  22.198  0.00  0.00     0.301 A 
ATOM      4  S   UNL d   1     -39.644  15.812  21.040  0.00  0.00    -0.019 SA
ATOM      5  N   UNL d   1     -39.690  14.496  20.881  0.00  0.00    -0.147 NA
ATOM      6  N   UNL d   1     -39.003  15.771  22.411  0.00  0.00    -0.121 NA
ATOM      7  C   UNL d   1     -39.869  15.209  20.530  0.00  0.00     0.163 A 
ATOM      8  N   UNL d   1     -38.720  15.275  22.993  0.00  0.00    -0.141 NA
ATOM      9  C   UNL d   1     -38.752  14.458  22.887  0.00  0.00     0.161 A 
ATOM     10  O   UNL d   1     -39.098  13.321  22.092  0.00  0.00    -0.263 OA
ATOM     11  C   UNL d   1     -38.468  13.948  23.473  0.00  0.00     0.028 C 
ENDROOT
BRANCH   7  12
ATOM     12  S   UNL d   1     -40.218  15.310  19.786  0.00  0.00    -0.059 SA
BRANCH  12  13
ATOM     13  C   UNL d   1     -39.906  14.922  19.133  0.00  0.00     0.038 C 
BRANCH  13  14
ATOM     14  C   UNL d   1     -40.251  15.100  18.408  0.00  0.00     0.017 A 
ATOM     15  C   UNL d   1     -40.090  14.631  17.746  0.00  0.00     0.058 A 
ATOM     16 CL   UNL d   1     -39.585  13.984  17.813  0.00  0.00    -0.082 Cl
ATOM     17  C   UNL d   1     -40.428  14.801  17.024  0.00  0.00     0.011 A 
ATOM     18  C   UNL d   1     -40.939  15.453  16.948  0.00  0.00     0.001 A 
ATOM     19  C   UNL d   1     -41.103  15.922  17.597  0.00  0.00     0.000 A 
ATOM     20  C   UNL d   1     -40.763  15.752  18.331  0.00  0.00     0.001 A 
ENDBRANCH  13  14
ENDBRANCH  12  13
ENDBRANCH   7  12
TORSDOF 3
ENDMDL
MODEL 7
REMARK VINA RESULT:      -5.5      2.180      4.788
REMARK  3 active torsions:
REMARK  status: ('A' for Active; 'I' for Inactive)
REMARK    1  A    between atoms: S_10  and  C_7 
REMARK    2  A    between atoms: C_13  and  S_10 
REMARK    3  A    between atoms: C_12  and  C_13 
ROOT
ATOM      1  N   UNL d   1     -48.881  12.408  22.636  0.00  0.00    -0.167 N 
ATOM      2  C   UNL d   1     -49.201  12.013  23.279  0.00  0.00     0.220 A 
ATOM      3  C   UNL d   1     -49.365  12.854  22.126  0.00  0.00     0.301 A 
ATOM      4  S   UNL d   1     -48.588  11.627  23.670  0.00  0.00    -0.019 SA
ATOM      5  N   UNL d   1     -48.076  12.268  22.627  0.00  0.00    -0.147 NA
ATOM      6  N   UNL d   1     -50.017  12.060  23.421  0.00  0.00    -0.121 NA
ATOM      7  C   UNL d   1     -47.895  11.790  23.261  0.00  0.00     0.163 A 
ATOM      8  N   UNL d   1     -50.499  12.495  22.927  0.00  0.00    -0.141 NA
ATOM      9  C   UNL d   1     -50.174  12.891  22.281  0.00  0.00     0.161 A 
ATOM     10  O   UNL d   1     -49.041  13.247  21.483  0.00  0.00    -0.263 OA
ATOM     11  C   UNL d   1     -50.655  13.333  21.775  0.00  0.00     0.028 C 
ENDROOT
BRANCH   7  12
ATOM     12  S   UNL d   1     -47.140  11.513  23.460  0.00  0.00    -0.059 SA
BRANCH  12  13
ATOM     13  C   UNL d   1     -46.476  11.937  23.227  0.00  0.00     0.038 C 
BRANCH  13  14
ATOM     14  C   UNL d   1     -45.759  11.539  23.273  0.00  0.00     0.017 A 
ATOM     15  C   UNL d   1     -45.077  11.870  22.939  0.00  0.00     0.058 A 
ATOM     16 CL   UNL d   1     -45.118  12.599  22.561  0.00  0.00    -0.082 Cl
ATOM     17  C   UNL d   1     -44.363  11.481  22.981  0.00  0.00     0.011 A 
ATOM     18  C   UNL d   1     -44.312  10.743  23.362  0.00  0.00     0.001 A 
ATOM     19  C   UNL d   1     -44.981  10.409  23.695  0.00  0.00     0.000 A 
ATOM     20  C   UNL d   1     -45.707  10.800  23.654  0.00  0.00     0.001 A 
ENDBRANCH  13  14
ENDBRANCH  12  13
ENDBRANCH   7  12
TORSDOF 3
ENDMDL
