MODEL 1
REMARK VINA RESULT:      -1.0      0.000      0.000
REMARK  4 active torsions:
REMARK  status: ('A' for Active; 'I' for Inactive)
REMARK    1  A    between atoms: N_6  and  C_1 
REMARK    2  A    between atoms: C_10  and  C_2 
REMARK       I    between atoms: C_9  and  N_6 
REMARK    3  A    between atoms: C_11  and  C_9 
REMARK    4  A    between atoms: O_20  and  C_10 
ROOT
ATOM      1  C   UNL d   1      32.920  21.011 -22.233  0.00  0.00     0.119 A 
ATOM      2  C   UNL d   1      32.785  21.822 -22.298  0.00  0.00     0.087 A 
ATOM      3  C   UNL d   1      32.847  22.145 -21.547  0.00  0.00     0.008 A 
ATOM      4  C   UNL d   1      33.018  21.549 -21.020  0.00  0.00     0.028 A 
ATOM      5  S   UNL d   1      33.065  20.838 -21.439  0.00  0.00    -0.070 SA
ATOM      6  C   UNL d   1      33.113  21.713 -20.212  0.00  0.00     0.104 A 
ATOM      7  N   UNL d   1      33.033  22.487 -19.943  0.00  0.00    -0.294 NA
ATOM      8  C   UNL d   1      32.860  23.093 -20.479  0.00  0.00     0.099 A 
ATOM      9  C   UNL d   1      32.766  22.925 -21.284  0.00  0.00    -0.004 A 
ATOM     10  C   UNL d   1      33.239  21.680 -19.396  0.00  0.00     0.029 C 
ATOM     11  C   UNL d   1      33.229  20.900 -20.274  0.00  0.00     0.029 C 
ATOM     12  C   UNL d   1      32.687  23.699 -21.015  0.00  0.00     0.029 C 
ATOM     13  C   UNL d   1      32.952  23.267 -19.680  0.00  0.00     0.029 C 
ENDROOT
BRANCH   1  14
ATOM     14  N   UNL d   1      32.913  20.462 -22.852  0.00  0.00    -0.200 NA
ATOM     15  C   UNL d   1      32.909  19.654 -22.687  0.00  0.00     0.302 C 
ATOM     16  O   UNL d   1      32.914  19.394 -21.904  0.00  0.00    -0.263 OA
BRANCH  15  17
ATOM     17  C   UNL d   1      32.902  19.108 -23.302  0.00  0.00     0.158 A 
ATOM     18  O   UNL d   1      32.953  19.275 -24.103  0.00  0.00    -0.300 OA
ATOM     19  C   UNL d   1      32.923  18.546 -24.518  0.00  0.00     0.123 A 
ATOM     20  C   UNL d   1      32.855  17.948 -23.969  0.00  0.00     0.029 A 
ATOM     21  C   UNL d   1      32.840  18.276 -23.205  0.00  0.00     0.032 A 
ENDBRANCH  15  17
ENDBRANCH   1  14
BRANCH   2  22
ATOM     22  C   UNL d   1      32.620  22.219 -22.995  0.00  0.00     0.298 C 
ATOM     23  O   UNL d   1      31.838  22.433 -23.159  0.00  0.00    -0.259 OA
BRANCH  22  24
ATOM     24  O   UNL d   1      33.230  22.405 -23.531  0.00  0.00    -0.296 OA
ATOM     25  C   UNL d   1      33.061  22.832 -24.213  0.00  0.00     0.185 C 
ENDBRANCH  22  24
ENDBRANCH   2  22
TORSDOF 4
ENDMDL
MODEL 2
REMARK VINA RESULT:       1.9      1.153      4.116
REMARK  4 active torsions:
REMARK  status: ('A' for Active; 'I' for Inactive)
REMARK    1  A    between atoms: N_6  and  C_1 
REMARK    2  A    between atoms: C_10  and  C_2 
REMARK       I    between atoms: C_9  and  N_6 
REMARK    3  A    between atoms: C_11  and  C_9 
REMARK    4  A    between atoms: O_20  and  C_10 
ROOT
ATOM      1  C   UNL d   1      32.944  20.363 -22.628  0.00  0.00     0.119 A 
ATOM      2  C   UNL d   1      32.797  20.250 -23.431  0.00  0.00     0.087 A 
ATOM      3  C   UNL d   1      32.849  19.445 -23.581  0.00  0.00     0.008 A 
ATOM      4  C   UNL d   1      33.025  19.060 -22.886  0.00  0.00     0.028 A 
ATOM      5  S   UNL d   1      33.086  19.625 -22.285  0.00  0.00    -0.070 SA
ATOM      6  C   UNL d   1      33.111  18.236 -22.870  0.00  0.00     0.104 A 
ATOM      7  N   UNL d   1      33.018  17.803 -23.564  0.00  0.00    -0.294 NA
ATOM      8  C   UNL d   1      32.839  18.194 -24.270  0.00  0.00     0.099 A 
ATOM      9  C   UNL d   1      32.754  19.017 -24.283  0.00  0.00    -0.004 A 
ATOM     10  C   UNL d   1      33.233  17.446 -22.658  0.00  0.00     0.029 C 
ATOM     11  C   UNL d   1      33.241  18.474 -22.092  0.00  0.00     0.029 C 
ATOM     12  C   UNL d   1      32.661  18.585 -24.977  0.00  0.00     0.029 C 
ATOM     13  C   UNL d   1      32.923  17.376 -24.266  0.00  0.00     0.029 C 
ENDROOT
BRANCH   1  14
ATOM     14  N   UNL d   1      32.949  21.087 -22.229  0.00  0.00    -0.200 NA
ATOM     15  C   UNL d   1      32.659  21.137 -21.458  0.00  0.00     0.302 C 
ATOM     16  O   UNL d   1      32.363  20.462 -21.086  0.00  0.00    -0.263 OA
BRANCH  15  17
ATOM     17  C   UNL d   1      32.664  21.857 -21.061  0.00  0.00     0.158 A 
ATOM     18  O   UNL d   1      32.172  22.497 -21.205  0.00  0.00    -0.300 OA
ATOM     19  C   UNL d   1      32.381  23.105 -20.665  0.00  0.00     0.123 A 
ATOM     20  C   UNL d   1      32.992  22.831 -20.203  0.00  0.00     0.029 A 
ATOM     21  C   UNL d   1      33.185  22.055 -20.433  0.00  0.00     0.032 A 
ENDBRANCH  15  17
ENDBRANCH   1  14
BRANCH   2  22
ATOM     22  C   UNL d   1      32.631  20.844 -23.970  0.00  0.00     0.298 C 
ATOM     23  O   UNL d   1      31.846  20.965 -24.202  0.00  0.00    -0.259 OA
BRANCH  22  24
ATOM     24  O   UNL d   1      33.241  21.318 -24.279  0.00  0.00    -0.296 OA
ATOM     25  C   UNL d   1      33.060  21.949 -24.774  0.00  0.00     0.185 C 
ENDBRANCH  22  24
ENDBRANCH   2  22
TORSDOF 4
ENDMDL
