MODEL 1
REMARK VINA RESULT:      14.1      0.000      0.000
REMARK  4 active torsions:
REMARK  status: ('A' for Active; 'I' for Inactive)
REMARK    1  A    between atoms: N_2  and  C_1 
REMARK    2  A    between atoms: C_4  and  C_1 
REMARK    3  A    between atoms: C_6  and  N_2 
REMARK    4  A    between atoms: O_12  and  C_7 
ROOT
ATOM      1  N   UNL d   1      13.868  12.896  -2.554  0.00  0.00    -0.235 NA
ENDROOT
BRANCH   1   2
ATOM      2  C   UNL d   1      13.784  12.350  -1.940  0.00  0.00     0.136 C 
ATOM      3  S   UNL d   1      13.179  11.782  -1.960  0.00  0.00    -0.057 SA
BRANCH   2   4
ATOM      4  C   UNL d   1      14.309  12.367  -1.295  0.00  0.00     0.031 A 
ATOM      5  C   UNL d   1      14.909  12.948  -1.263  0.00  0.00     0.023 A 
ATOM      6  C   UNL d   1      15.431  12.967  -0.625  0.00  0.00     0.099 A 
ATOM      7  N   UNL d   1      15.355  12.408  -0.019  0.00  0.00    -0.242 NA
ATOM      8  C   UNL d   1      14.761  11.833  -0.050  0.00  0.00     0.099 A 
ATOM      9  C   UNL d   1      14.238  11.813  -0.688  0.00  0.00     0.023 A 
ENDBRANCH   2   4
ENDBRANCH   1   2
BRANCH   1  10
ATOM     10  C   UNL d   1      13.609  12.698  -3.311  0.00  0.00     0.082 A 
ATOM     11  C   UNL d   1      13.861  11.987  -3.649  0.00  0.00     0.021 A 
ATOM     12  C   UNL d   1      13.604  11.782  -4.410  0.00  0.00     0.026 A 
ATOM     13  C   UNL d   1      13.101  12.286  -4.825  0.00  0.00     0.094 A 
ATOM     14  C   UNL d   1      12.852  12.999  -4.479  0.00  0.00     0.026 A 
ATOM     15  C   UNL d   1      13.108  13.201  -3.723  0.00  0.00     0.021 A 
BRANCH  13  16
ATOM     16  O   UNL d   1      12.846  12.080  -5.583  0.00  0.00    -0.328 OA
ATOM     17  C   UNL d   1      13.398  11.868  -6.161  0.00  0.00     0.181 C 
ENDBRANCH  13  16
ENDBRANCH   1  10
TORSDOF 4
ENDMDL
MODEL 2
REMARK VINA RESULT:      14.3      1.004      1.429
REMARK  4 active torsions:
REMARK  status: ('A' for Active; 'I' for Inactive)
REMARK    1  A    between atoms: N_2  and  C_1 
REMARK    2  A    between atoms: C_4  and  C_1 
REMARK    3  A    between atoms: C_6  and  N_2 
REMARK    4  A    between atoms: O_12  and  C_7 
ROOT
ATOM      1  N   UNL d   1      14.522  11.780  -1.724  0.00  0.00    -0.235 NA
ENDROOT
BRANCH   1   2
ATOM      2  C   UNL d   1      14.230  12.115  -1.028  0.00  0.00     0.136 C 
ATOM      3  S   UNL d   1      13.554  11.803  -0.661  0.00  0.00    -0.057 SA
BRANCH   2   4
ATOM      4  C   UNL d   1      14.615  12.770  -0.690  0.00  0.00     0.031 A 
ATOM      5  C   UNL d   1      14.165  13.395  -0.367  0.00  0.00     0.023 A 
ATOM      6  C   UNL d   1      14.545  14.047  -0.031  0.00  0.00     0.099 A 
ATOM      7  N   UNL d   1      15.373  14.074  -0.019  0.00  0.00    -0.242 NA
ATOM      8  C   UNL d   1      15.818  13.455  -0.339  0.00  0.00     0.099 A 
ATOM      9  C   UNL d   1      15.440  12.803  -0.675  0.00  0.00     0.023 A 
ENDBRANCH   2   4
ENDBRANCH   1   2
BRANCH   1  10
ATOM     10  C   UNL d   1      14.090  11.855  -2.422  0.00  0.00     0.082 A 
ATOM     11  C   UNL d   1      13.264  11.841  -2.388  0.00  0.00     0.021 A 
ATOM     12  C   UNL d   1      12.824  11.916  -3.086  0.00  0.00     0.026 A 
ATOM     13  C   UNL d   1      13.209  12.005  -3.809  0.00  0.00     0.094 A 
ATOM     14  C   UNL d   1      14.040  12.018  -3.836  0.00  0.00     0.026 A 
ATOM     15  C   UNL d   1      14.476  11.943  -3.142  0.00  0.00     0.021 A 
BRANCH  13  16
ATOM     16  O   UNL d   1      12.770  12.080  -4.503  0.00  0.00    -0.328 OA
ATOM     17  C   UNL d   1      13.108  11.882  -5.231  0.00  0.00     0.181 C 
ENDBRANCH  13  16
ENDBRANCH   1  10
TORSDOF 4
ENDMDL
