MODEL 1
REMARK VINA RESULT:       8.0      0.000      0.000
REMARK  2 active torsions:
REMARK  status: ('A' for Active; 'I' for Inactive)
REMARK       I    between atoms: N_2  and  C_1 
REMARK       I    between atoms: N_3  and  C_1 
REMARK    1  A    between atoms: C_6  and  N_2 
REMARK    2  A    between atoms: C_5  and  N_3 
ROOT
ATOM      1  C   UNL d   1      24.483  12.168  -2.122  0.00  0.00     0.369 C 
ATOM      2  N   UNL d   1      24.690  11.791  -2.811  0.00  0.00    -0.191 NA
ATOM      3  N   UNL d   1      24.300  12.957  -2.132  0.00  0.00    -0.191 NA
ATOM      4  O   UNL d   1      24.442  11.781  -1.359  0.00  0.00    -0.242 OA
ENDROOT
BRANCH   2   5
ATOM      5  C   UNL d   1      24.712  12.212  -3.509  0.00  0.00     0.086 A 
ATOM      6  C   UNL d   1      24.705  11.817  -4.227  0.00  0.00     0.019 A 
ATOM      7  C   UNL d   1      24.727  12.227  -4.949  0.00  0.00     0.002 A 
ATOM      8  C   UNL d   1      24.756  13.062  -4.940  0.00  0.00     0.000 A 
ATOM      9  C   UNL d   1      24.763  13.460  -4.209  0.00  0.00     0.002 A 
ATOM     10  C   UNL d   1      24.741  13.038  -3.500  0.00  0.00     0.019 A 
ENDBRANCH   2   5
BRANCH   3  11
ATOM     11  C   UNL d   1      24.093  13.338  -1.444  0.00  0.00     0.086 A 
ATOM     12  C   UNL d   1      24.649  13.783  -1.039  0.00  0.00     0.019 A 
ATOM     13  C   UNL d   1      24.447  14.174  -0.340  0.00  0.00     0.002 A 
ATOM     14  C   UNL d   1      23.669  14.114  -0.045  0.00  0.00     0.000 A 
ATOM     15  C   UNL d   1      23.111  13.665  -0.455  0.00  0.00     0.002 A 
ATOM     16  C   UNL d   1      23.324  13.279  -1.152  0.00  0.00     0.019 A 
ENDBRANCH   3  11
TORSDOF 2
ENDMDL
