MODEL 1
REMARK VINA RESULT:      24.9      0.000      0.000
REMARK  1 active torsions:
REMARK  status: ('A' for Active; 'I' for Inactive)
REMARK    1  A    between atoms: C_9  and  C_5 
ROOT
ATOM      1  C   UNL d   1      58.860  49.702  50.599  0.00  0.00     0.062 A 
ATOM      2  C   UNL d   1      58.511  49.704  49.869  0.00  0.00     0.197 A 
ATOM      3  C   UNL d   1      58.365  49.701  51.291  0.00  0.00     0.044 A 
ATOM      4  C   UNL d   1      59.691  49.703  50.657  0.00  0.00     0.112 A 
ATOM      5  C   UNL d   1      60.014  49.702  51.425  0.00  0.00     0.084 A 
ATOM      6  C   UNL d   1      57.544  49.700  51.221  0.00  0.00     0.196 A 
ATOM      7  C   UNL d   1      57.665  49.703  49.781  0.00  0.00     0.042 A 
ATOM      8  C   UNL d   1      57.188  49.701  50.448  0.00  0.00     0.042 A 
ATOM      9  C   UNL d   1      58.698  49.699  52.046  0.00  0.00     0.004 A 
ATOM     10  C   UNL d   1      59.498  49.700  52.146  0.00  0.00     0.008 A 
ATOM     11  O   UNL d   1      59.005  49.706  49.177  0.00  0.00    -0.286 OA
ATOM     12  O   UNL d   1      57.045  49.698  51.918  0.00  0.00    -0.287 OA
ATOM     13  N   UNL d   1      60.159  49.705  50.003  0.00  0.00    -0.148 N 
ATOM     14  C   UNL d   1      57.333  49.704  49.027  0.00  0.00     0.003 A 
ATOM     15  C   UNL d   1      56.366  49.701  50.379  0.00  0.00     0.003 A 
ATOM     16  C   UNL d   1      56.528  49.704  48.932  0.00  0.00     0.000 A 
ATOM     17  C   UNL d   1      56.033  49.702  49.623  0.00  0.00     0.000 A 
ENDROOT
BRANCH   5  18
ATOM     18  C   UNL d   1      60.831  49.703  51.464  0.00  0.00     0.212 C 
ATOM     19  O   UNL d   1      61.166  49.702  52.202  0.00  0.00    -0.644 OA
ATOM     20  O   UNL d   1      61.281  49.704  50.759  0.00  0.00    -0.644 OA
ENDBRANCH   5  18
TORSDOF 1
ENDMDL
