MODEL 1
REMARK VINA RESULT:      14.9      0.000      0.000
REMARK  2 active torsions:
REMARK  status: ('A' for Active; 'I' for Inactive)
REMARK    1  A    between atoms: C_5  and  C_1 
REMARK    2  A    between atoms: O_15  and  C_12 
ROOT
ATOM      1  C   UNL d   1      59.417  49.687  50.758  0.00  0.00     0.042 A 
ATOM      2  C   UNL d   1      59.612  49.695  51.562  0.00  0.00     0.045 A 
ATOM      3  C   UNL d   1      60.013  49.685  50.188  0.00  0.00     0.196 A 
ATOM      4  C   UNL d   1      60.804  49.691  50.420  0.00  0.00     0.045 A 
ATOM      5  C   UNL d   1      60.404  49.700  51.794  0.00  0.00     0.196 A 
ATOM      6  C   UNL d   1      61.000  49.698  51.224  0.00  0.00     0.045 A 
ATOM      7  O   UNL d   1      59.817  49.678  49.385  0.00  0.00    -0.287 OA
ATOM      8  O   UNL d   1      60.599  49.708  52.597  0.00  0.00    -0.287 OA
ENDROOT
BRANCH   1   9
ATOM      9  C   UNL d   1      58.625  49.682  50.526  0.00  0.00     0.003 A 
ATOM     10  C   UNL d   1      58.031  49.659  51.104  0.00  0.00     0.002 A 
ATOM     11  C   UNL d   1      57.241  49.654  50.875  0.00  0.00     0.024 A 
ATOM     12  C   UNL d   1      57.037  49.671  50.074  0.00  0.00     0.094 A 
ATOM     13  C   UNL d   1      57.640  49.694  49.498  0.00  0.00     0.024 A 
ATOM     14  C   UNL d   1      58.431  49.700  49.730  0.00  0.00     0.002 A 
BRANCH  12  15
ATOM     15  O   UNL d   1      56.242  49.666  49.843  0.00  0.00    -0.328 OA
ATOM     16  C   UNL d   1      56.046  49.636  49.040  0.00  0.00     0.181 C 
ENDBRANCH  12  15
ENDBRANCH   1   9
TORSDOF 2
ENDMDL
MODEL 2
REMARK VINA RESULT:      16.5      0.790      3.385
REMARK  2 active torsions:
REMARK  status: ('A' for Active; 'I' for Inactive)
REMARK    1  A    between atoms: C_5  and  C_1 
REMARK    2  A    between atoms: O_15  and  C_12 
ROOT
ATOM      1  C   UNL d   1      58.053  49.694  50.299  0.00  0.00     0.042 A 
ATOM      2  C   UNL d   1      57.457  49.686  50.871  0.00  0.00     0.045 A 
ATOM      3  C   UNL d   1      57.857  49.698  49.498  0.00  0.00     0.196 A 
ATOM      4  C   UNL d   1      57.064  49.695  49.269  0.00  0.00     0.045 A 
ATOM      5  C   UNL d   1      56.664  49.683  50.643  0.00  0.00     0.196 A 
ATOM      6  C   UNL d   1      56.468  49.687  49.841  0.00  0.00     0.045 A 
ATOM      7  O   UNL d   1      58.453  49.706  48.925  0.00  0.00    -0.287 OA
ATOM      8  O   UNL d   1      56.068  49.675  51.215  0.00  0.00    -0.287 OA
ENDROOT
BRANCH   1   9
ATOM      9  C   UNL d   1      58.846  49.697  50.528  0.00  0.00     0.003 A 
ATOM     10  C   UNL d   1      59.036  49.702  51.334  0.00  0.00     0.002 A 
ATOM     11  C   UNL d   1      59.826  49.705  51.566  0.00  0.00     0.024 A 
ATOM     12  C   UNL d   1      60.428  49.704  50.999  0.00  0.00     0.094 A 
ATOM     13  C   UNL d   1      60.229  49.699  50.189  0.00  0.00     0.024 A 
ATOM     14  C   UNL d   1      59.436  49.696  49.960  0.00  0.00     0.002 A 
BRANCH  12  15
ATOM     15  O   UNL d   1      61.223  49.707  51.231  0.00  0.00    -0.328 OA
ATOM     16  C   UNL d   1      61.420  49.632  52.031  0.00  0.00     0.181 C 
ENDBRANCH  12  15
ENDBRANCH   1   9
TORSDOF 2
ENDMDL
MODEL 3
REMARK VINA RESULT:      17.8      0.633      1.247
REMARK  2 active torsions:
REMARK  status: ('A' for Active; 'I' for Inactive)
REMARK    1  A    between atoms: C_5  and  C_1 
REMARK    2  A    between atoms: O_15  and  C_12 
ROOT
ATOM      1  C   UNL d   1      59.573  49.684  50.870  0.00  0.00     0.042 A 
ATOM      2  C   UNL d   1      60.190  49.682  50.320  0.00  0.00     0.045 A 
ATOM      3  C   UNL d   1      59.741  49.684  51.678  0.00  0.00     0.196 A 
ATOM      4  C   UNL d   1      60.525  49.681  51.936  0.00  0.00     0.045 A 
ATOM      5  C   UNL d   1      60.974  49.679  50.577  0.00  0.00     0.196 A 
ATOM      6  C   UNL d   1      61.141  49.679  51.385  0.00  0.00     0.045 A 
ATOM      7  O   UNL d   1      59.124  49.686  52.229  0.00  0.00    -0.287 OA
ATOM      8  O   UNL d   1      61.591  49.677  50.026  0.00  0.00    -0.287 OA
ENDROOT
BRANCH   1   9
ATOM      9  C   UNL d   1      58.790  49.687  50.613  0.00  0.00     0.003 A 
ATOM     10  C   UNL d   1      58.177  49.673  51.172  0.00  0.00     0.002 A 
ATOM     11  C   UNL d   1      57.395  49.675  50.918  0.00  0.00     0.024 A 
ATOM     12  C   UNL d   1      57.217  49.692  50.111  0.00  0.00     0.094 A 
ATOM     13  C   UNL d   1      57.838  49.707  49.554  0.00  0.00     0.024 A 
ATOM     14  C   UNL d   1      58.621  49.704  49.812  0.00  0.00     0.002 A 
BRANCH  12  15
ATOM     15  O   UNL d   1      56.429  49.695  49.854  0.00  0.00    -0.328 OA
ATOM     16  C   UNL d   1      56.259  49.676  49.045  0.00  0.00     0.181 C 
ENDBRANCH  12  15
ENDBRANCH   1   9
TORSDOF 2
ENDMDL
