MODEL 1
REMARK VINA RESULT:      -4.6      0.000      0.000
REMARK  6 active torsions:
REMARK  status: ('A' for Active; 'I' for Inactive)
REMARK    1  A    between atoms: N_2  and  S_1 
REMARK    2  A    between atoms: C_3  and  S_1 
REMARK    3  A    between atoms: C_6  and  N_2 
REMARK    4  A    between atoms: C_12  and  C_6 
REMARK    5  A    between atoms: O_10  and  C_11 
REMARK    6  A    between atoms: C_15  and  O_10 
ROOT
ATOM      1  C   UNL d   1      57.967   0.086  30.123  0.00  0.00     0.105 A 
ATOM      2  C   UNL d   1      57.492  -0.508  30.448  0.00  0.00     0.015 A 
ATOM      3  C   UNL d   1      58.274   0.682  30.617  0.00  0.00     0.015 A 
ATOM      4  C   UNL d   1      57.627   0.077  31.735  0.00  0.00     0.100 A 
ATOM      5  C   UNL d   1      58.103   0.675  31.421  0.00  0.00     0.025 A 
ATOM      6  C   UNL d   1      57.323  -0.512  31.251  0.00  0.00     0.025 A 
ENDROOT
BRANCH   1   7
ATOM      7  S   UNL d   1      58.140   0.095  29.317  0.00  0.00     0.285 S 
ATOM      8  O   UNL d   1      57.561   0.669  29.203  0.00  0.00    -0.198 OA
ATOM      9  O   UNL d   1      58.311   0.107  28.512  0.00  0.00    -0.198 OA
BRANCH   7  10
ATOM     10  N   UNL d   1      58.726  -0.484  29.432  0.00  0.00    -0.155 NA
BRANCH  10  11
ATOM     11  C   UNL d   1      59.206  -0.714  28.796  0.00  0.00     0.137 C 
BRANCH  11  12
ATOM     12  C   UNL d   1      59.756  -1.325  28.901  0.00  0.00     0.120 A 
ATOM     13  O   UNL d   1      60.535  -1.252  29.173  0.00  0.00    -0.304 OA
ATOM     14  C   UNL d   1      60.869  -2.006  29.186  0.00  0.00     0.123 A 
ATOM     15  C   UNL d   1      60.308  -2.542  28.926  0.00  0.00     0.029 A 
ATOM     16  C   UNL d   1      59.619  -2.126  28.748  0.00  0.00     0.028 A 
ENDBRANCH  11  12
ENDBRANCH  10  11
ENDBRANCH   7  10
ENDBRANCH   1   7
BRANCH   4  17
ATOM     17  O   UNL d   1      57.454   0.070  32.549  0.00  0.00    -0.307 OA
BRANCH  17  18
ATOM     18  C   UNL d   1      56.666   0.003  32.799  0.00  0.00     0.100 A 
ATOM     19  C   UNL d   1      56.194   0.681  32.895  0.00  0.00     0.025 A 
ATOM     20  C   UNL d   1      55.411   0.607  33.144  0.00  0.00     0.002 A 
ATOM     21  C   UNL d   1      55.098  -0.140  33.299  0.00  0.00     0.000 A 
ATOM     22  C   UNL d   1      55.570  -0.818  33.203  0.00  0.00     0.002 A 
ATOM     23  C   UNL d   1      56.353  -0.745  32.954  0.00  0.00     0.025 A 
ENDBRANCH  17  18
ENDBRANCH   4  17
TORSDOF 6
ENDMDL
MODEL 2
REMARK VINA RESULT:      -3.9      1.113      1.704
REMARK  6 active torsions:
REMARK  status: ('A' for Active; 'I' for Inactive)
REMARK    1  A    between atoms: N_2  and  S_1 
REMARK    2  A    between atoms: C_3  and  S_1 
REMARK    3  A    between atoms: C_6  and  N_2 
REMARK    4  A    between atoms: C_12  and  C_6 
REMARK    5  A    between atoms: O_10  and  C_11 
REMARK    6  A    between atoms: C_15  and  O_10 
ROOT
ATOM      1  C   UNL d   1      59.286   0.079  29.513  0.00  0.00     0.105 A 
ATOM      2  C   UNL d   1      58.530   0.149  29.184  0.00  0.00     0.015 A 
ATOM      3  C   UNL d   1      59.393   0.213  30.327  0.00  0.00     0.015 A 
ATOM      4  C   UNL d   1      57.998   0.478  30.458  0.00  0.00     0.100 A 
ATOM      5  C   UNL d   1      58.748   0.412  30.797  0.00  0.00     0.025 A 
ATOM      6  C   UNL d   1      57.888   0.347  29.656  0.00  0.00     0.025 A 
ENDROOT
BRANCH   1   7
ATOM      7  S   UNL d   1      59.935  -0.120  29.044  0.00  0.00     0.285 S 
ATOM      8  O   UNL d   1      60.147   0.674  29.006  0.00  0.00    -0.198 OA
ATOM      9  O   UNL d   1      60.583  -0.316  28.576  0.00  0.00    -0.198 OA
BRANCH   7  10
ATOM     10  N   UNL d   1      59.720  -0.923  29.082  0.00  0.00    -0.155 NA
BRANCH  10  11
ATOM     11  C   UNL d   1      60.231  -1.499  28.774  0.00  0.00     0.137 C 
BRANCH  11  12
ATOM     12  C   UNL d   1      60.027  -2.300  28.836  0.00  0.00     0.120 A 
ATOM     13  O   UNL d   1      59.349  -2.666  28.532  0.00  0.00    -0.304 OA
ATOM     14  C   UNL d   1      59.384  -3.466  28.730  0.00  0.00     0.123 A 
ATOM     15  C   UNL d   1      60.073  -3.599  29.152  0.00  0.00     0.029 A 
ATOM     16  C   UNL d   1      60.473  -2.881  29.220  0.00  0.00     0.028 A 
ENDBRANCH  11  12
ENDBRANCH  10  11
ENDBRANCH   7  10
ENDBRANCH   1   7
BRANCH   4  17
ATOM     17  O   UNL d   1      57.345   0.680  30.934  0.00  0.00    -0.307 OA
BRANCH  17  18
ATOM     18  C   UNL d   1      57.074   0.144  31.506  0.00  0.00     0.100 A 
ATOM     19  C   UNL d   1      56.943  -0.653  31.311  0.00  0.00     0.025 A 
ATOM     20  C   UNL d   1      56.673  -1.180  31.885  0.00  0.00     0.002 A 
ATOM     21  C   UNL d   1      56.535  -0.915  32.654  0.00  0.00     0.000 A 
ATOM     22  C   UNL d   1      56.667  -0.118  32.849  0.00  0.00     0.002 A 
ATOM     23  C   UNL d   1      56.936   0.410  32.275  0.00  0.00     0.025 A 
ENDBRANCH  17  18
ENDBRANCH   4  17
TORSDOF 6
ENDMDL
MODEL 3
REMARK VINA RESULT:      -2.3      1.548      5.066
REMARK  6 active torsions:
REMARK  status: ('A' for Active; 'I' for Inactive)
REMARK    1  A    between atoms: N_2  and  S_1 
REMARK    2  A    between atoms: C_3  and  S_1 
REMARK    3  A    between atoms: C_6  and  N_2 
REMARK    4  A    between atoms: C_12  and  C_6 
REMARK    5  A    between atoms: O_10  and  C_11 
REMARK    6  A    between atoms: C_15  and  O_10 
ROOT
ATOM      1  C   UNL d   1      57.652   0.166  32.106  0.00  0.00     0.105 A 
ATOM      2  C   UNL d   1      57.407  -0.599  31.908  0.00  0.00     0.015 A 
ATOM      3  C   UNL d   1      57.911   0.682  31.507  0.00  0.00     0.015 A 
ATOM      4  C   UNL d   1      57.675  -0.338  30.538  0.00  0.00     0.100 A 
ATOM      5  C   UNL d   1      57.922   0.428  30.724  0.00  0.00     0.025 A 
ATOM      6  C   UNL d   1      57.419  -0.850  31.127  0.00  0.00     0.025 A 
ENDROOT
BRANCH   1   7
ATOM      7  S   UNL d   1      57.643   0.424  32.890  0.00  0.00     0.285 S 
ATOM      8  O   UNL d   1      58.452   0.568  32.848  0.00  0.00    -0.198 OA
ATOM      9  O   UNL d   1      57.637   0.682  33.671  0.00  0.00    -0.198 OA
BRANCH   7  10
ATOM     10  N   UNL d   1      56.825   0.279  32.932  0.00  0.00    -0.155 NA
BRANCH  10  11
ATOM     11  C   UNL d   1      56.446   0.278  33.670  0.00  0.00     0.137 C 
BRANCH  11  12
ATOM     12  C   UNL d   1      55.634   0.436  33.711  0.00  0.00     0.120 A 
ATOM     13  O   UNL d   1      55.113   0.534  33.075  0.00  0.00    -0.304 OA
ATOM     14  C   UNL d   1      54.362   0.682  33.383  0.00  0.00     0.123 A 
ATOM     15  C   UNL d   1      54.413   0.676  34.200  0.00  0.00     0.029 A 
ATOM     16  C   UNL d   1      55.196   0.525  34.407  0.00  0.00     0.028 A 
ENDBRANCH  11  12
ENDBRANCH  10  11
ENDBRANCH   7  10
ENDBRANCH   1   7
BRANCH   4  17
ATOM     17  O   UNL d   1      57.686  -0.596  29.747  0.00  0.00    -0.307 OA
BRANCH  17  18
ATOM     18  C   UNL d   1      58.395  -0.867  29.414  0.00  0.00     0.100 A 
ATOM     19  C   UNL d   1      58.545  -1.681  29.343  0.00  0.00     0.025 A 
ATOM     20  C   UNL d   1      59.253  -1.943  29.011  0.00  0.00     0.002 A 
ATOM     21  C   UNL d   1      59.812  -1.396  28.749  0.00  0.00     0.000 A 
ATOM     22  C   UNL d   1      59.662  -0.582  28.819  0.00  0.00     0.002 A 
ATOM     23  C   UNL d   1      58.954  -0.319  29.151  0.00  0.00     0.025 A 
ENDBRANCH  17  18
ENDBRANCH   4  17
TORSDOF 6
ENDMDL
