MODEL 1
REMARK VINA RESULT:      -7.3      0.000      0.000
REMARK  4 active torsions:
REMARK  status: ('A' for Active; 'I' for Inactive)
REMARK    1  A    between atoms: N_4  and  C_1 
REMARK    2  A    between atoms: N_9  and  N_4 
REMARK    3  A    between atoms: C_8  and  C_7 
REMARK    4  A    between atoms: C_10  and  N_9 
ROOT
ATOM      1  N   UNL d   1      53.896  32.194  53.322  0.00  0.00    -0.146 NA
ENDROOT
BRANCH   1   2
ATOM      2  C   UNL d   1      53.258  31.686  53.198  0.00  0.00     0.122 A 
ATOM      3  C   UNL d   1      52.505  31.876  52.896  0.00  0.00     0.101 A 
ATOM      4  N   UNL d   1      52.048  31.222  52.865  0.00  0.00    -0.244 NA
ATOM      5  C   UNL d   1      52.264  32.599  52.669  0.00  0.00     0.022 C 
ATOM      6  C   UNL d   1      52.478  30.595  53.139  0.00  0.00     0.083 A 
ATOM      7  C   UNL d   1      53.252  30.876  53.356  0.00  0.00     0.039 A 
ATOM      8  C   UNL d   1      52.321  29.803  53.240  0.00  0.00     0.019 A 
ATOM      9  C   UNL d   1      53.827  30.343  53.663  0.00  0.00     0.003 A 
ATOM     10  C   UNL d   1      53.633  29.535  53.754  0.00  0.00     0.000 A 
ATOM     11  C   UNL d   1      52.877  29.287  53.537  0.00  0.00     0.002 A 
ENDBRANCH   1   2
BRANCH   1  12
ATOM     12  N   UNL d   1      53.942  32.642  54.025  0.00  0.00    -0.148 NA
BRANCH  12  13
ATOM     13  C   UNL d   1      54.606  33.116  54.218  0.00  0.00     0.109 A 
ATOM     14  C   UNL d   1      54.658  33.495  54.933  0.00  0.00     0.084 A 
ATOM     15  C   UNL d   1      55.319  33.958  55.110  0.00  0.00     0.008 A 
ATOM     16  C   UNL d   1      55.938  34.028  54.530  0.00  0.00     0.000 A 
ATOM     17  C   UNL d   1      55.863  33.626  53.794  0.00  0.00     0.002 A 
ATOM     18  C   UNL d   1      55.181  33.173  53.663  0.00  0.00     0.021 A 
BRANCH  14  19
ATOM     19  C   UNL d   1      54.057  33.419  55.481  0.00  0.00     0.212 C 
ATOM     20  O   UNL d   1      54.026  32.780  55.993  0.00  0.00    -0.644 OA
ATOM     21  O   UNL d   1      53.452  33.981  55.545  0.00  0.00    -0.644 OA
ENDBRANCH  14  19
ENDBRANCH  12  13
ENDBRANCH   1  12
TORSDOF 4
ENDMDL
MODEL 2
REMARK VINA RESULT:      -7.2      1.429      2.765
REMARK  4 active torsions:
REMARK  status: ('A' for Active; 'I' for Inactive)
REMARK    1  A    between atoms: N_4  and  C_1 
REMARK    2  A    between atoms: N_9  and  N_4 
REMARK    3  A    between atoms: C_8  and  C_7 
REMARK    4  A    between atoms: C_10  and  N_9 
ROOT
ATOM      1  N   UNL d   1      52.933  32.554  52.753  0.00  0.00    -0.146 NA
ENDROOT
BRANCH   1   2
ATOM      2  C   UNL d   1      53.388  31.958  53.098  0.00  0.00     0.122 A 
ATOM      3  C   UNL d   1      54.173  32.008  53.371  0.00  0.00     0.101 A 
ATOM      4  N   UNL d   1      54.408  31.304  53.666  0.00  0.00    -0.244 NA
ATOM      5  C   UNL d   1      54.633  32.656  53.348  0.00  0.00     0.022 C 
ATOM      6  C   UNL d   1      53.796  30.781  53.597  0.00  0.00     0.083 A 
ATOM      7  C   UNL d   1      53.138  31.184  53.235  0.00  0.00     0.039 A 
ATOM      8  C   UNL d   1      53.697  29.997  53.793  0.00  0.00     0.019 A 
ATOM      9  C   UNL d   1      52.416  30.775  53.091  0.00  0.00     0.003 A 
ATOM     10  C   UNL d   1      52.349  29.969  53.305  0.00  0.00     0.000 A 
ATOM     11  C   UNL d   1      52.999  29.602  53.653  0.00  0.00     0.002 A 
ENDBRANCH   1   2
BRANCH   1  12
ATOM     12  N   UNL d   1      52.674  33.200  53.215  0.00  0.00    -0.148 NA
BRANCH  12  13
ATOM     13  C   UNL d   1      52.032  33.689  52.990  0.00  0.00     0.109 A 
ATOM     14  C   UNL d   1      51.888  34.394  53.365  0.00  0.00     0.084 A 
ATOM     15  C   UNL d   1      51.252  34.865  53.133  0.00  0.00     0.008 A 
ATOM     16  C   UNL d   1      50.754  34.599  52.496  0.00  0.00     0.000 A 
ATOM     17  C   UNL d   1      50.921  33.864  52.120  0.00  0.00     0.002 A 
ATOM     18  C   UNL d   1      51.572  33.426  52.389  0.00  0.00     0.021 A 
BRANCH  14  19
ATOM     19  C   UNL d   1      52.374  34.638  53.975  0.00  0.00     0.212 C 
ATOM     20  O   UNL d   1      52.293  34.333  54.731  0.00  0.00    -0.644 OA
ATOM     21  O   UNL d   1      52.968  35.204  53.859  0.00  0.00    -0.644 OA
ENDBRANCH  14  19
ENDBRANCH  12  13
ENDBRANCH   1  12
TORSDOF 4
ENDMDL
MODEL 3
REMARK VINA RESULT:      -7.1      2.022      4.031
REMARK  4 active torsions:
REMARK  status: ('A' for Active; 'I' for Inactive)
REMARK    1  A    between atoms: N_4  and  C_1 
REMARK    2  A    between atoms: N_9  and  N_4 
REMARK    3  A    between atoms: C_8  and  C_7 
REMARK    4  A    between atoms: C_10  and  N_9 
ROOT
ATOM      1  N   UNL d   1      52.358  32.944  53.773  0.00  0.00    -0.146 NA
ENDROOT
BRANCH   1   2
ATOM      2  C   UNL d   1      53.149  32.737  53.887  0.00  0.00     0.122 A 
ATOM      3  C   UNL d   1      53.557  32.084  53.569  0.00  0.00     0.101 A 
ATOM      4  N   UNL d   1      54.316  32.087  53.818  0.00  0.00    -0.244 NA
ATOM      5  C   UNL d   1      53.249  31.532  53.088  0.00  0.00     0.022 C 
ATOM      6  C   UNL d   1      54.427  32.728  54.297  0.00  0.00     0.083 A 
ATOM      7  C   UNL d   1      53.690  33.153  54.351  0.00  0.00     0.039 A 
ATOM      8  C   UNL d   1      55.064  33.023  54.709  0.00  0.00     0.019 A 
ATOM      9  C   UNL d   1      53.636  33.853  54.816  0.00  0.00     0.003 A 
ATOM     10  C   UNL d   1      54.310  34.128  55.226  0.00  0.00     0.000 A 
ATOM     11  C   UNL d   1      55.011  33.700  55.159  0.00  0.00     0.002 A 
ENDBRANCH   1   2
BRANCH   1  12
ATOM     12  N   UNL d   1      52.138  33.399  53.108  0.00  0.00    -0.148 NA
BRANCH  12  13
ATOM     13  C   UNL d   1      51.365  33.703  53.003  0.00  0.00     0.109 A 
ATOM     14  C   UNL d   1      51.193  34.215  52.398  0.00  0.00     0.084 A 
ATOM     15  C   UNL d   1      50.426  34.507  52.306  0.00  0.00     0.008 A 
ATOM     16  C   UNL d   1      49.824  34.261  52.856  0.00  0.00     0.000 A 
ATOM     17  C   UNL d   1      50.024  33.729  53.477  0.00  0.00     0.002 A 
ATOM     18  C   UNL d   1      50.809  33.463  53.527  0.00  0.00     0.021 A 
BRANCH  14  19
ATOM     19  C   UNL d   1      51.779  34.444  51.877  0.00  0.00     0.212 C 
ATOM     20  O   UNL d   1      51.822  34.131  51.121  0.00  0.00    -0.644 OA
ATOM     21  O   UNL d   1      52.356  35.000  52.087  0.00  0.00    -0.644 OA
ENDBRANCH  14  19
ENDBRANCH  12  13
ENDBRANCH   1  12
TORSDOF 4
ENDMDL
MODEL 4
REMARK VINA RESULT:      -7.1      1.858      3.935
REMARK  4 active torsions:
REMARK  status: ('A' for Active; 'I' for Inactive)
REMARK    1  A    between atoms: N_4  and  C_1 
REMARK    2  A    between atoms: N_9  and  N_4 
REMARK    3  A    between atoms: C_8  and  C_7 
REMARK    4  A    between atoms: C_10  and  N_9 
ROOT
ATOM      1  N   UNL d   1      53.262  32.187  54.489  0.00  0.00    -0.146 NA
ENDROOT
BRANCH   1   2
ATOM      2  C   UNL d   1      53.381  32.983  54.307  0.00  0.00     0.122 A 
ATOM      3  C   UNL d   1      54.063  33.442  54.446  0.00  0.00     0.101 A 
ATOM      4  N   UNL d   1      53.950  34.188  54.185  0.00  0.00    -0.244 NA
ATOM      5  C   UNL d   1      54.733  33.187  54.788  0.00  0.00     0.022 C 
ATOM      6  C   UNL d   1      53.206  34.241  53.873  0.00  0.00     0.083 A 
ATOM      7  C   UNL d   1      52.831  33.479  53.943  0.00  0.00     0.039 A 
ATOM      8  C   UNL d   1      52.779  34.842  53.528  0.00  0.00     0.019 A 
ATOM      9  C   UNL d   1      52.046  33.364  53.663  0.00  0.00     0.003 A 
ATOM     10  C   UNL d   1      51.635  34.003  53.313  0.00  0.00     0.000 A 
ATOM     11  C   UNL d   1      52.019  34.730  53.257  0.00  0.00     0.002 A 
ENDBRANCH   1   2
BRANCH   1  12
ATOM     12  N   UNL d   1      53.421  31.600  53.918  0.00  0.00    -0.148 NA
BRANCH  12  13
ATOM     13  C   UNL d   1      53.346  30.780  54.077  0.00  0.00     0.109 A 
ATOM     14  C   UNL d   1      53.318  30.236  53.476  0.00  0.00     0.084 A 
ATOM     15  C   UNL d   1      53.244  29.432  53.648  0.00  0.00     0.008 A 
ATOM     16  C   UNL d   1      53.197  29.188  54.462  0.00  0.00     0.000 A 
ATOM     17  C   UNL d   1      53.228  29.770  55.070  0.00  0.00     0.002 A 
ATOM     18  C   UNL d   1      53.304  30.565  54.847  0.00  0.00     0.021 A 
BRANCH  14  19
ATOM     19  C   UNL d   1      53.363  30.483  52.699  0.00  0.00     0.212 C 
ATOM     20  O   UNL d   1      54.084  30.652  52.347  0.00  0.00    -0.644 OA
ATOM     21  O   UNL d   1      52.686  30.574  52.230  0.00  0.00    -0.644 OA
ENDBRANCH  14  19
ENDBRANCH  12  13
ENDBRANCH   1  12
TORSDOF 4
ENDMDL
MODEL 5
REMARK VINA RESULT:      -7.0      2.441      4.164
REMARK  4 active torsions:
REMARK  status: ('A' for Active; 'I' for Inactive)
REMARK    1  A    between atoms: N_4  and  C_1 
REMARK    2  A    between atoms: N_9  and  N_4 
REMARK    3  A    between atoms: C_8  and  C_7 
REMARK    4  A    between atoms: C_10  and  N_9 
ROOT
ATOM      1  N   UNL d   1      52.698  34.427  53.263  0.00  0.00    -0.146 NA
ENDROOT
BRANCH   1   2
ATOM      2  C   UNL d   1      53.134  34.379  53.961  0.00  0.00     0.122 A 
ATOM      3  C   UNL d   1      53.285  34.986  54.512  0.00  0.00     0.101 A 
ATOM      4  N   UNL d   1      53.731  34.708  55.113  0.00  0.00    -0.244 NA
ATOM      5  C   UNL d   1      53.029  35.737  54.459  0.00  0.00     0.022 C 
ATOM      6  C   UNL d   1      53.884  33.926  54.978  0.00  0.00     0.083 A 
ATOM      7  C   UNL d   1      53.509  33.702  54.247  0.00  0.00     0.039 A 
ATOM      8  C   UNL d   1      54.298  33.353  55.381  0.00  0.00     0.019 A 
ATOM      9  C   UNL d   1      53.572  32.912  53.961  0.00  0.00     0.003 A 
ATOM     10  C   UNL d   1      54.006  32.348  54.400  0.00  0.00     0.000 A 
ATOM     11  C   UNL d   1      54.359  32.589  55.104  0.00  0.00     0.002 A 
ENDBRANCH   1   2
BRANCH   1  12
ATOM     12  N   UNL d   1      51.868  34.346  53.283  0.00  0.00    -0.148 NA
BRANCH  12  13
ATOM     13  C   UNL d   1      51.398  34.316  52.589  0.00  0.00     0.109 A 
ATOM     14  C   UNL d   1      50.592  34.238  52.630  0.00  0.00     0.084 A 
ATOM     15  C   UNL d   1      50.142  34.210  51.938  0.00  0.00     0.008 A 
ATOM     16  C   UNL d   1      50.539  34.265  51.187  0.00  0.00     0.000 A 
ATOM     17  C   UNL d   1      51.377  34.346  51.168  0.00  0.00     0.002 A 
ATOM     18  C   UNL d   1      51.785  34.369  51.890  0.00  0.00     0.021 A 
BRANCH  14  19
ATOM     19  C   UNL d   1      50.223  34.187  53.357  0.00  0.00     0.212 C 
ATOM     20  O   UNL d   1      49.862  34.838  53.699  0.00  0.00    -0.644 OA
ATOM     21  O   UNL d   1      50.195  33.476  53.783  0.00  0.00    -0.644 OA
ENDBRANCH  14  19
ENDBRANCH  12  13
ENDBRANCH   1  12
TORSDOF 4
ENDMDL
MODEL 6
REMARK VINA RESULT:      -6.7      1.036      2.372
REMARK  4 active torsions:
REMARK  status: ('A' for Active; 'I' for Inactive)
REMARK    1  A    between atoms: N_4  and  C_1 
REMARK    2  A    between atoms: N_9  and  N_4 
REMARK    3  A    between atoms: C_8  and  C_7 
REMARK    4  A    between atoms: C_10  and  N_9 
ROOT
ATOM      1  N   UNL d   1      53.333  32.947  53.201  0.00  0.00    -0.146 NA
ENDROOT
BRANCH   1   2
ATOM      2  C   UNL d   1      52.535  32.781  53.077  0.00  0.00     0.122 A 
ATOM      3  C   UNL d   1      52.173  32.033  53.011  0.00  0.00     0.101 A 
ATOM      4  N   UNL d   1      51.388  32.117  52.893  0.00  0.00    -0.244 NA
ATOM      5  C   UNL d   1      52.544  31.331  53.057  0.00  0.00     0.022 C 
ATOM      6  C   UNL d   1      51.213  32.905  52.877  0.00  0.00     0.083 A 
ATOM      7  C   UNL d   1      51.936  33.342  52.994  0.00  0.00     0.039 A 
ATOM      8  C   UNL d   1      50.527  33.331  52.779  0.00  0.00     0.019 A 
ATOM      9  C   UNL d   1      51.927  34.184  53.005  0.00  0.00     0.003 A 
ATOM     10  C   UNL d   1      51.204  34.590  52.900  0.00  0.00     0.000 A 
ATOM     11  C   UNL d   1      50.518  34.145  52.789  0.00  0.00     0.002 A 
ENDBRANCH   1   2
BRANCH   1  12
ATOM     12  N   UNL d   1      53.643  32.950  53.976  0.00  0.00    -0.148 NA
BRANCH  12  13
ATOM     13  C   UNL d   1      54.412  33.230  54.156  0.00  0.00     0.109 A 
ATOM     14  C   UNL d   1      54.634  33.391  54.919  0.00  0.00     0.084 A 
ATOM     15  C   UNL d   1      55.395  33.666  55.081  0.00  0.00     0.008 A 
ATOM     16  C   UNL d   1      55.938  33.776  54.435  0.00  0.00     0.000 A 
ATOM     17  C   UNL d   1      55.688  33.602  53.650  0.00  0.00     0.002 A 
ATOM     18  C   UNL d   1      54.913  33.328  53.538  0.00  0.00     0.021 A 
BRANCH  14  19
ATOM     19  C   UNL d   1      54.103  33.282  55.530  0.00  0.00     0.212 C 
ATOM     20  O   UNL d   1      54.032  32.558  55.908  0.00  0.00    -0.644 OA
ATOM     21  O   UNL d   1      53.612  33.894  55.797  0.00  0.00    -0.644 OA
ENDBRANCH  14  19
ENDBRANCH  12  13
ENDBRANCH   1  12
TORSDOF 4
ENDMDL
MODEL 7
REMARK VINA RESULT:      -6.4      1.839      3.591
REMARK  4 active torsions:
REMARK  status: ('A' for Active; 'I' for Inactive)
REMARK    1  A    between atoms: N_4  and  C_1 
REMARK    2  A    between atoms: N_9  and  N_4 
REMARK    3  A    between atoms: C_8  and  C_7 
REMARK    4  A    between atoms: C_10  and  N_9 
ROOT
ATOM      1  N   UNL d   1      52.520  33.054  52.743  0.00  0.00    -0.146 NA
ENDROOT
BRANCH   1   2
ATOM      2  C   UNL d   1      52.135  33.775  52.855  0.00  0.00     0.122 A 
ATOM      3  C   UNL d   1      52.478  34.528  52.954  0.00  0.00     0.101 A 
ATOM      4  N   UNL d   1      51.908  35.079  53.045  0.00  0.00    -0.244 NA
ATOM      5  C   UNL d   1      53.256  34.687  52.958  0.00  0.00     0.022 C 
ATOM      6  C   UNL d   1      51.188  34.714  53.010  0.00  0.00     0.083 A 
ATOM      7  C   UNL d   1      51.317  33.880  52.889  0.00  0.00     0.039 A 
ATOM      8  C   UNL d   1      50.419  34.973  53.065  0.00  0.00     0.019 A 
ATOM      9  C   UNL d   1      50.663  33.353  52.829  0.00  0.00     0.003 A 
ATOM     10  C   UNL d   1      49.885  33.653  52.889  0.00  0.00     0.000 A 
ATOM     11  C   UNL d   1      49.786  34.463  53.007  0.00  0.00     0.002 A 
ENDBRANCH   1   2
BRANCH   1  12
ATOM     12  N   UNL d   1      52.920  32.692  53.381  0.00  0.00    -0.148 NA
BRANCH  12  13
ATOM     13  C   UNL d   1      53.126  31.879  53.385  0.00  0.00     0.109 A 
ATOM     14  C   UNL d   1      53.665  31.584  53.914  0.00  0.00     0.084 A 
ATOM     15  C   UNL d   1      53.857  30.781  53.906  0.00  0.00     0.008 A 
ATOM     16  C   UNL d   1      53.480  30.274  53.335  0.00  0.00     0.000 A 
ATOM     17  C   UNL d   1      52.923  30.601  52.795  0.00  0.00     0.002 A 
ATOM     18  C   UNL d   1      52.763  31.414  52.843  0.00  0.00     0.021 A 
BRANCH  14  19
ATOM     19  C   UNL d   1      54.020  32.082  54.456  0.00  0.00     0.212 C 
ATOM     20  O   UNL d   1      53.696  32.201  55.199  0.00  0.00    -0.644 OA
ATOM     21  O   UNL d   1      54.721  32.488  54.282  0.00  0.00    -0.644 OA
ENDBRANCH  14  19
ENDBRANCH  12  13
ENDBRANCH   1  12
TORSDOF 4
ENDMDL
