MODEL 1
REMARK VINA RESULT:      -7.7      0.000      0.000
REMARK  5 active torsions:
REMARK  status: ('A' for Active; 'I' for Inactive)
REMARK    1  A    between atoms: C_7  and  C_1 
REMARK    2  A    between atoms: O_13  and  C_7 
REMARK    3  A    between atoms: C_15  and  C_9 
REMARK    4  A    between atoms: C_11  and  C_15 
REMARK    5  A    between atoms: C_18  and  O_13 
ROOT
ATOM      1  C   UNL d   1     -46.563  13.297  22.555  0.00  0.00     0.127 A 
ATOM      2  C   UNL d   1     -46.737  13.911  23.045  0.00  0.00     0.305 A 
ATOM      3  O   UNL d   1     -47.501  14.270  23.039  0.00  0.00    -0.273 OA
ATOM      4  C   UNL d   1     -47.139  12.991  22.019  0.00  0.00     0.013 A 
ATOM      5  C   UNL d   1     -48.085  13.985  22.519  0.00  0.00     0.103 A 
ATOM      6  C   UNL d   1     -47.900  13.333  21.999  0.00  0.00     0.023 A 
ATOM      7  O   UNL d   1     -46.139  14.199  23.574  0.00  0.00    -0.259 OA
ATOM      8  C   UNL d   1     -48.835  14.322  22.500  0.00  0.00     0.023 A 
ATOM      9  C   UNL d   1     -48.473  13.044  21.480  0.00  0.00     0.002 A 
ATOM     10  C   UNL d   1     -49.238  13.402  21.473  0.00  0.00     0.000 A 
ATOM     11  C   UNL d   1     -49.412  14.017  21.963  0.00  0.00     0.002 A 
ENDROOT
BRANCH   1  12
ATOM     12  C   UNL d   1     -45.804  12.999  22.614  0.00  0.00     0.305 C 
ATOM     13  O   UNL d   1     -45.610  12.460  23.228  0.00  0.00    -0.259 OA
BRANCH  12  14
ATOM     14  O   UNL d   1     -45.192  13.206  22.084  0.00  0.00    -0.271 OA
BRANCH  14  15
ATOM     15  C   UNL d   1     -44.526  12.698  21.986  0.00  0.00     0.126 C 
ATOM     16  C   UNL d   1     -43.926  12.927  21.473  0.00  0.00     0.029 C 
ENDBRANCH  14  15
ENDBRANCH  12  14
ENDBRANCH   1  12
BRANCH   8  17
ATOM     17  C   UNL d   1     -49.012  14.949  23.000  0.00  0.00     0.002 C 
BRANCH  17  18
ATOM     18  C   UNL d   1     -49.789  15.261  23.021  0.00  0.00     0.000 C 
ATOM     19  C   UNL d   1     -49.986  15.835  23.574  0.00  0.00     0.000 C 
ENDBRANCH  17  18
ENDBRANCH   8  17
TORSDOF 5
ENDMDL
MODEL 2
REMARK VINA RESULT:      -7.4      0.794      1.049
REMARK  5 active torsions:
REMARK  status: ('A' for Active; 'I' for Inactive)
REMARK    1  A    between atoms: C_7  and  C_1 
REMARK    2  A    between atoms: O_13  and  C_7 
REMARK    3  A    between atoms: C_15  and  C_9 
REMARK    4  A    between atoms: C_11  and  C_15 
REMARK    5  A    between atoms: C_18  and  O_13 
ROOT
ATOM      1  C   UNL d   1     -46.632  12.978  22.738  0.00  0.00     0.127 A 
ATOM      2  C   UNL d   1     -46.761  13.656  23.153  0.00  0.00     0.305 A 
ATOM      3  O   UNL d   1     -47.474  14.097  23.055  0.00  0.00    -0.273 OA
ATOM      4  C   UNL d   1     -47.207  12.688  22.191  0.00  0.00     0.013 A 
ATOM      5  C   UNL d   1     -48.054  13.829  22.522  0.00  0.00     0.103 A 
ATOM      6  C   UNL d   1     -47.917  13.111  22.081  0.00  0.00     0.023 A 
ATOM      7  O   UNL d   1     -46.167  13.926  23.696  0.00  0.00    -0.259 OA
ATOM      8  C   UNL d   1     -48.754  14.247  22.415  0.00  0.00     0.023 A 
ATOM      9  C   UNL d   1     -48.487  12.837  21.551  0.00  0.00     0.002 A 
ATOM     10  C   UNL d   1     -49.201  13.279  21.452  0.00  0.00     0.000 A 
ATOM     11  C   UNL d   1     -49.329  13.956  21.868  0.00  0.00     0.002 A 
ENDROOT
BRANCH   1  12
ATOM     12  C   UNL d   1     -45.921  12.603  22.882  0.00  0.00     0.305 C 
ATOM     13  O   UNL d   1     -45.210  12.905  22.552  0.00  0.00    -0.259 OA
BRANCH  12  14
ATOM     14  O   UNL d   1     -45.858  11.915  23.353  0.00  0.00    -0.271 OA
BRANCH  14  15
ATOM     15  C   UNL d   1     -45.214  11.382  23.241  0.00  0.00     0.126 C 
ATOM     16  C   UNL d   1     -45.186  10.695  23.692  0.00  0.00     0.029 C 
ENDBRANCH  14  15
ENDBRANCH  12  14
ENDBRANCH   1  12
BRANCH   8  17
ATOM     17  C   UNL d   1     -48.885  14.938  22.838  0.00  0.00     0.002 C 
BRANCH  17  18
ATOM     18  C   UNL d   1     -49.635  15.309  22.813  0.00  0.00     0.000 C 
ATOM     19  C   UNL d   1     -49.809  15.921  23.332  0.00  0.00     0.000 C 
ENDBRANCH  17  18
ENDBRANCH   8  17
TORSDOF 5
ENDMDL
MODEL 3
REMARK VINA RESULT:      -7.0      1.053      1.527
REMARK  5 active torsions:
REMARK  status: ('A' for Active; 'I' for Inactive)
REMARK    1  A    between atoms: C_7  and  C_1 
REMARK    2  A    between atoms: O_13  and  C_7 
REMARK    3  A    between atoms: C_15  and  C_9 
REMARK    4  A    between atoms: C_11  and  C_15 
REMARK    5  A    between atoms: C_18  and  O_13 
ROOT
ATOM      1  C   UNL d   1     -46.738  13.265  22.857  0.00  0.00     0.127 A 
ATOM      2  C   UNL d   1     -47.257  12.682  23.058  0.00  0.00     0.305 A 
ATOM      3  O   UNL d   1     -48.086  12.836  23.108  0.00  0.00    -0.273 OA
ATOM      4  C   UNL d   1     -47.008  14.048  22.691  0.00  0.00     0.013 A 
ATOM      5  C   UNL d   1     -48.373  13.600  22.948  0.00  0.00     0.103 A 
ATOM      6  C   UNL d   1     -47.823  14.218  22.736  0.00  0.00     0.023 A 
ATOM      7  O   UNL d   1     -46.960  11.904  23.220  0.00  0.00    -0.259 OA
ATOM      8  C   UNL d   1     -49.177  13.766  22.993  0.00  0.00     0.023 A 
ATOM      9  C   UNL d   1     -48.099  14.979  22.576  0.00  0.00     0.002 A 
ATOM     10  C   UNL d   1     -48.929  15.133  22.626  0.00  0.00     0.000 A 
ATOM     11  C   UNL d   1     -49.447  14.550  22.826  0.00  0.00     0.002 A 
ENDROOT
BRANCH   1  12
ATOM     12  C   UNL d   1     -45.952  13.046  22.828  0.00  0.00     0.305 C 
ATOM     13  O   UNL d   1     -45.594  12.672  23.489  0.00  0.00    -0.259 OA
BRANCH  12  14
ATOM     14  O   UNL d   1     -45.469  13.176  22.158  0.00  0.00    -0.271 OA
BRANCH  14  15
ATOM     15  C   UNL d   1     -44.672  12.900  22.150  0.00  0.00     0.126 C 
ATOM     16  C   UNL d   1     -44.225  13.001  21.467  0.00  0.00     0.029 C 
ENDBRANCH  14  15
ENDBRANCH  12  14
ENDBRANCH   1  12
BRANCH   8  17
ATOM     17  C   UNL d   1     -49.705  13.172  23.197  0.00  0.00     0.002 C 
BRANCH  17  18
ATOM     18  C   UNL d   1     -50.530  13.315  23.162  0.00  0.00     0.000 C 
ATOM     19  C   UNL d   1     -51.058  12.718  23.359  0.00  0.00     0.000 C 
ENDBRANCH  17  18
ENDBRANCH   8  17
TORSDOF 5
ENDMDL
MODEL 4
REMARK VINA RESULT:      -6.8      1.720      4.253
REMARK  5 active torsions:
REMARK  status: ('A' for Active; 'I' for Inactive)
REMARK    1  A    between atoms: C_7  and  C_1 
REMARK    2  A    between atoms: O_13  and  C_7 
REMARK    3  A    between atoms: C_15  and  C_9 
REMARK    4  A    between atoms: C_11  and  C_15 
REMARK    5  A    between atoms: C_18  and  O_13 
ROOT
ATOM      1  C   UNL d   1     -49.126  13.526  23.072  0.00  0.00     0.127 A 
ATOM      2  C   UNL d   1     -49.029  12.762  23.304  0.00  0.00     0.305 A 
ATOM      3  O   UNL d   1     -48.261  12.415  23.350  0.00  0.00    -0.273 OA
ATOM      4  C   UNL d   1     -48.462  14.006  22.866  0.00  0.00     0.013 A 
ATOM      5  C   UNL d   1     -47.592  12.869  23.152  0.00  0.00     0.103 A 
ATOM      6  C   UNL d   1     -47.695  13.680  22.905  0.00  0.00     0.023 A 
ATOM      7  O   UNL d   1     -49.713  12.301  23.506  0.00  0.00    -0.259 OA
ATOM      8  C   UNL d   1     -46.837  12.547  23.190  0.00  0.00     0.023 A 
ATOM      9  C   UNL d   1     -47.038  14.138  22.706  0.00  0.00     0.002 A 
ATOM     10  C   UNL d   1     -46.268  13.791  22.752  0.00  0.00     0.000 A 
ATOM     11  C   UNL d   1     -46.172  13.027  22.984  0.00  0.00     0.002 A 
ENDROOT
BRANCH   1  12
ATOM     12  C   UNL d   1     -49.898  13.796  23.051  0.00  0.00     0.305 C 
ATOM     13  O   UNL d   1     -50.466  13.408  22.571  0.00  0.00    -0.259 OA
BRANCH  12  14
ATOM     14  O   UNL d   1     -50.160  14.455  23.492  0.00  0.00    -0.271 OA
BRANCH  14  15
ATOM     15  C   UNL d   1     -50.788  14.937  23.202  0.00  0.00     0.126 C 
ATOM     16  C   UNL d   1     -51.064  15.553  23.672  0.00  0.00     0.029 C 
ENDBRANCH  14  15
ENDBRANCH  12  14
ENDBRANCH   1  12
BRANCH   8  17
ATOM     17  C   UNL d   1     -46.738  11.767  23.428  0.00  0.00     0.002 C 
BRANCH  17  18
ATOM     18  C   UNL d   1     -45.969  11.464  23.562  0.00  0.00     0.000 C 
ATOM     19  C   UNL d   1     -45.861  10.661  23.693  0.00  0.00     0.000 C 
ENDBRANCH  17  18
ENDBRANCH   8  17
TORSDOF 5
ENDMDL
MODEL 5
REMARK VINA RESULT:      -6.4      1.550      2.067
REMARK  5 active torsions:
REMARK  status: ('A' for Active; 'I' for Inactive)
REMARK    1  A    between atoms: C_7  and  C_1 
REMARK    2  A    between atoms: O_13  and  C_7 
REMARK    3  A    between atoms: C_15  and  C_9 
REMARK    4  A    between atoms: C_11  and  C_15 
REMARK    5  A    between atoms: C_18  and  O_13 
ROOT
ATOM      1  C   UNL d   1     -46.921  12.097  23.198  0.00  0.00     0.127 A 
ATOM      2  C   UNL d   1     -47.686  11.941  22.999  0.00  0.00     0.305 A 
ATOM      3  O   UNL d   1     -48.211  12.561  22.768  0.00  0.00    -0.273 OA
ATOM      4  C   UNL d   1     -46.620  12.886  23.182  0.00  0.00     0.013 A 
ATOM      5  C   UNL d   1     -47.935  13.346  22.746  0.00  0.00     0.103 A 
ATOM      6  C   UNL d   1     -47.125  13.512  22.957  0.00  0.00     0.023 A 
ATOM      7  O   UNL d   1     -47.963  11.140  23.022  0.00  0.00    -0.259 OA
ATOM      8  C   UNL d   1     -48.433  13.962  22.523  0.00  0.00     0.023 A 
ATOM      9  C   UNL d   1     -46.843  14.287  22.938  0.00  0.00     0.002 A 
ATOM     10  C   UNL d   1     -47.368  14.908  22.707  0.00  0.00     0.000 A 
ATOM     11  C   UNL d   1     -48.132  14.752  22.508  0.00  0.00     0.002 A 
ENDROOT
BRANCH   1  12
ATOM     12  C   UNL d   1     -46.471  11.450  23.410  0.00  0.00     0.305 C 
ATOM     13  O   UNL d   1     -46.843  10.749  23.684  0.00  0.00    -0.259 OA
BRANCH  12  14
ATOM     14  O   UNL d   1     -45.636  11.445  23.370  0.00  0.00    -0.271 OA
BRANCH  14  15
ATOM     15  C   UNL d   1     -45.207  10.741  23.548  0.00  0.00     0.126 C 
ATOM     16  C   UNL d   1     -44.397  10.723  23.403  0.00  0.00     0.029 C 
ENDBRANCH  14  15
ENDBRANCH  12  14
ENDBRANCH   1  12
BRANCH   8  17
ATOM     17  C   UNL d   1     -49.212  13.802  22.320  0.00  0.00     0.002 C 
BRANCH  17  18
ATOM     18  C   UNL d   1     -49.708  14.419  22.047  0.00  0.00     0.000 C 
ATOM     19  C   UNL d   1     -50.487  14.259  21.839  0.00  0.00     0.000 C 
ENDBRANCH  17  18
ENDBRANCH   8  17
TORSDOF 5
ENDMDL
MODEL 6
REMARK VINA RESULT:      -6.2      1.845      3.988
REMARK  5 active torsions:
REMARK  status: ('A' for Active; 'I' for Inactive)
REMARK    1  A    between atoms: C_7  and  C_1 
REMARK    2  A    between atoms: O_13  and  C_7 
REMARK    3  A    between atoms: C_15  and  C_9 
REMARK    4  A    between atoms: C_11  and  C_15 
REMARK    5  A    between atoms: C_18  and  O_13 
ROOT
ATOM      1  C   UNL d   1     -48.237  12.236  23.279  0.00  0.00     0.127 A 
ATOM      2  C   UNL d   1     -47.569  11.801  23.164  0.00  0.00     0.305 A 
ATOM      3  O   UNL d   1     -46.839  12.172  22.959  0.00  0.00    -0.273 OA
ATOM      4  C   UNL d   1     -48.228  13.076  23.198  0.00  0.00     0.013 A 
ATOM      5  C   UNL d   1     -46.807  12.999  22.873  0.00  0.00     0.103 A 
ATOM      6  C   UNL d   1     -47.516  13.460  22.995  0.00  0.00     0.023 A 
ATOM      7  O   UNL d   1     -47.605  10.958  23.253  0.00  0.00    -0.259 OA
ATOM      8  C   UNL d   1     -46.105  13.376  22.673  0.00  0.00     0.023 A 
ATOM      9  C   UNL d   1     -47.494  14.280  22.912  0.00  0.00     0.002 A 
ATOM     10  C   UNL d   1     -46.763  14.652  22.706  0.00  0.00     0.000 A 
ATOM     11  C   UNL d   1     -46.096  14.218  22.591  0.00  0.00     0.002 A 
ENDROOT
BRANCH   1  12
ATOM     12  C   UNL d   1     -48.907  11.811  23.476  0.00  0.00     0.305 C 
ATOM     13  O   UNL d   1     -48.894  10.972  23.461  0.00  0.00    -0.259 OA
BRANCH  12  14
ATOM     14  O   UNL d   1     -49.626  12.175  23.698  0.00  0.00    -0.271 OA
BRANCH  14  15
ATOM     15  C   UNL d   1     -50.343  11.732  23.697  0.00  0.00     0.126 C 
ATOM     16  C   UNL d   1     -51.056  12.132  23.601  0.00  0.00     0.029 C 
ENDBRANCH  14  15
ENDBRANCH  12  14
ENDBRANCH   1  12
BRANCH   8  17
ATOM     17  C   UNL d   1     -45.423  12.933  22.556  0.00  0.00     0.002 C 
BRANCH  17  18
ATOM     18  C   UNL d   1     -44.884  13.145  21.951  0.00  0.00     0.000 C 
ATOM     19  C   UNL d   1     -44.176  12.737  21.870  0.00  0.00     0.000 C 
ENDBRANCH  17  18
ENDBRANCH   8  17
TORSDOF 5
ENDMDL
MODEL 7
REMARK VINA RESULT:      -5.2      8.183      8.690
REMARK  5 active torsions:
REMARK  status: ('A' for Active; 'I' for Inactive)
REMARK    1  A    between atoms: C_7  and  C_1 
REMARK    2  A    between atoms: O_13  and  C_7 
REMARK    3  A    between atoms: C_15  and  C_9 
REMARK    4  A    between atoms: C_11  and  C_15 
REMARK    5  A    between atoms: C_18  and  O_13 
ROOT
ATOM      1  C   UNL d   1     -39.343  14.643  20.116  0.00  0.00     0.127 A 
ATOM      2  C   UNL d   1     -39.904  15.190  19.930  0.00  0.00     0.305 A 
ATOM      3  O   UNL d   1     -40.216  15.244  19.147  0.00  0.00    -0.273 OA
ATOM      4  C   UNL d   1     -39.049  14.107  19.534  0.00  0.00     0.013 A 
ATOM      5  C   UNL d   1     -39.940  14.726  18.558  0.00  0.00     0.103 A 
ATOM      6  C   UNL d   1     -39.345  14.146  18.755  0.00  0.00     0.023 A 
ATOM      7  O   UNL d   1     -40.183  15.717  20.534  0.00  0.00    -0.259 OA
ATOM      8  C   UNL d   1     -40.232  14.765  17.790  0.00  0.00     0.023 A 
ATOM      9  C   UNL d   1     -39.065  13.628  18.177  0.00  0.00     0.002 A 
ATOM     10  C   UNL d   1     -39.377  13.682  17.393  0.00  0.00     0.000 A 
ATOM     11  C   UNL d   1     -39.938  14.229  17.207  0.00  0.00     0.002 A 
ENDROOT
BRANCH   1  12
ATOM     12  C   UNL d   1     -39.087  14.647  20.892  0.00  0.00     0.305 C 
ATOM     13  O   UNL d   1     -38.644  15.296  21.186  0.00  0.00    -0.259 OA
BRANCH  12  14
ATOM     14  O   UNL d   1     -39.246  14.023  21.426  0.00  0.00    -0.271 OA
BRANCH  14  15
ATOM     15  C   UNL d   1     -38.776  13.929  22.120  0.00  0.00     0.126 C 
ATOM     16  C   UNL d   1     -38.967  13.328  22.648  0.00  0.00     0.029 C 
ENDBRANCH  14  15
ENDBRANCH  12  14
ENDBRANCH   1  12
BRANCH   8  17
ATOM     17  C   UNL d   1     -40.804  15.323  17.601  0.00  0.00     0.002 C 
BRANCH  17  18
ATOM     18  C   UNL d   1     -41.026  15.441  16.802  0.00  0.00     0.000 C 
ATOM     19  C   UNL d   1     -41.666  15.922  16.619  0.00  0.00     0.000 C 
ENDBRANCH  17  18
ENDBRANCH   8  17
TORSDOF 5
ENDMDL
