MODEL 1
REMARK VINA RESULT:      -4.9      0.000      0.000
REMARK  5 active torsions:
REMARK  status: ('A' for Active; 'I' for Inactive)
REMARK    1  A    between atoms: N_2  and  S_1 
REMARK    2  A    between atoms: C_3  and  S_1 
REMARK    3  A    between atoms: C_4  and  N_2 
REMARK    4  A    between atoms: C_5  and  C_4 
REMARK       I    between atoms: C_8  and  N_9 
REMARK    5  A    between atoms: N_9  and  C_14 
ROOT
ATOM      1  C   UNL d   1      57.280  -0.024  31.519  0.00  0.00     0.105 A 
ATOM      2  C   UNL d   1      56.998  -0.747  31.821  0.00  0.00     0.015 A 
ATOM      3  C   UNL d   1      56.913   0.682  31.728  0.00  0.00     0.015 A 
ATOM      4  C   UNL d   1      55.984  -0.050  32.540  0.00  0.00     0.085 A 
ATOM      5  C   UNL d   1      56.263   0.666  32.240  0.00  0.00     0.020 A 
ATOM      6  C   UNL d   1      56.352  -0.757  32.330  0.00  0.00     0.020 A 
ENDROOT
BRANCH   1   7
ATOM      7  S   UNL d   1      57.928  -0.015  31.010  0.00  0.00     0.285 S 
ATOM      8  O   UNL d   1      58.597   0.429  31.200  0.00  0.00    -0.198 OA
ATOM      9  O   UNL d   1      57.379  -0.509  30.639  0.00  0.00    -0.198 OA
BRANCH   7  10
ATOM     10  N   UNL d   1      57.914  -0.449  30.304  0.00  0.00    -0.150 NA
BRANCH  10  11
ATOM     11  C   UNL d   1      58.565  -0.450  29.802  0.00  0.00     0.182 C 
BRANCH  11  12
ATOM     12  C   UNL d   1      58.517  -0.791  29.055  0.00  0.00     0.232 C 
ATOM     13  O   UNL d   1      58.109  -0.398  28.455  0.00  0.00    -0.643 OA
ATOM     14  O   UNL d   1      58.872  -1.519  28.905  0.00  0.00    -0.643 OA
ENDBRANCH  11  12
ENDBRANCH  10  11
ENDBRANCH   7  10
ENDBRANCH   1   7
BRANCH   4  15
ATOM     15  N   UNL d   1      55.333  -0.058  33.051  0.00  0.00    -0.208 NA
ATOM     16  C   UNL d   1      55.416   0.209  33.825  0.00  0.00     0.279 C 
ATOM     17  O   UNL d   1      56.147   0.484  34.092  0.00  0.00    -0.265 OA
ATOM     18  C   UNL d   1      54.764   0.201  34.340  0.00  0.00     0.068 C 
ENDBRANCH   4  15
TORSDOF 5
ENDMDL
MODEL 2
REMARK VINA RESULT:      -3.9      1.201      4.336
REMARK  5 active torsions:
REMARK  status: ('A' for Active; 'I' for Inactive)
REMARK    1  A    between atoms: N_2  and  S_1 
REMARK    2  A    between atoms: C_3  and  S_1 
REMARK    3  A    between atoms: C_4  and  N_2 
REMARK    4  A    between atoms: C_5  and  C_4 
REMARK       I    between atoms: C_8  and  N_9 
REMARK    5  A    between atoms: N_9  and  C_14 
ROOT
ATOM      1  C   UNL d   1      56.790   0.021  32.563  0.00  0.00     0.105 A 
ATOM      2  C   UNL d   1      57.009   0.679  32.101  0.00  0.00     0.015 A 
ATOM      3  C   UNL d   1      56.812  -0.735  32.239  0.00  0.00     0.015 A 
ATOM      4  C   UNL d   1      57.271  -0.182  30.997  0.00  0.00     0.085 A 
ATOM      5  C   UNL d   1      57.054  -0.834  31.453  0.00  0.00     0.020 A 
ATOM      6  C   UNL d   1      57.249   0.575  31.321  0.00  0.00     0.020 A 
ENDROOT
BRANCH   1   7
ATOM      7  S   UNL d   1      56.550   0.127  33.343  0.00  0.00     0.285 S 
ATOM      8  O   UNL d   1      57.113   0.181  33.944  0.00  0.00    -0.198 OA
ATOM      9  O   UNL d   1      55.846   0.098  32.913  0.00  0.00    -0.198 OA
BRANCH   7  10
ATOM     10  N   UNL d   1      55.745   0.179  33.532  0.00  0.00    -0.150 NA
BRANCH  10  11
ATOM     11  C   UNL d   1      55.491   0.676  34.137  0.00  0.00     0.182 C 
BRANCH  11  12
ATOM     12  C   UNL d   1      54.728   0.610  34.439  0.00  0.00     0.232 C 
ATOM     13  O   UNL d   1      54.084   0.664  33.927  0.00  0.00    -0.643 OA
ATOM     14  O   UNL d   1      54.607   0.491  35.244  0.00  0.00    -0.643 OA
ENDBRANCH  11  12
ENDBRANCH  10  11
ENDBRANCH   7  10
ENDBRANCH   1   7
BRANCH   4  15
ATOM     15  N   UNL d   1      57.512  -0.289  30.212  0.00  0.00    -0.208 NA
ATOM     16  C   UNL d   1      58.289  -0.128  29.995  0.00  0.00     0.279 C 
ATOM     17  O   UNL d   1      58.829   0.141  30.559  0.00  0.00    -0.265 OA
ATOM     18  C   UNL d   1      58.532  -0.234  29.208  0.00  0.00     0.068 C 
ENDBRANCH   4  15
TORSDOF 5
ENDMDL
MODEL 3
REMARK VINA RESULT:      -3.4      1.540      4.194
REMARK  5 active torsions:
REMARK  status: ('A' for Active; 'I' for Inactive)
REMARK    1  A    between atoms: N_2  and  S_1 
REMARK    2  A    between atoms: C_3  and  S_1 
REMARK    3  A    between atoms: C_4  and  N_2 
REMARK    4  A    between atoms: C_5  and  C_4 
REMARK       I    between atoms: C_8  and  N_9 
REMARK    5  A    between atoms: N_9  and  C_14 
ROOT
ATOM      1  C   UNL d   1      57.689   0.255  31.044  0.00  0.00     0.105 A 
ATOM      2  C   UNL d   1      57.751  -0.008  30.256  0.00  0.00     0.015 A 
ATOM      3  C   UNL d   1      58.337   0.599  31.416  0.00  0.00     0.015 A 
ATOM      4  C   UNL d   1      59.110   0.422  30.220  0.00  0.00     0.085 A 
ATOM      5  C   UNL d   1      59.048   0.682  31.001  0.00  0.00     0.020 A 
ATOM      6  C   UNL d   1      58.461   0.077  29.847  0.00  0.00     0.020 A 
ENDROOT
BRANCH   1   7
ATOM      7  S   UNL d   1      56.979   0.169  31.452  0.00  0.00     0.285 S 
ATOM      8  O   UNL d   1      56.350   0.680  31.297  0.00  0.00    -0.198 OA
ATOM      9  O   UNL d   1      57.462  -0.430  31.751  0.00  0.00    -0.198 OA
BRANCH   7  10
ATOM     10  N   UNL d   1      56.889  -0.428  32.018  0.00  0.00    -0.150 NA
BRANCH  10  11
ATOM     11  C   UNL d   1      56.159  -0.556  32.377  0.00  0.00     0.182 C 
BRANCH  11  12
ATOM     12  C   UNL d   1      56.082  -1.110  32.981  0.00  0.00     0.232 C 
ATOM     13  O   UNL d   1      55.923  -0.851  33.748  0.00  0.00    -0.643 OA
ATOM     14  O   UNL d   1      56.162  -1.914  32.824  0.00  0.00    -0.643 OA
ENDBRANCH  11  12
ENDBRANCH  10  11
ENDBRANCH   7  10
ENDBRANCH   1   7
BRANCH   4  15
ATOM     15  N   UNL d   1      59.824   0.509  29.812  0.00  0.00    -0.208 NA
ATOM     16  C   UNL d   1      60.242  -0.158  29.570  0.00  0.00     0.279 C 
ATOM     17  O   UNL d   1      59.951  -0.912  29.735  0.00  0.00    -0.265 OA
ATOM     18  C   UNL d   1      60.960  -0.073  29.160  0.00  0.00     0.068 C 
ENDBRANCH   4  15
TORSDOF 5
ENDMDL
