MODEL 1
REMARK VINA RESULT:      21.9      0.000      0.000
REMARK  4 active torsions:
REMARK  status: ('A' for Active; 'I' for Inactive)
REMARK    1  A    between atoms: C_3  and  C_1 
REMARK       I    between atoms: N_6  and  C_3 
REMARK    2  A    between atoms: C_12  and  N_5 
REMARK    3  A    between atoms: C_8  and  N_6 
REMARK    4  A    between atoms: S_11  and  C_10 
ROOT
ATOM      1  C   UNL d   1     -56.701 -99.134 -44.987  0.00  0.00     0.348 C 
ATOM      2  N   UNL d   1     -57.366 -99.137 -44.485  0.00  0.00    -0.363 NA
ATOM      3  O   UNL d   1     -56.745 -98.756 -45.750  0.00  0.00    -0.249 OA
ENDROOT
BRANCH   1   4
ATOM      4  C   UNL d   1     -55.996 -99.504 -44.733  0.00  0.00     0.173 A 
ATOM      5  N   UNL d   1     -55.858-100.324 -44.708  0.00  0.00    -0.159 NA
ATOM      6  N   UNL d   1     -55.085-100.436 -44.420  0.00  0.00    -0.227 N 
ATOM      7  C   UNL d   1     -54.756 -99.696 -44.271  0.00  0.00     0.102 A 
ATOM      8  C   UNL d   1     -55.315 -99.116 -44.464  0.00  0.00     0.048 A 
BRANCH   6   9
ATOM      9  C   UNL d   1     -54.714-101.167 -44.304  0.00  0.00     0.101 C 
ATOM     10  C   UNL d   1     -54.761-101.757 -43.730  0.00  0.00     0.022 C 
ENDBRANCH   6   9
ENDBRANCH   1   4
BRANCH   2  11
ATOM     11  C   UNL d   1     -58.187 -99.003 -44.156  0.00  0.00     0.141 A 
ATOM     12  C   UNL d   1     -58.806 -98.938 -44.691  0.00  0.00     0.055 A 
ATOM     13  C   UNL d   1     -59.555 -98.817 -44.417  0.00  0.00     0.009 A 
ATOM     14  C   UNL d   1     -59.694 -98.759 -43.605  0.00  0.00     0.001 A 
ATOM     15  C   UNL d   1     -59.076 -98.824 -43.082  0.00  0.00     0.003 A 
ATOM     16  C   UNL d   1     -58.318 -98.947 -43.365  0.00  0.00     0.033 A 
BRANCH  12  17
ATOM     17  S   UNL d   1     -58.673 -98.995 -45.507  0.00  0.00    -0.110 SA
ATOM     18  C   UNL d   1     -59.291 -98.881 -46.055  0.00  0.00     0.074 C 
ENDBRANCH  12  17
ENDBRANCH   2  11
TORSDOF 4
ENDMDL
MODEL 2
REMARK VINA RESULT:      23.8      6.417      7.695
REMARK  4 active torsions:
REMARK  status: ('A' for Active; 'I' for Inactive)
REMARK    1  A    between atoms: C_3  and  C_1 
REMARK       I    between atoms: N_6  and  C_3 
REMARK    2  A    between atoms: C_12  and  N_5 
REMARK    3  A    between atoms: C_8  and  N_6 
REMARK    4  A    between atoms: S_11  and  C_10 
ROOT
ATOM      1  C   UNL d   1     -55.788-102.389 -38.482  0.00  0.00     0.348 C 
ATOM      2  N   UNL d   1     -55.354-102.281 -37.778  0.00  0.00    -0.363 NA
ATOM      3  O   UNL d   1     -56.612-102.603 -38.446  0.00  0.00    -0.249 OA
ENDROOT
BRANCH   1   4
ATOM      4  C   UNL d   1     -55.404-102.286 -39.217  0.00  0.00     0.173 A 
ATOM      5  N   UNL d   1     -55.336-101.569 -39.634  0.00  0.00    -0.159 NA
ATOM      6  N   UNL d   1     -54.913-101.730 -40.333  0.00  0.00    -0.227 N 
ATOM      7  C   UNL d   1     -54.726-102.531 -40.343  0.00  0.00     0.102 A 
ATOM      8  C   UNL d   1     -55.028-102.880 -39.655  0.00  0.00     0.048 A 
BRANCH   6   9
ATOM      9  C   UNL d   1     -54.716-101.176 -40.916  0.00  0.00     0.101 C 
ATOM     10  C   UNL d   1     -54.737-101.168 -41.741  0.00  0.00     0.022 C 
ENDBRANCH   6   9
ENDBRANCH   1   4
BRANCH   2  11
ATOM     11  C   UNL d   1     -55.131-102.229 -36.913  0.00  0.00     0.141 A 
ATOM     12  C   UNL d   1     -54.927-101.492 -36.616  0.00  0.00     0.055 A 
ATOM     13  C   UNL d   1     -54.723-101.420 -35.840  0.00  0.00     0.009 A 
ATOM     14  C   UNL d   1     -54.720-102.086 -35.349  0.00  0.00     0.001 A 
ATOM     15  C   UNL d   1     -54.923-102.812 -35.652  0.00  0.00     0.003 A 
ATOM     16  C   UNL d   1     -55.130-102.878 -36.441  0.00  0.00     0.033 A 
BRANCH  12  17
ATOM     17  S   UNL d   1     -54.928-100.820 -37.103  0.00  0.00    -0.110 SA
ATOM     18  C   UNL d   1     -54.800-100.059 -36.788  0.00  0.00     0.074 C 
ENDBRANCH  12  17
ENDBRANCH   2  11
TORSDOF 4
ENDMDL
