MODEL 1
REMARK VINA RESULT:      -3.6      0.000      0.000
REMARK  6 active torsions:
REMARK  status: ('A' for Active; 'I' for Inactive)
REMARK    1  A    between atoms: C_9  and  N_1 
REMARK    2  A    between atoms: C_3  and  C_2 
REMARK    3  A    between atoms: C_12  and  C_9 
REMARK    4  A    between atoms: C_15  and  C_9 
REMARK    5  A    between atoms: C_20  and  C_15 
REMARK    6  A    between atoms: C_17  and  C_20 
ROOT
ATOM      1  N   UNL d   1     -42.079-122.923 -50.585  0.00  0.00    -0.254 N 
ATOM      2  C   UNL d   1     -41.635-122.633 -51.744  0.00  0.00     0.093 A 
ATOM      3  C   UNL d   1     -41.428-123.318 -50.640  0.00  0.00     0.153 A 
ATOM      4  C   UNL d   1     -42.242-122.489 -51.244  0.00  0.00     0.272 A 
ATOM      5  S   UNL d   1     -41.135-123.144 -51.370  0.00  0.00    -0.053 SA
ATOM      6  S   UNL d   1     -41.125-123.812 -50.045  0.00  0.00    -0.052 SA
ATOM      7  O   UNL d   1     -42.876-122.005 -51.390  0.00  0.00    -0.266 OA
ENDROOT
BRANCH   2   8
ATOM      8  C   UNL d   1     -41.545-122.315 -52.499  0.00  0.00     0.070 A 
ATOM      9  C   UNL d   1     -41.296-121.544 -52.543  0.00  0.00     0.280 A 
ATOM     10  N   UNL d   1     -41.236-121.317 -53.345  0.00  0.00    -0.208 NA
ATOM     11  O   UNL d   1     -41.126-121.055 -51.897  0.00  0.00    -0.265 OA
ATOM     12  C   UNL d   1     -41.455-121.968 -53.797  0.00  0.00     0.085 A 
ATOM     13  C   UNL d   1     -41.648-122.590 -53.287  0.00  0.00     0.023 A 
ATOM     14  C   UNL d   1     -41.507-122.083 -54.624  0.00  0.00     0.019 A 
ATOM     15  C   UNL d   1     -41.881-123.290 -53.574  0.00  0.00     0.002 A 
ATOM     16  C   UNL d   1     -41.935-123.414 -54.361  0.00  0.00     0.000 A 
ATOM     17  C   UNL d   1     -41.746-122.801 -54.926  0.00  0.00     0.002 A 
ENDBRANCH   2   8
BRANCH   1  18
ATOM     18  C   UNL d   1     -42.553-122.975 -49.864  0.00  0.00     0.133 C 
BRANCH  18  19
ATOM     19  C   UNL d   1     -43.378-123.069 -49.964  0.00  0.00     0.228 C 
ATOM     20  O   UNL d   1     -43.729-123.784 -49.951  0.00  0.00    -0.643 OA
ATOM     21  O   UNL d   1     -43.822-122.361 -50.079  0.00  0.00    -0.643 OA
ENDBRANCH  18  19
BRANCH  18  22
ATOM     22  C   UNL d   1     -42.212-122.934 -49.138  0.00  0.00     0.030 C 
BRANCH  22  23
ATOM     23  C   UNL d   1     -42.689-123.121 -48.492  0.00  0.00     0.072 C 
BRANCH  23  24
ATOM     24  C   UNL d   1     -42.445-122.770 -47.749  0.00  0.00     0.211 C 
ATOM     25  O   UNL d   1     -41.691-122.469 -47.651  0.00  0.00    -0.644 OA
ATOM     26  O   UNL d   1     -43.000-122.756 -47.158  0.00  0.00    -0.644 OA
ENDBRANCH  23  24
ENDBRANCH  22  23
ENDBRANCH  18  22
ENDBRANCH   1  18
TORSDOF 6
ENDMDL
MODEL 2
REMARK VINA RESULT:      -3.5      1.199      1.553
REMARK  6 active torsions:
REMARK  status: ('A' for Active; 'I' for Inactive)
REMARK    1  A    between atoms: C_9  and  N_1 
REMARK    2  A    between atoms: C_3  and  C_2 
REMARK    3  A    between atoms: C_12  and  C_9 
REMARK    4  A    between atoms: C_15  and  C_9 
REMARK    5  A    between atoms: C_20  and  C_15 
REMARK    6  A    between atoms: C_17  and  C_20 
ROOT
ATOM      1  N   UNL d   1     -42.040-122.264 -51.163  0.00  0.00    -0.254 N 
ATOM      2  C   UNL d   1     -41.773-122.317 -52.408  0.00  0.00     0.093 A 
ATOM      3  C   UNL d   1     -41.630-121.634 -51.292  0.00  0.00     0.153 A 
ATOM      4  C   UNL d   1     -42.150-122.711 -51.824  0.00  0.00     0.272 A 
ATOM      5  S   UNL d   1     -41.453-121.653 -52.078  0.00  0.00    -0.053 SA
ATOM      6  S   UNL d   1     -41.432-121.073 -50.713  0.00  0.00    -0.052 SA
ATOM      7  O   UNL d   1     -42.552-123.411 -51.903  0.00  0.00    -0.266 OA
ENDROOT
BRANCH   2   8
ATOM      8  C   UNL d   1     -41.724-122.551 -53.197  0.00  0.00     0.070 A 
ATOM      9  C   UNL d   1     -41.411-123.286 -53.340  0.00  0.00     0.280 A 
ATOM     10  N   UNL d   1     -41.405-123.428 -54.164  0.00  0.00    -0.208 NA
ATOM     11  O   UNL d   1     -41.140-123.814 -52.765  0.00  0.00    -0.265 OA
ATOM     12  C   UNL d   1     -41.723-122.762 -54.526  0.00  0.00     0.085 A 
ATOM     13  C   UNL d   1     -41.924-122.213 -53.940  0.00  0.00     0.023 A 
ATOM     14  C   UNL d   1     -41.861-122.574 -55.330  0.00  0.00     0.019 A 
ATOM     15  C   UNL d   1     -42.243-121.515 -54.134  0.00  0.00     0.002 A 
ATOM     16  C   UNL d   1     -42.380-121.323 -54.896  0.00  0.00     0.000 A 
ATOM     17  C   UNL d   1     -42.190-121.857 -55.536  0.00  0.00     0.002 A 
ENDBRANCH   2   8
BRANCH   1  18
ATOM     18  C   UNL d   1     -42.331-122.431 -50.366  0.00  0.00     0.133 C 
BRANCH  18  19
ATOM     19  C   UNL d   1     -43.156-122.365 -50.247  0.00  0.00     0.228 C 
ATOM     20  O   UNL d   1     -43.554-121.691 -50.394  0.00  0.00    -0.643 OA
ATOM     21  O   UNL d   1     -43.547-123.056 -49.961  0.00  0.00    -0.643 OA
ENDBRANCH  18  19
BRANCH  18  22
ATOM     22  C   UNL d   1     -41.829-122.637 -49.774  0.00  0.00     0.030 C 
BRANCH  22  23
ATOM     23  C   UNL d   1     -42.157-122.729 -49.024  0.00  0.00     0.072 C 
BRANCH  23  24
ATOM     24  C   UNL d   1     -41.666-123.154 -48.464  0.00  0.00     0.211 C 
ATOM     25  O   UNL d   1     -41.186-123.770 -48.705  0.00  0.00    -0.644 OA
ATOM     26  O   UNL d   1     -41.706-122.910 -47.692  0.00  0.00    -0.644 OA
ENDBRANCH  23  24
ENDBRANCH  22  23
ENDBRANCH  18  22
ENDBRANCH   1  18
TORSDOF 6
ENDMDL
MODEL 3
REMARK VINA RESULT:      -3.2      1.265      4.646
REMARK  6 active torsions:
REMARK  status: ('A' for Active; 'I' for Inactive)
REMARK    1  A    between atoms: C_9  and  N_1 
REMARK    2  A    between atoms: C_3  and  C_2 
REMARK    3  A    between atoms: C_12  and  C_9 
REMARK    4  A    between atoms: C_15  and  C_9 
REMARK    5  A    between atoms: C_20  and  C_15 
REMARK    6  A    between atoms: C_17  and  C_20 
ROOT
ATOM      1  N   UNL d   1     -41.880-122.624 -51.395  0.00  0.00    -0.254 N 
ATOM      2  C   UNL d   1     -42.122-123.200 -50.284  0.00  0.00     0.093 A 
ATOM      3  C   UNL d   1     -41.542-123.305 -51.460  0.00  0.00     0.153 A 
ATOM      4  C   UNL d   1     -42.248-122.521 -50.686  0.00  0.00     0.272 A 
ATOM      5  S   UNL d   1     -41.687-123.682 -50.763  0.00  0.00    -0.053 SA
ATOM      6  S   UNL d   1     -41.123-123.562 -52.130  0.00  0.00    -0.052 SA
ATOM      7  O   UNL d   1     -42.662-121.876 -50.417  0.00  0.00    -0.266 OA
ENDROOT
BRANCH   2   8
ATOM      8  C   UNL d   1     -42.391-123.368 -49.523  0.00  0.00     0.070 A 
ATOM      9  C   UNL d   1     -43.142-123.668 -49.459  0.00  0.00     0.280 A 
ATOM     10  N   UNL d   1     -43.319-123.804 -48.654  0.00  0.00    -0.208 NA
ATOM     11  O   UNL d   1     -43.656-123.817 -50.090  0.00  0.00    -0.265 OA
ATOM     12  C   UNL d   1     -42.657-123.580 -48.221  0.00  0.00     0.085 A 
ATOM     13  C   UNL d   1     -42.077-123.310 -48.745  0.00  0.00     0.023 A 
ATOM     14  C   UNL d   1     -42.497-123.586 -47.399  0.00  0.00     0.019 A 
ATOM     15  C   UNL d   1     -41.376-123.057 -48.477  0.00  0.00     0.002 A 
ATOM     16  C   UNL d   1     -41.210-123.057 -47.696  0.00  0.00     0.000 A 
ATOM     17  C   UNL d   1     -41.778-123.327 -47.117  0.00  0.00     0.002 A 
ENDBRANCH   2   8
BRANCH   1  18
ATOM     18  C   UNL d   1     -41.839-122.061 -52.049  0.00  0.00     0.133 C 
BRANCH  18  19
ATOM     19  C   UNL d   1     -41.771-121.253 -51.845  0.00  0.00     0.228 C 
ATOM     20  O   UNL d   1     -41.123-120.824 -52.019  0.00  0.00    -0.643 OA
ATOM     21  O   UNL d   1     -42.429-120.915 -51.441  0.00  0.00    -0.643 OA
ENDBRANCH  18  19
BRANCH  18  22
ATOM     22  C   UNL d   1     -41.867-122.308 -52.813  0.00  0.00     0.030 C 
BRANCH  22  23
ATOM     23  C   UNL d   1     -42.251-121.814 -53.350  0.00  0.00     0.072 C 
BRANCH  23  24
ATOM     24  C   UNL d   1     -42.247-122.089 -54.162  0.00  0.00     0.211 C 
ATOM     25  O   UNL d   1     -42.588-122.802 -54.369  0.00  0.00    -0.644 OA
ATOM     26  O   UNL d   1     -41.888-121.604 -54.704  0.00  0.00    -0.644 OA
ENDBRANCH  23  24
ENDBRANCH  22  23
ENDBRANCH  18  22
ENDBRANCH   1  18
TORSDOF 6
ENDMDL
