MODEL 1
REMARK VINA RESULT:      -5.8      0.000      0.000
REMARK  7 active torsions:
REMARK  status: ('A' for Active; 'I' for Inactive)
REMARK    1  A    between atoms: C_4  and  N_1 
REMARK    2  A    between atoms: O_2  and  C_10 
REMARK    3  A    between atoms: C_3  and  O_2 
REMARK    4  A    between atoms: C_9  and  C_4 
REMARK    5  A    between atoms: C_12  and  C_6 
REMARK    6  A    between atoms: C_7  and  C_12 
REMARK    7  A    between atoms: C_10  and  C_9 
ROOT
ATOM      1  O   UNL d   1     -48.937  13.943  22.974  0.00  0.00    -0.302 OA
ENDROOT
BRANCH   1   2
ATOM      2  C   UNL d   1     -48.203  14.321  22.952  0.00  0.00     0.166 C 
BRANCH   2   3
ATOM      3  C   UNL d   1     -47.558  13.962  22.598  0.00  0.00     0.238 C 
ATOM      4  O   UNL d   1     -47.634  13.582  21.887  0.00  0.00    -0.283 OA
BRANCH   3   5
ATOM      5  C   UNL d   1     -46.827  13.994  22.980  0.00  0.00     0.125 C 
BRANCH   5   6
ATOM      6  N   UNL d   1     -46.274  13.414  22.859  0.00  0.00    -0.296 N 
ATOM      7  C   UNL d   1     -46.299  12.715  23.296  0.00  0.00     0.107 A 
ATOM      8  C   UNL d   1     -45.736  12.123  23.174  0.00  0.00     0.142 A 
ATOM      9  O   UNL d   1     -45.150  12.234  22.615  0.00  0.00    -0.300 OA
ATOM     10  C   UNL d   1     -45.119  12.916  22.183  0.00  0.00     0.142 A 
ATOM     11  C   UNL d   1     -45.682  13.508  22.306  0.00  0.00     0.107 A 
ENDBRANCH   5   6
ENDBRANCH   3   5
ENDBRANCH   2   3
ENDBRANCH   1   2
BRANCH   1  12
ATOM     12  C   UNL d   1     -49.617  14.368  23.195  0.00  0.00     0.100 A 
ATOM     13  C   UNL d   1     -50.303  13.962  23.433  0.00  0.00     0.023 A 
ATOM     14  C   UNL d   1     -50.975  14.377  23.650  0.00  0.00     0.002 A 
ATOM     15  C   UNL d   1     -50.967  15.199  23.633  0.00  0.00     0.000 A 
ATOM     16  C   UNL d   1     -50.281  15.606  23.395  0.00  0.00     0.002 A 
ATOM     17  C   UNL d   1     -49.621  15.179  23.181  0.00  0.00     0.025 A 
BRANCH  13  18
ATOM     18  C   UNL d   1     -50.317  13.126  23.453  0.00  0.00     0.002 C 
BRANCH  18  19
ATOM     19  C   UNL d   1     -51.003  12.719  23.692  0.00  0.00     0.000 C 
ATOM     20  C   UNL d   1     -51.008  11.911  23.686  0.00  0.00     0.000 C 
ENDBRANCH  18  19
ENDBRANCH  13  18
ENDBRANCH   1  12
TORSDOF 7
ENDMDL
MODEL 2
REMARK VINA RESULT:      -4.6      1.739      4.343
REMARK  7 active torsions:
REMARK  status: ('A' for Active; 'I' for Inactive)
REMARK    1  A    between atoms: C_4  and  N_1 
REMARK    2  A    between atoms: O_2  and  C_10 
REMARK    3  A    between atoms: C_3  and  O_2 
REMARK    4  A    between atoms: C_9  and  C_4 
REMARK    5  A    between atoms: C_12  and  C_6 
REMARK    6  A    between atoms: C_7  and  C_12 
REMARK    7  A    between atoms: C_10  and  C_9 
ROOT
ATOM      1  O   UNL d   1     -47.291  12.564  23.063  0.00  0.00    -0.302 OA
ENDROOT
BRANCH   1   2
ATOM      2  C   UNL d   1     -47.611  11.915  22.663  0.00  0.00     0.166 C 
BRANCH   2   3
ATOM      3  C   UNL d   1     -48.292  11.550  22.935  0.00  0.00     0.238 C 
ATOM      4  O   UNL d   1     -48.342  11.281  23.698  0.00  0.00    -0.283 OA
BRANCH   3   5
ATOM      5  C   UNL d   1     -48.928  11.460  22.417  0.00  0.00     0.125 C 
BRANCH   5   6
ATOM      6  N   UNL d   1     -49.632  11.834  22.562  0.00  0.00    -0.296 N 
ATOM      7  C   UNL d   1     -50.002  11.761  23.296  0.00  0.00     0.107 A 
ATOM      8  C   UNL d   1     -50.720  12.142  23.443  0.00  0.00     0.142 A 
ATOM      9  O   UNL d   1     -51.064  12.594  22.856  0.00  0.00    -0.300 OA
ATOM     10  C   UNL d   1     -50.708  12.671  22.135  0.00  0.00     0.142 A 
ATOM     11  C   UNL d   1     -49.990  12.289  21.988  0.00  0.00     0.107 A 
ENDBRANCH   5   6
ENDBRANCH   3   5
ENDBRANCH   2   3
ENDBRANCH   1   2
BRANCH   1  12
ATOM     12  C   UNL d   1     -46.595  12.922  22.784  0.00  0.00     0.100 A 
ATOM     13  C   UNL d   1     -46.551  13.750  22.716  0.00  0.00     0.023 A 
ATOM     14  C   UNL d   1     -45.866  14.106  22.442  0.00  0.00     0.002 A 
ATOM     15  C   UNL d   1     -45.222  13.639  22.234  0.00  0.00     0.000 A 
ATOM     16  C   UNL d   1     -45.266  12.811  22.302  0.00  0.00     0.002 A 
ATOM     17  C   UNL d   1     -45.953  12.472  22.576  0.00  0.00     0.025 A 
BRANCH  13  18
ATOM     18  C   UNL d   1     -47.203  14.230  22.926  0.00  0.00     0.002 C 
BRANCH  18  19
ATOM     19  C   UNL d   1     -47.280  14.999  22.618  0.00  0.00     0.000 C 
ATOM     20  C   UNL d   1     -48.011  15.341  22.582  0.00  0.00     0.000 C 
ENDBRANCH  18  19
ENDBRANCH  13  18
ENDBRANCH   1  12
TORSDOF 7
ENDMDL
MODEL 3
REMARK VINA RESULT:      -4.5      9.276     10.137
REMARK  7 active torsions:
REMARK  status: ('A' for Active; 'I' for Inactive)
REMARK    1  A    between atoms: C_4  and  N_1 
REMARK    2  A    between atoms: O_2  and  C_10 
REMARK    3  A    between atoms: C_3  and  O_2 
REMARK    4  A    between atoms: C_9  and  C_4 
REMARK    5  A    between atoms: C_12  and  C_6 
REMARK    6  A    between atoms: C_7  and  C_12 
REMARK    7  A    between atoms: C_10  and  C_9 
ROOT
ATOM      1  O   UNL d   1     -39.962  14.599  19.103  0.00  0.00    -0.302 OA
ENDROOT
BRANCH   1   2
ATOM      2  C   UNL d   1     -39.556  14.502  19.815  0.00  0.00     0.166 C 
BRANCH   2   3
ATOM      3  C   UNL d   1     -39.795  14.898  20.492  0.00  0.00     0.238 C 
ATOM      4  O   UNL d   1     -40.542  14.797  20.788  0.00  0.00    -0.283 OA
BRANCH   3   5
ATOM      5  C   UNL d   1     -39.260  15.403  20.866  0.00  0.00     0.125 C 
BRANCH   5   6
ATOM      6  N   UNL d   1     -39.095  15.315  21.654  0.00  0.00    -0.296 N 
ATOM      7  C   UNL d   1     -39.262  15.922  22.188  0.00  0.00     0.107 A 
ATOM      8  C   UNL d   1     -39.094  15.832  22.991  0.00  0.00     0.142 A 
ATOM      9  O   UNL d   1     -38.759  15.136  23.258  0.00  0.00    -0.300 OA
ATOM     10  C   UNL d   1     -38.592  14.537  22.742  0.00  0.00     0.142 A 
ATOM     11  C   UNL d   1     -38.761  14.627  21.938  0.00  0.00     0.107 A 
ENDBRANCH   5   6
ENDBRANCH   3   5
ENDBRANCH   2   3
ENDBRANCH   1   2
BRANCH   1  12
ATOM     12  C   UNL d   1     -39.660  14.266  18.403  0.00  0.00     0.100 A 
ATOM     13  C   UNL d   1     -39.964  14.502  17.665  0.00  0.00     0.023 A 
ATOM     14  C   UNL d   1     -39.669  14.177  16.974  0.00  0.00     0.002 A 
ATOM     15  C   UNL d   1     -39.071  13.614  17.014  0.00  0.00     0.000 A 
ATOM     16  C   UNL d   1     -38.767  13.378  17.752  0.00  0.00     0.002 A 
ATOM     17  C   UNL d   1     -39.070  13.711  18.430  0.00  0.00     0.025 A 
BRANCH  13  18
ATOM     18  C   UNL d   1     -40.573  15.074  17.618  0.00  0.00     0.002 C 
BRANCH  18  19
ATOM     19  C   UNL d   1     -40.854  15.335  16.880  0.00  0.00     0.000 C 
ATOM     20  C   UNL d   1     -41.412  15.918  16.850  0.00  0.00     0.000 C 
ENDBRANCH  18  19
ENDBRANCH  13  18
ENDBRANCH   1  12
TORSDOF 7
ENDMDL
MODEL 4
REMARK VINA RESULT:      -4.5      9.448     10.574
REMARK  7 active torsions:
REMARK  status: ('A' for Active; 'I' for Inactive)
REMARK    1  A    between atoms: C_4  and  N_1 
REMARK    2  A    between atoms: O_2  and  C_10 
REMARK    3  A    between atoms: C_3  and  O_2 
REMARK    4  A    between atoms: C_9  and  C_4 
REMARK    5  A    between atoms: C_12  and  C_6 
REMARK    6  A    between atoms: C_7  and  C_12 
REMARK    7  A    between atoms: C_10  and  C_9 
ROOT
ATOM      1  O   UNL d   1     -39.077  14.196  18.515  0.00  0.00    -0.302 OA
ENDROOT
BRANCH   1   2
ATOM      2  C   UNL d   1     -39.191  14.226  19.332  0.00  0.00     0.166 C 
BRANCH   2   3
ATOM      3  C   UNL d   1     -38.645  13.893  19.844  0.00  0.00     0.238 C 
ATOM      4  O   UNL d   1     -38.288  13.187  19.667  0.00  0.00    -0.283 OA
BRANCH   3   5
ATOM      5  C   UNL d   1     -38.464  14.289  20.545  0.00  0.00     0.125 C 
BRANCH   5   6
ATOM      6  N   UNL d   1     -38.557  13.922  21.261  0.00  0.00    -0.296 N 
ATOM      7  C   UNL d   1     -37.941  13.481  21.588  0.00  0.00     0.107 A 
ATOM      8  C   UNL d   1     -38.036  13.106  22.318  0.00  0.00     0.142 A 
ATOM      9  O   UNL d   1     -38.746  13.175  22.718  0.00  0.00    -0.300 OA
ATOM     10  C   UNL d   1     -39.353  13.605  22.404  0.00  0.00     0.142 A 
ATOM     11  C   UNL d   1     -39.259  13.980  21.674  0.00  0.00     0.107 A 
ENDBRANCH   5   6
ENDBRANCH   3   5
ENDBRANCH   2   3
ENDBRANCH   1   2
BRANCH   1  12
ATOM     12  C   UNL d   1     -39.636  14.540  18.004  0.00  0.00     0.100 A 
ATOM     13  C   UNL d   1     -39.508  14.533  17.182  0.00  0.00     0.023 A 
ATOM     14  C   UNL d   1     -40.056  14.871  16.676  0.00  0.00     0.002 A 
ATOM     15  C   UNL d   1     -40.734  15.218  16.985  0.00  0.00     0.000 A 
ATOM     16  C   UNL d   1     -40.862  15.224  17.807  0.00  0.00     0.002 A 
ATOM     17  C   UNL d   1     -40.308  14.884  18.298  0.00  0.00     0.025 A 
BRANCH  13  18
ATOM     18  C   UNL d   1     -38.819  14.182  16.861  0.00  0.00     0.002 C 
BRANCH  18  19
ATOM     19  C   UNL d   1     -38.683  14.191  16.040  0.00  0.00     0.000 C 
ATOM     20  C   UNL d   1     -38.023  13.831  15.744  0.00  0.00     0.000 C 
ENDBRANCH  18  19
ENDBRANCH  13  18
ENDBRANCH   1  12
TORSDOF 7
ENDMDL
MODEL 5
REMARK VINA RESULT:      -4.1      8.708     10.388
REMARK  7 active torsions:
REMARK  status: ('A' for Active; 'I' for Inactive)
REMARK    1  A    between atoms: C_4  and  N_1 
REMARK    2  A    between atoms: O_2  and  C_10 
REMARK    3  A    between atoms: C_3  and  O_2 
REMARK    4  A    between atoms: C_9  and  C_4 
REMARK    5  A    between atoms: C_12  and  C_6 
REMARK    6  A    between atoms: C_7  and  C_12 
REMARK    7  A    between atoms: C_10  and  C_9 
ROOT
ATOM      1  O   UNL d   1     -39.292  14.647  19.573  0.00  0.00    -0.302 OA
ENDROOT
BRANCH   1   2
ATOM      2  C   UNL d   1     -39.324  14.611  18.749  0.00  0.00     0.166 C 
BRANCH   2   3
ATOM      3  C   UNL d   1     -38.703  14.296  18.318  0.00  0.00     0.238 C 
ATOM      4  O   UNL d   1     -37.943  14.547  18.444  0.00  0.00    -0.283 OA
BRANCH   3   5
ATOM      5  C   UNL d   1     -38.865  13.717  17.753  0.00  0.00     0.125 C 
BRANCH   5   6
ATOM      6  N   UNL d   1     -38.633  13.818  16.983  0.00  0.00    -0.296 N 
ATOM      7  C   UNL d   1     -38.855  14.493  16.563  0.00  0.00     0.107 A 
ATOM      8  C   UNL d   1     -38.618  14.595  15.779  0.00  0.00     0.142 A 
ATOM      9  O   UNL d   1     -38.161  14.022  15.418  0.00  0.00    -0.300 OA
ATOM     10  C   UNL d   1     -37.940  13.358  15.822  0.00  0.00     0.142 A 
ATOM     11  C   UNL d   1     -38.176  13.256  16.607  0.00  0.00     0.107 A 
ENDBRANCH   5   6
ENDBRANCH   3   5
ENDBRANCH   2   3
ENDBRANCH   1   2
BRANCH   1  12
ATOM     12  C   UNL d   1     -39.883  15.052  19.996  0.00  0.00     0.100 A 
ATOM     13  C   UNL d   1     -39.915  14.995  20.825  0.00  0.00     0.023 A 
ATOM     14  C   UNL d   1     -40.495  15.392  21.245  0.00  0.00     0.002 A 
ATOM     15  C   UNL d   1     -41.047  15.848  20.841  0.00  0.00     0.000 A 
ATOM     16  C   UNL d   1     -41.015  15.905  20.011  0.00  0.00     0.002 A 
ATOM     17  C   UNL d   1     -40.432  15.505  19.608  0.00  0.00     0.025 A 
BRANCH  13  18
ATOM     18  C   UNL d   1     -39.356  14.532  21.242  0.00  0.00     0.002 C 
BRANCH  18  19
ATOM     19  C   UNL d   1     -39.321  14.557  22.073  0.00  0.00     0.000 C 
ATOM     20  C   UNL d   1     -38.642  14.329  22.449  0.00  0.00     0.000 C 
ENDBRANCH  18  19
ENDBRANCH  13  18
ENDBRANCH   1  12
TORSDOF 7
ENDMDL
