MODEL 1
REMARK VINA RESULT:      -8.2      0.000      0.000
REMARK  1 active torsions:
REMARK  status: ('A' for Active; 'I' for Inactive)
REMARK    1  A    between atoms: C_6  and  C_2 
ROOT
ATOM      1  C   UNL d   1      53.970  32.440  54.025  0.00  0.00     0.019 A 
ATOM      2  C   UNL d   1      54.583  32.842  53.665  0.00  0.00     0.001 A 
ATOM      3  C   UNL d   1      53.801  32.539  54.817  0.00  0.00     0.001 A 
ATOM      4  C   UNL d   1      54.257  33.056  55.269  0.00  0.00     0.000 A 
ATOM      5  C   UNL d   1      55.044  33.363  54.114  0.00  0.00     0.000 A 
ATOM      6  C   UNL d   1      54.881  33.468  54.912  0.00  0.00     0.000 A 
ENDROOT
BRANCH   1   7
ATOM      7  C   UNL d   1      53.508  31.917  53.572  0.00  0.00     0.102 A 
ATOM      8  N   UNL d   1      53.541  31.095  53.601  0.00  0.00    -0.222 NA
ATOM      9  C   UNL d   1      52.989  30.799  53.061  0.00  0.00     0.199 A 
ATOM     10  N   UNL d   1      52.616  31.438  52.701  0.00  0.00    -0.221 NA
ATOM     11  C   UNL d   1      52.934  32.133  53.014  0.00  0.00     0.120 A 
ENDBRANCH   1   7
TORSDOF 1
ENDMDL
MODEL 2
REMARK VINA RESULT:      -7.5      1.153      2.700
REMARK  1 active torsions:
REMARK  status: ('A' for Active; 'I' for Inactive)
REMARK    1  A    between atoms: C_6  and  C_2 
ROOT
ATOM      1  C   UNL d   1      53.616  31.902  53.772  0.00  0.00     0.019 A 
ATOM      2  C   UNL d   1      53.790  31.109  53.853  0.00  0.00     0.001 A 
ATOM      3  C   UNL d   1      53.027  32.161  53.270  0.00  0.00     0.001 A 
ATOM      4  C   UNL d   1      52.595  31.613  52.833  0.00  0.00     0.000 A 
ATOM      5  C   UNL d   1      53.360  30.553  53.415  0.00  0.00     0.000 A 
ATOM      6  C   UNL d   1      52.765  30.806  52.908  0.00  0.00     0.000 A 
ENDROOT
BRANCH   1   7
ATOM      7  C   UNL d   1      54.050  32.459  54.213  0.00  0.00     0.102 A 
ATOM      8  N   UNL d   1      53.956  32.617  55.016  0.00  0.00    -0.222 NA
ATOM      9  C   UNL d   1      54.498  33.206  55.223  0.00  0.00     0.199 A 
ATOM     10  N   UNL d   1      54.925  33.409  54.550  0.00  0.00    -0.221 NA
ATOM     11  C   UNL d   1      54.650  32.949  53.921  0.00  0.00     0.120 A 
ENDBRANCH   1   7
TORSDOF 1
ENDMDL
MODEL 3
REMARK VINA RESULT:      -7.1      1.743      2.126
REMARK  1 active torsions:
REMARK  status: ('A' for Active; 'I' for Inactive)
REMARK    1  A    between atoms: C_6  and  C_2 
ROOT
ATOM      1  C   UNL d   1      53.324  33.575  53.943  0.00  0.00     0.019 A 
ATOM      2  C   UNL d   1      53.490  33.878  54.682  0.00  0.00     0.001 A 
ATOM      3  C   UNL d   1      53.841  33.072  53.562  0.00  0.00     0.001 A 
ATOM      4  C   UNL d   1      54.549  32.862  53.927  0.00  0.00     0.000 A 
ATOM      5  C   UNL d   1      54.200  33.671  55.055  0.00  0.00     0.000 A 
ATOM      6  C   UNL d   1      54.726  33.165  54.678  0.00  0.00     0.000 A 
ENDROOT
BRANCH   1   7
ATOM      7  C   UNL d   1      52.610  33.785  53.570  0.00  0.00     0.102 A 
ATOM      8  N   UNL d   1      51.935  33.315  53.522  0.00  0.00    -0.222 NA
ATOM      9  C   UNL d   1      51.360  33.739  53.106  0.00  0.00     0.199 A 
ATOM     10  N   UNL d   1      51.681  34.468  52.899  0.00  0.00    -0.221 NA
ATOM     11  C   UNL d   1      52.455  34.501  53.184  0.00  0.00     0.120 A 
ENDBRANCH   1   7
TORSDOF 1
ENDMDL
MODEL 4
REMARK VINA RESULT:      -6.9      1.954      2.893
REMARK  1 active torsions:
REMARK  status: ('A' for Active; 'I' for Inactive)
REMARK    1  A    between atoms: C_6  and  C_2 
ROOT
ATOM      1  C   UNL d   1      52.775  33.685  53.637  0.00  0.00     0.019 A 
ATOM      2  C   UNL d   1      52.141  33.177  53.555  0.00  0.00     0.001 A 
ATOM      3  C   UNL d   1      52.756  34.442  53.333  0.00  0.00     0.001 A 
ATOM      4  C   UNL d   1      52.086  34.704  52.932  0.00  0.00     0.000 A 
ATOM      5  C   UNL d   1      51.464  33.434  53.153  0.00  0.00     0.000 A 
ATOM      6  C   UNL d   1      51.439  34.195  52.843  0.00  0.00     0.000 A 
ENDROOT
BRANCH   1   7
ATOM      7  C   UNL d   1      53.453  33.425  54.041  0.00  0.00     0.102 A 
ATOM      8  N   UNL d   1      53.617  33.549  54.839  0.00  0.00    -0.222 NA
ATOM      9  C   UNL d   1      54.346  33.197  55.006  0.00  0.00     0.199 A 
ATOM     10  N   UNL d   1      54.631  32.857  54.313  0.00  0.00    -0.221 NA
ATOM     11  C   UNL d   1      54.081  32.996  53.712  0.00  0.00     0.120 A 
ENDBRANCH   1   7
TORSDOF 1
ENDMDL
MODEL 5
REMARK VINA RESULT:      -6.6      1.190      1.699
REMARK  1 active torsions:
REMARK  status: ('A' for Active; 'I' for Inactive)
REMARK    1  A    between atoms: C_6  and  C_2 
ROOT
ATOM      1  C   UNL d   1      53.274  31.591  53.397  0.00  0.00     0.019 A 
ATOM      2  C   UNL d   1      54.019  31.888  53.555  0.00  0.00     0.001 A 
ATOM      3  C   UNL d   1      52.654  32.081  53.194  0.00  0.00     0.001 A 
ATOM      4  C   UNL d   1      52.776  32.895  53.145  0.00  0.00     0.000 A 
ATOM      5  C   UNL d   1      54.148  32.705  53.507  0.00  0.00     0.000 A 
ATOM      6  C   UNL d   1      53.528  33.204  53.303  0.00  0.00     0.000 A 
ENDROOT
BRANCH   1   7
ATOM      7  C   UNL d   1      53.147  30.771  53.446  0.00  0.00     0.102 A 
ATOM      8  N   UNL d   1      53.423  30.274  54.042  0.00  0.00    -0.222 NA
ATOM      9  C   UNL d   1      53.169  29.506  53.871  0.00  0.00     0.199 A 
ATOM     10  N   UNL d   1      52.737  29.530  53.171  0.00  0.00    -0.221 NA
ATOM     11  C   UNL d   1      52.721  30.312  52.904  0.00  0.00     0.120 A 
ENDBRANCH   1   7
TORSDOF 1
ENDMDL
MODEL 6
REMARK VINA RESULT:      -6.3      1.274      2.685
REMARK  1 active torsions:
REMARK  status: ('A' for Active; 'I' for Inactive)
REMARK    1  A    between atoms: C_6  and  C_2 
ROOT
ATOM      1  C   UNL d   1      53.283  31.562  53.467  0.00  0.00     0.019 A 
ATOM      2  C   UNL d   1      53.603  31.006  53.973  0.00  0.00     0.001 A 
ATOM      3  C   UNL d   1      52.750  31.353  52.886  0.00  0.00     0.001 A 
ATOM      4  C   UNL d   1      52.525  30.565  52.803  0.00  0.00     0.000 A 
ATOM      5  C   UNL d   1      53.381  30.212  53.895  0.00  0.00     0.000 A 
ATOM      6  C   UNL d   1      52.844  29.994  53.312  0.00  0.00     0.000 A 
ENDROOT
BRANCH   1   7
ATOM      7  C   UNL d   1      53.508  32.358  53.547  0.00  0.00     0.102 A 
ATOM      8  N   UNL d   1      54.267  32.659  53.439  0.00  0.00    -0.222 NA
ATOM      9  C   UNL d   1      54.239  33.474  53.574  0.00  0.00     0.199 A 
ATOM     10  N   UNL d   1      53.465  33.675  53.764  0.00  0.00    -0.221 NA
ATOM     11  C   UNL d   1      53.008  32.987  53.749  0.00  0.00     0.120 A 
ENDBRANCH   1   7
TORSDOF 1
ENDMDL
