MODEL 1
REMARK VINA RESULT:      -6.9      0.000      0.000
REMARK  4 active torsions:
REMARK  status: ('A' for Active; 'I' for Inactive)
REMARK    1  A    between atoms: C_5  and  C_1 
REMARK       I    between atoms: N_8  and  C_5 
REMARK    2  A    between atoms: C_10  and  N_8 
REMARK    3  A    between atoms: C_13  and  C_10 
REMARK    4  A    between atoms: C_11  and  C_13 
ROOT
ATOM      1  C   UNL d   1     -47.007  12.500  23.322  0.00  0.00     0.299 C 
ATOM      2  O   UNL d   1     -47.144  13.224  23.680  0.00  0.00    -0.263 OA
ATOM      3  N   UNL d   1     -47.638  12.060  23.022  0.00  0.00    -0.205 NA
ENDROOT
BRANCH   1   4
ATOM      4  C   UNL d   1     -46.236  12.208  23.261  0.00  0.00     0.162 A 
ATOM      5  N   UNL d   1     -45.925  11.589  23.697  0.00  0.00    -0.143 NA
ATOM      6  N   UNL d   1     -45.135  11.475  23.462  0.00  0.00    -0.148 NA
ATOM      7  C   UNL d   1     -44.972  12.041  22.873  0.00  0.00     0.105 A 
ATOM      8  C   UNL d   1     -45.653  12.491  22.751  0.00  0.00     0.044 A 
ATOM      9  C   UNL d   1     -44.296  12.192  22.444  0.00  0.00     0.021 A 
ATOM     10  C   UNL d   1     -45.644  13.093  22.193  0.00  0.00     0.003 A 
ATOM     11  C   UNL d   1     -44.971  13.244  21.766  0.00  0.00     0.000 A 
ATOM     12  C   UNL d   1     -44.298  12.797  21.889  0.00  0.00     0.002 A 
ENDBRANCH   1   4
BRANCH   3  13
ATOM     13  C   UNL d   1     -48.409  12.352  23.084  0.00  0.00     0.102 C 
BRANCH  13  14
ATOM     14  C   UNL d   1     -49.031  11.937  22.725  0.00  0.00     0.021 C 
BRANCH  14  15
ATOM     15  C   UNL d   1     -49.709  12.355  22.491  0.00  0.00     0.002 A 
ATOM     16  C   UNL d   1     -50.287  12.532  23.060  0.00  0.00     0.000 A 
ATOM     17  C   UNL d   1     -50.966  12.949  22.827  0.00  0.00     0.000 A 
ATOM     18  C   UNL d   1     -51.063  13.182  22.048  0.00  0.00     0.000 A 
ATOM     19  C   UNL d   1     -50.484  13.000  21.495  0.00  0.00     0.000 A 
ATOM     20  C   UNL d   1     -49.815  12.593  21.707  0.00  0.00     0.000 A 
ENDBRANCH  14  15
ENDBRANCH  13  14
ENDBRANCH   3  13
TORSDOF 4
ENDMDL
MODEL 2
REMARK VINA RESULT:      -6.7      1.151      4.532
REMARK  4 active torsions:
REMARK  status: ('A' for Active; 'I' for Inactive)
REMARK    1  A    between atoms: C_5  and  C_1 
REMARK       I    between atoms: N_8  and  C_5 
REMARK    2  A    between atoms: C_10  and  N_8 
REMARK    3  A    between atoms: C_13  and  C_10 
REMARK    4  A    between atoms: C_11  and  C_13 
ROOT
ATOM      1  C   UNL d   1     -48.506  11.544  22.998  0.00  0.00     0.299 C 
ATOM      2  O   UNL d   1     -48.298  10.867  22.586  0.00  0.00    -0.263 OA
ATOM      3  N   UNL d   1     -47.920  12.027  23.324  0.00  0.00    -0.205 NA
ENDROOT
BRANCH   1   4
ATOM      4  C   UNL d   1     -49.302  11.745  23.088  0.00  0.00     0.162 A 
ATOM      5  N   UNL d   1     -49.794  11.487  23.690  0.00  0.00    -0.143 NA
ATOM      6  N   UNL d   1     -50.547  11.819  23.572  0.00  0.00    -0.148 NA
ATOM      7  C   UNL d   1     -50.503  12.286  22.884  0.00  0.00     0.105 A 
ATOM      8  C   UNL d   1     -49.734  12.238  22.587  0.00  0.00     0.044 A 
ATOM      9  C   UNL d   1     -51.064  12.738  22.503  0.00  0.00     0.021 A 
ATOM     10  C   UNL d   1     -49.539  12.650  21.905  0.00  0.00     0.003 A 
ATOM     11  C   UNL d   1     -50.096  13.100  21.525  0.00  0.00     0.000 A 
ATOM     12  C   UNL d   1     -50.857  13.146  21.821  0.00  0.00     0.002 A 
ENDBRANCH   1   4
BRANCH   3  13
ATOM     13  C   UNL d   1     -47.124  11.826  23.234  0.00  0.00     0.102 C 
BRANCH  13  14
ATOM     14  C   UNL d   1     -46.541  12.327  23.543  0.00  0.00     0.021 C 
BRANCH  14  15
ATOM     15  C   UNL d   1     -45.984  12.662  23.026  0.00  0.00     0.002 A 
ATOM     16  C   UNL d   1     -45.337  12.203  22.781  0.00  0.00     0.000 A 
ATOM     17  C   UNL d   1     -44.781  12.538  22.264  0.00  0.00     0.000 A 
ATOM     18  C   UNL d   1     -44.868  13.308  22.000  0.00  0.00     0.000 A 
ATOM     19  C   UNL d   1     -45.514  13.751  22.251  0.00  0.00     0.000 A 
ATOM     20  C   UNL d   1     -46.066  13.439  22.756  0.00  0.00     0.000 A 
ENDBRANCH  14  15
ENDBRANCH  13  14
ENDBRANCH   3  13
TORSDOF 4
ENDMDL
MODEL 3
REMARK VINA RESULT:      -6.5      1.753      2.197
REMARK  4 active torsions:
REMARK  status: ('A' for Active; 'I' for Inactive)
REMARK    1  A    between atoms: C_5  and  C_1 
REMARK       I    between atoms: N_8  and  C_5 
REMARK    2  A    between atoms: C_10  and  N_8 
REMARK    3  A    between atoms: C_13  and  C_10 
REMARK    4  A    between atoms: C_11  and  C_13 
ROOT
ATOM      1  C   UNL d   1     -46.745  13.883  23.003  0.00  0.00     0.299 C 
ATOM      2  O   UNL d   1     -46.586  14.477  23.543  0.00  0.00    -0.263 OA
ATOM      3  N   UNL d   1     -47.419  13.926  22.527  0.00  0.00    -0.205 NA
ENDROOT
BRANCH   1   4
ATOM      4  C   UNL d   1     -46.232  13.239  22.932  0.00  0.00     0.162 A 
ATOM      5  N   UNL d   1     -45.479  13.262  22.612  0.00  0.00    -0.143 NA
ATOM      6  N   UNL d   1     -45.156  12.497  22.648  0.00  0.00    -0.148 NA
ATOM      7  C   UNL d   1     -45.731  12.006  22.998  0.00  0.00     0.105 A 
ATOM      8  C   UNL d   1     -46.393  12.466  23.172  0.00  0.00     0.044 A 
ATOM      9  C   UNL d   1     -45.724  11.210  23.173  0.00  0.00     0.021 A 
ATOM     10  C   UNL d   1     -47.047  12.115  23.524  0.00  0.00     0.003 A 
ATOM     11  C   UNL d   1     -47.041  11.324  23.698  0.00  0.00     0.000 A 
ATOM     12  C   UNL d   1     -46.384  10.870  23.524  0.00  0.00     0.002 A 
ENDBRANCH   1   4
BRANCH   3  13
ATOM     13  C   UNL d   1     -47.932  14.569  22.598  0.00  0.00     0.102 C 
BRANCH  13  14
ATOM     14  C   UNL d   1     -48.572  14.639  22.074  0.00  0.00     0.021 C 
BRANCH  14  15
ATOM     15  C   UNL d   1     -49.326  14.801  22.382  0.00  0.00     0.002 A 
ATOM     16  C   UNL d   1     -49.951  14.285  22.202  0.00  0.00     0.000 A 
ATOM     17  C   UNL d   1     -50.705  14.446  22.510  0.00  0.00     0.000 A 
ATOM     18  C   UNL d   1     -50.830  15.103  22.982  0.00  0.00     0.000 A 
ATOM     19  C   UNL d   1     -50.202  15.606  23.152  0.00  0.00     0.000 A 
ATOM     20  C   UNL d   1     -49.460  15.462  22.859  0.00  0.00     0.000 A 
ENDBRANCH  14  15
ENDBRANCH  13  14
ENDBRANCH   3  13
TORSDOF 4
ENDMDL
MODEL 4
REMARK VINA RESULT:      -6.5      1.950      4.898
REMARK  4 active torsions:
REMARK  status: ('A' for Active; 'I' for Inactive)
REMARK    1  A    between atoms: C_5  and  C_1 
REMARK       I    between atoms: N_8  and  C_5 
REMARK    2  A    between atoms: C_10  and  N_8 
REMARK    3  A    between atoms: C_13  and  C_10 
REMARK    4  A    between atoms: C_11  and  C_13 
ROOT
ATOM      1  C   UNL d   1     -48.917  13.600  22.543  0.00  0.00     0.299 C 
ATOM      2  O   UNL d   1     -48.817  13.642  21.732  0.00  0.00    -0.263 OA
ATOM      3  N   UNL d   1     -48.285  13.377  23.027  0.00  0.00    -0.205 NA
ENDROOT
BRANCH   1   4
ATOM      4  C   UNL d   1     -49.649  13.781  22.880  0.00  0.00     0.162 A 
ATOM      5  N   UNL d   1     -50.247  13.244  23.038  0.00  0.00    -0.143 NA
ATOM      6  N   UNL d   1     -50.886  13.655  23.375  0.00  0.00    -0.148 NA
ATOM      7  C   UNL d   1     -50.663  14.457  23.420  0.00  0.00     0.105 A 
ATOM      8  C   UNL d   1     -49.900  14.531  23.114  0.00  0.00     0.044 A 
ATOM      9  C   UNL d   1     -51.061  15.111  23.698  0.00  0.00     0.021 A 
ATOM     10  C   UNL d   1     -49.545  15.271  23.092  0.00  0.00     0.003 A 
ATOM     11  C   UNL d   1     -49.940  15.922  23.369  0.00  0.00     0.000 A 
ATOM     12  C   UNL d   1     -50.695  15.846  23.671  0.00  0.00     0.002 A 
ENDBRANCH   1   4
BRANCH   3  13
ATOM     13  C   UNL d   1     -47.553  13.197  22.690  0.00  0.00     0.102 C 
BRANCH  13  14
ATOM     14  C   UNL d   1     -46.901  13.058  23.184  0.00  0.00     0.021 C 
BRANCH  14  15
ATOM     15  C   UNL d   1     -46.153  12.950  22.841  0.00  0.00     0.002 A 
ATOM     16  C   UNL d   1     -45.783  12.210  22.909  0.00  0.00     0.000 A 
ATOM     17  C   UNL d   1     -45.035  12.103  22.565  0.00  0.00     0.000 A 
ATOM     18  C   UNL d   1     -44.668  12.717  22.165  0.00  0.00     0.000 A 
ATOM     19  C   UNL d   1     -45.046  13.444  22.106  0.00  0.00     0.000 A 
ATOM     20  C   UNL d   1     -45.777  13.565  22.436  0.00  0.00     0.000 A 
ENDBRANCH  14  15
ENDBRANCH  13  14
ENDBRANCH   3  13
TORSDOF 4
ENDMDL
MODEL 5
REMARK VINA RESULT:      -6.4      1.458      4.859
REMARK  4 active torsions:
REMARK  status: ('A' for Active; 'I' for Inactive)
REMARK    1  A    between atoms: C_5  and  C_1 
REMARK       I    between atoms: N_8  and  C_5 
REMARK    2  A    between atoms: C_10  and  N_8 
REMARK    3  A    between atoms: C_13  and  C_10 
REMARK    4  A    between atoms: C_11  and  C_13 
ROOT
ATOM      1  C   UNL d   1     -48.577  13.282  22.056  0.00  0.00     0.299 C 
ATOM      2  O   UNL d   1     -48.508  12.926  21.322  0.00  0.00    -0.263 OA
ATOM      3  N   UNL d   1     -47.899  13.477  22.487  0.00  0.00    -0.205 NA
ENDROOT
BRANCH   1   4
ATOM      4  C   UNL d   1     -49.323  13.448  22.368  0.00  0.00     0.162 A 
ATOM      5  N   UNL d   1     -49.723  14.159  22.296  0.00  0.00    -0.143 NA
ATOM      6  N   UNL d   1     -50.453  14.090  22.689  0.00  0.00    -0.148 NA
ATOM      7  C   UNL d   1     -50.488  13.319  23.003  0.00  0.00     0.105 A 
ATOM      8  C   UNL d   1     -49.790  12.926  22.803  0.00  0.00     0.044 A 
ATOM      9  C   UNL d   1     -51.064  12.941  23.438  0.00  0.00     0.021 A 
ATOM     10  C   UNL d   1     -49.681  12.149  23.047  0.00  0.00     0.003 A 
ATOM     11  C   UNL d   1     -50.254  11.773  23.480  0.00  0.00     0.000 A 
ATOM     12  C   UNL d   1     -50.944  12.164  23.676  0.00  0.00     0.002 A 
ENDBRANCH   1   4
BRANCH   3  13
ATOM     13  C   UNL d   1     -47.152  13.311  22.175  0.00  0.00     0.102 C 
BRANCH  13  14
ATOM     14  C   UNL d   1     -46.475  13.556  22.588  0.00  0.00     0.021 C 
BRANCH  14  15
ATOM     15  C   UNL d   1     -45.763  13.146  22.469  0.00  0.00     0.002 A 
ATOM     16  C   UNL d   1     -45.610  12.468  22.923  0.00  0.00     0.000 A 
ATOM     17  C   UNL d   1     -44.898  12.058  22.804  0.00  0.00     0.000 A 
ATOM     18  C   UNL d   1     -44.355  12.318  22.249  0.00  0.00     0.000 A 
ATOM     19  C   UNL d   1     -44.520  12.991  21.807  0.00  0.00     0.000 A 
ATOM     20  C   UNL d   1     -45.211  13.403  21.910  0.00  0.00     0.000 A 
ENDBRANCH  14  15
ENDBRANCH  13  14
ENDBRANCH   3  13
TORSDOF 4
ENDMDL
MODEL 6
REMARK VINA RESULT:      -6.1      8.436      9.440
REMARK  4 active torsions:
REMARK  status: ('A' for Active; 'I' for Inactive)
REMARK    1  A    between atoms: C_5  and  C_1 
REMARK       I    between atoms: N_8  and  C_5 
REMARK    2  A    between atoms: C_10  and  N_8 
REMARK    3  A    between atoms: C_13  and  C_10 
REMARK    4  A    between atoms: C_11  and  C_13 
ROOT
ATOM      1  C   UNL d   1     -39.697  14.130  19.163  0.00  0.00     0.299 C 
ATOM      2  O   UNL d   1     -39.004  13.701  19.088  0.00  0.00    -0.263 OA
ATOM      3  N   UNL d   1     -39.954  14.375  19.909  0.00  0.00    -0.205 NA
ENDROOT
BRANCH   1   4
ATOM      4  C   UNL d   1     -40.141  14.319  18.493  0.00  0.00     0.162 A 
ATOM      5  N   UNL d   1     -40.849  13.969  18.275  0.00  0.00    -0.143 NA
ATOM      6  N   UNL d   1     -41.108  14.321  17.568  0.00  0.00    -0.148 NA
ATOM      7  C   UNL d   1     -40.541  14.895  17.359  0.00  0.00     0.105 A 
ATOM      8  C   UNL d   1     -39.946  14.891  17.931  0.00  0.00     0.044 A 
ATOM      9  C   UNL d   1     -40.502  15.407  16.727  0.00  0.00     0.021 A 
ATOM     10  C   UNL d   1     -39.313  15.409  17.858  0.00  0.00     0.003 A 
ATOM     11  C   UNL d   1     -39.274  15.919  17.229  0.00  0.00     0.000 A 
ATOM     12  C   UNL d   1     -39.864  15.921  16.664  0.00  0.00     0.002 A 
ENDBRANCH   1   4
BRANCH   3  13
ATOM     13  C   UNL d   1     -39.510  14.187  20.580  0.00  0.00     0.102 C 
BRANCH  13  14
ATOM     14  C   UNL d   1     -39.834  14.318  21.332  0.00  0.00     0.021 C 
BRANCH  14  15
ATOM     15  C   UNL d   1     -39.337  14.271  21.996  0.00  0.00     0.002 A 
ATOM     16  C   UNL d   1     -39.172  13.525  22.321  0.00  0.00     0.000 A 
ATOM     17  C   UNL d   1     -38.675  13.478  22.985  0.00  0.00     0.000 A 
ATOM     18  C   UNL d   1     -38.354  14.156  23.313  0.00  0.00     0.000 A 
ATOM     19  C   UNL d   1     -38.526  14.887  22.981  0.00  0.00     0.000 A 
ATOM     20  C   UNL d   1     -39.009  14.951  22.333  0.00  0.00     0.000 A 
ENDBRANCH  14  15
ENDBRANCH  13  14
ENDBRANCH   3  13
TORSDOF 4
ENDMDL
MODEL 7
REMARK VINA RESULT:      -5.6      8.765     10.039
REMARK  4 active torsions:
REMARK  status: ('A' for Active; 'I' for Inactive)
REMARK    1  A    between atoms: C_5  and  C_1 
REMARK       I    between atoms: N_8  and  C_5 
REMARK    2  A    between atoms: C_10  and  N_8 
REMARK    3  A    between atoms: C_13  and  C_10 
REMARK    4  A    between atoms: C_11  and  C_13 
ROOT
ATOM      1  C   UNL d   1     -39.671  14.218  18.426  0.00  0.00     0.299 C 
ATOM      2  O   UNL d   1     -40.272  13.675  18.541  0.00  0.00    -0.263 OA
ATOM      3  N   UNL d   1     -39.227  14.486  19.069  0.00  0.00    -0.205 NA
ENDROOT
BRANCH   1   4
ATOM      4  C   UNL d   1     -39.506  14.499  17.667  0.00  0.00     0.162 A 
ATOM      5  N   UNL d   1     -39.807  15.185  17.336  0.00  0.00    -0.143 NA
ATOM      6  N   UNL d   1     -39.502  15.261  16.567  0.00  0.00    -0.148 NA
ATOM      7  C   UNL d   1     -39.006  14.604  16.435  0.00  0.00     0.105 A 
ATOM      8  C   UNL d   1     -39.011  14.137  17.116  0.00  0.00     0.044 A 
ATOM      9  C   UNL d   1     -38.562  14.386  15.788  0.00  0.00     0.021 A 
ATOM     10  C   UNL d   1     -38.564  13.448  17.134  0.00  0.00     0.003 A 
ATOM     11  C   UNL d   1     -38.122  13.230  16.491  0.00  0.00     0.000 A 
ATOM     12  C   UNL d   1     -38.119  13.695  15.819  0.00  0.00     0.002 A 
ENDBRANCH   1   4
BRANCH   3  13
ATOM     13  C   UNL d   1     -39.392  14.205  19.828  0.00  0.00     0.102 C 
BRANCH  13  14
ATOM     14  C   UNL d   1     -39.025  14.561  20.482  0.00  0.00     0.021 C 
BRANCH  14  15
ATOM     15  C   UNL d   1     -38.888  14.104  21.162  0.00  0.00     0.002 A 
ATOM     16  C   UNL d   1     -39.436  14.138  21.785  0.00  0.00     0.000 A 
ATOM     17  C   UNL d   1     -39.299  13.682  22.464  0.00  0.00     0.000 A 
ATOM     18  C   UNL d   1     -38.634  13.206  22.520  0.00  0.00     0.000 A 
ATOM     19  C   UNL d   1     -38.100  13.183  21.896  0.00  0.00     0.000 A 
ATOM     20  C   UNL d   1     -38.219  13.622  21.225  0.00  0.00     0.000 A 
ENDBRANCH  14  15
ENDBRANCH  13  14
ENDBRANCH   3  13
TORSDOF 4
ENDMDL
MODEL 8
REMARK VINA RESULT:      -5.5      8.472      8.930
REMARK  4 active torsions:
REMARK  status: ('A' for Active; 'I' for Inactive)
REMARK    1  A    between atoms: C_5  and  C_1 
REMARK       I    between atoms: N_8  and  C_5 
REMARK    2  A    between atoms: C_10  and  N_8 
REMARK    3  A    between atoms: C_13  and  C_10 
REMARK    4  A    between atoms: C_11  and  C_13 
ROOT
ATOM      1  C   UNL d   1     -39.985  15.170  21.065  0.00  0.00     0.299 C 
ATOM      2  O   UNL d   1     -40.750  14.876  21.079  0.00  0.00    -0.263 OA
ATOM      3  N   UNL d   1     -39.650  15.419  20.352  0.00  0.00    -0.205 NA
ENDROOT
BRANCH   1   4
ATOM      4  C   UNL d   1     -39.547  15.217  21.764  0.00  0.00     0.162 A 
ATOM      5  N   UNL d   1     -39.405  15.901  22.191  0.00  0.00    -0.143 NA
ATOM      6  N   UNL d   1     -38.943  15.703  22.854  0.00  0.00    -0.148 NA
ATOM      7  C   UNL d   1     -38.808  14.882  22.821  0.00  0.00     0.105 A 
ATOM      8  C   UNL d   1     -39.182  14.586  22.147  0.00  0.00     0.044 A 
ATOM      9  C   UNL d   1     -38.395  14.384  23.316  0.00  0.00     0.021 A 
ATOM     10  C   UNL d   1     -39.134  13.783  21.980  0.00  0.00     0.003 A 
ATOM     11  C   UNL d   1     -38.724  13.287  22.473  0.00  0.00     0.000 A 
ATOM     12  C   UNL d   1     -38.355  13.583  23.139  0.00  0.00     0.002 A 
ENDBRANCH   1   4
BRANCH   3  13
ATOM     13  C   UNL d   1     -40.088  15.371  19.653  0.00  0.00     0.102 C 
BRANCH  13  14
ATOM     14  C   UNL d   1     -39.767  15.673  18.950  0.00  0.00     0.021 C 
BRANCH  14  15
ATOM     15  C   UNL d   1     -40.146  15.504  18.231  0.00  0.00     0.002 A 
ATOM     16  C   UNL d   1     -39.836  14.907  17.744  0.00  0.00     0.000 A 
ATOM     17  C   UNL d   1     -40.215  14.739  17.025  0.00  0.00     0.000 A 
ATOM     18  C   UNL d   1     -40.883  15.154  16.800  0.00  0.00     0.000 A 
ATOM     19  C   UNL d   1     -41.180  15.743  17.291  0.00  0.00     0.000 A 
ATOM     20  C   UNL d   1     -40.821  15.920  17.997  0.00  0.00     0.000 A 
ENDBRANCH  14  15
ENDBRANCH  13  14
ENDBRANCH   3  13
TORSDOF 4
ENDMDL
MODEL 9
REMARK VINA RESULT:      -5.4      7.726      9.601
REMARK  4 active torsions:
REMARK  status: ('A' for Active; 'I' for Inactive)
REMARK    1  A    between atoms: C_5  and  C_1 
REMARK       I    between atoms: N_8  and  C_5 
REMARK    2  A    between atoms: C_10  and  N_8 
REMARK    3  A    between atoms: C_13  and  C_10 
REMARK    4  A    between atoms: C_11  and  C_13 
ROOT
ATOM      1  C   UNL d   1     -39.891  14.031  17.757  0.00  0.00     0.299 C 
ATOM      2  O   UNL d   1     -40.671  14.031  17.510  0.00  0.00    -0.263 OA
ATOM      3  N   UNL d   1     -39.709  14.150  18.554  0.00  0.00    -0.205 NA
ENDROOT
BRANCH   1   4
ATOM      4  C   UNL d   1     -39.283  13.911  17.210  0.00  0.00     0.162 A 
ATOM      5  N   UNL d   1     -38.904  13.200  17.066  0.00  0.00    -0.143 NA
ATOM      6  N   UNL d   1     -38.331  13.324  16.477  0.00  0.00    -0.148 NA
ATOM      7  C   UNL d   1     -38.369  14.129  16.265  0.00  0.00     0.105 A 
ATOM      8  C   UNL d   1     -38.957  14.488  16.720  0.00  0.00     0.044 A 
ATOM      9  C   UNL d   1     -37.944  14.563  15.723  0.00  0.00     0.021 A 
ATOM     10  C   UNL d   1     -39.110  15.289  16.620  0.00  0.00     0.003 A 
ATOM     11  C   UNL d   1     -38.687  15.722  16.081  0.00  0.00     0.000 A 
ATOM     12  C   UNL d   1     -38.106  15.363  15.632  0.00  0.00     0.002 A 
ENDBRANCH   1   4
BRANCH   3  13
ATOM     13  C   UNL d   1     -40.317  14.269  19.101  0.00  0.00     0.102 C 
BRANCH  13  14
ATOM     14  C   UNL d   1     -40.160  14.173  19.910  0.00  0.00     0.021 C 
BRANCH  14  15
ATOM     15  C   UNL d   1     -40.417  14.757  20.441  0.00  0.00     0.002 A 
ATOM     16  C   UNL d   1     -39.852  15.161  20.896  0.00  0.00     0.000 A 
ATOM     17  C   UNL d   1     -40.109  15.746  21.427  0.00  0.00     0.000 A 
ATOM     18  C   UNL d   1     -40.905  15.922  21.499  0.00  0.00     0.000 A 
ATOM     19  C   UNL d   1     -41.453  15.514  21.042  0.00  0.00     0.000 A 
ATOM     20  C   UNL d   1     -41.219  14.940  20.520  0.00  0.00     0.000 A 
ENDBRANCH  14  15
ENDBRANCH  13  14
ENDBRANCH   3  13
TORSDOF 4
ENDMDL
