MODEL 1
REMARK VINA RESULT:       1.9      0.000      0.000
REMARK  4 active torsions:
REMARK  status: ('A' for Active; 'I' for Inactive)
REMARK    1  A    between atoms: N_4  and  C_2 
REMARK       I    between atoms: C_3  and  N_4 
REMARK    2  A    between atoms: C_10  and  C_3 
REMARK    3  A    between atoms: C_12  and  N_4 
REMARK    4  A    between atoms: O_18  and  C_15 
ROOT
ATOM      1  C   UNL d   1     -42.303-123.155 -51.429  0.00  0.00     0.265 C 
ATOM      2  N   UNL d   1     -41.845-122.275 -52.191  0.00  0.00    -0.274 N 
ATOM      3  O   UNL d   1     -42.514-123.816 -51.827  0.00  0.00    -0.267 OA
ENDROOT
BRANCH   2   4
ATOM      4  C   UNL d   1     -41.624-121.605 -51.844  0.00  0.00     0.079 A 
ATOM      5  C   UNL d   1     -41.759-120.879 -52.112  0.00  0.00     0.116 A 
ATOM      6  S   UNL d   1     -41.448-120.373 -51.603  0.00  0.00     0.213 S 
ATOM      7  C   UNL d   1     -41.123-120.789 -51.022  0.00  0.00     0.100 A 
ATOM      8  O   UNL d   1     -41.137-119.867 -51.093  0.00  0.00    -0.217 OA
ATOM      9  O   UNL d   1     -41.760-119.931 -52.161  0.00  0.00    -0.217 OA
ATOM     10  C   UNL d   1     -41.231-121.545 -51.171  0.00  0.00     0.030 A 
ENDBRANCH   2   4
BRANCH   2  11
ATOM     11  C   UNL d   1     -41.780-122.392 -53.003  0.00  0.00     0.067 A 
ATOM     12  C   UNL d   1     -41.207-122.899 -53.290  0.00  0.00     0.018 A 
ATOM     13  C   UNL d   1     -41.139-123.020 -54.117  0.00  0.00     0.002 A 
ATOM     14  C   UNL d   1     -41.646-122.630 -54.636  0.00  0.00     0.000 A 
ATOM     15  C   UNL d   1     -42.224-122.118 -54.343  0.00  0.00     0.002 A 
ATOM     16  C   UNL d   1     -42.298-121.994 -53.532  0.00  0.00     0.018 A 
ENDBRANCH   2  11
BRANCH   1  17
ATOM     17  C   UNL d   1     -42.377-123.060 -50.613  0.00  0.00     0.057 A 
ATOM     18  C   UNL d   1     -43.014-122.623 -50.291  0.00  0.00     0.007 A 
ATOM     19  C   UNL d   1     -43.078-122.534 -49.474  0.00  0.00     0.024 A 
ATOM     20  C   UNL d   1     -42.518-122.875 -48.967  0.00  0.00     0.094 A 
ATOM     21  C   UNL d   1     -41.887-123.308 -49.277  0.00  0.00     0.024 A 
ATOM     22  C   UNL d   1     -41.808-123.407 -50.106  0.00  0.00     0.007 A 
BRANCH  20  23
ATOM     23  O   UNL d   1     -42.592-122.780 -48.142  0.00  0.00    -0.328 OA
ATOM     24  C   UNL d   1     -42.472-123.430 -47.627  0.00  0.00     0.181 C 
ENDBRANCH  20  23
ENDBRANCH   1  17
TORSDOF 4
ENDMDL
MODEL 2
REMARK VINA RESULT:       2.1      1.044      3.908
REMARK  4 active torsions:
REMARK  status: ('A' for Active; 'I' for Inactive)
REMARK    1  A    between atoms: N_4  and  C_2 
REMARK       I    between atoms: C_3  and  N_4 
REMARK    2  A    between atoms: C_10  and  C_3 
REMARK    3  A    between atoms: C_12  and  N_4 
REMARK    4  A    between atoms: O_18  and  C_15 
ROOT
ATOM      1  C   UNL d   1     -42.015-123.040 -52.606  0.00  0.00     0.265 C 
ATOM      2  N   UNL d   1     -41.755-122.464 -51.527  0.00  0.00    -0.274 N 
ATOM      3  O   UNL d   1     -42.172-123.817 -52.502  0.00  0.00    -0.267 OA
ENDROOT
BRANCH   2   4
ATOM      4  C   UNL d   1     -41.593-121.697 -51.580  0.00  0.00     0.079 A 
ATOM      5  C   UNL d   1     -41.861-121.133 -51.102  0.00  0.00     0.116 A 
ATOM      6  S   UNL d   1     -41.569-120.450 -51.348  0.00  0.00     0.213 S 
ATOM      7  C   UNL d   1     -41.123-120.595 -51.977  0.00  0.00     0.100 A 
ATOM      8  O   UNL d   1     -41.277-119.767 -51.594  0.00  0.00    -0.217 OA
ATOM      9  O   UNL d   1     -42.003-120.272 -50.728  0.00  0.00    -0.217 OA
ATOM     10  C   UNL d   1     -41.138-121.360 -52.119  0.00  0.00     0.030 A 
ENDBRANCH   2   4
BRANCH   2  11
ATOM     11  C   UNL d   1     -41.754-122.865 -50.808  0.00  0.00     0.067 A 
ATOM     12  C   UNL d   1     -41.126-123.355 -50.624  0.00  0.00     0.018 A 
ATOM     13  C   UNL d   1     -41.123-123.764 -49.892  0.00  0.00     0.002 A 
ATOM     14  C   UNL d   1     -41.747-123.672 -49.363  0.00  0.00     0.000 A 
ATOM     15  C   UNL d   1     -42.380-123.177 -49.552  0.00  0.00     0.002 A 
ATOM     16  C   UNL d   1     -42.392-122.771 -50.269  0.00  0.00     0.018 A 
ENDBRANCH   2  11
BRANCH   1  17
ATOM     17  C   UNL d   1     -42.022-122.658 -53.338  0.00  0.00     0.057 A 
ATOM     18  C   UNL d   1     -41.352-122.685 -53.839  0.00  0.00     0.007 A 
ATOM     19  C   UNL d   1     -41.371-122.301 -54.568  0.00  0.00     0.024 A 
ATOM     20  C   UNL d   1     -42.047-121.888 -54.811  0.00  0.00     0.094 A 
ATOM     21  C   UNL d   1     -42.712-121.857 -54.322  0.00  0.00     0.024 A 
ATOM     22  C   UNL d   1     -42.708-122.243 -53.578  0.00  0.00     0.007 A 
BRANCH  20  23
ATOM     23  O   UNL d   1     -42.056-121.502 -55.550  0.00  0.00    -0.328 OA
ATOM     24  C   UNL d   1     -42.219-121.930 -56.250  0.00  0.00     0.181 C 
ENDBRANCH  20  23
ENDBRANCH   1  17
TORSDOF 4
ENDMDL
