MODEL 1
REMARK VINA RESULT:      -3.6      0.000      0.000
REMARK  6 active torsions:
REMARK  status: ('A' for Active; 'I' for Inactive)
REMARK    1  A    between atoms: N_10  and  C_3 
REMARK    2  A    between atoms: C_9  and  C_4 
REMARK    3  A    between atoms: C_20  and  N_13 
REMARK    4  A    between atoms: O_24  and  C_14 
REMARK    5  A    between atoms: O_26  and  C_16 
REMARK    6  A    between atoms: C_25  and  C_20 
ROOT
ATOM      1  N   UNL d   1     -46.597  12.765  22.561  0.00  0.00    -0.196 N 
ATOM      2  C   UNL d   1     -47.344  13.097  22.673  0.00  0.00     0.167 A 
ATOM      3  C   UNL d   1     -45.951  13.253  22.506  0.00  0.00     0.152 A 
ATOM      4  C   UNL d   1     -48.000  12.628  22.730  0.00  0.00     0.055 A 
ATOM      5  N   UNL d   1     -47.169  11.481  22.562  0.00  0.00    -0.163 NA
ATOM      6  C   UNL d   1     -47.915  11.814  22.675  0.00  0.00     0.104 A 
ATOM      7  N   UNL d   1     -47.428  13.911  22.729  0.00  0.00    -0.227 NA
ATOM      8  C   UNL d   1     -46.021  14.060  22.560  0.00  0.00     0.057 A 
ATOM      9  C   UNL d   1     -46.767  14.393  22.672  0.00  0.00     0.086 A 
ATOM     10  C   UNL d   1     -48.561  11.335  22.730  0.00  0.00     0.023 C 
ATOM     11  C   UNL d   1     -46.853  15.236  22.730  0.00  0.00     0.021 C 
ENDROOT
BRANCH   3  12
ATOM     12  N   UNL d   1     -45.185  12.912  22.391  0.00  0.00    -0.286 N 
ATOM     13  C   UNL d   1     -44.919  13.290  21.682  0.00  0.00     0.101 A 
ATOM     14  C   UNL d   1     -44.159  13.098  21.369  0.00  0.00     0.100 A 
ATOM     15  N   UNL d   1     -43.663  12.536  21.754  0.00  0.00    -0.300 N 
ATOM     16  C   UNL d   1     -43.937  12.157  22.470  0.00  0.00     0.100 A 
ATOM     17  C   UNL d   1     -44.690  12.343  22.786  0.00  0.00     0.101 A 
BRANCH  15  18
ATOM     18  C   UNL d   1     -42.897  12.350  21.430  0.00  0.00     0.080 C 
BRANCH  18  19
ATOM     19  C   UNL d   1     -42.337  12.969  21.302  0.00  0.00     0.018 A 
ATOM     20  C   UNL d   1     -42.368  13.426  20.600  0.00  0.00     0.002 A 
ATOM     21  C   UNL d   1     -41.804  14.046  20.475  0.00  0.00     0.000 A 
ATOM     22  C   UNL d   1     -41.218  14.200  21.054  0.00  0.00     0.000 A 
ATOM     23  C   UNL d   1     -41.192  13.737  21.760  0.00  0.00     0.000 A 
ATOM     24  C   UNL d   1     -41.751  13.122  21.882  0.00  0.00     0.002 A 
ENDBRANCH  18  19
ENDBRANCH  15  18
ENDBRANCH   3  12
BRANCH   4  25
ATOM     25  C   UNL d   1     -48.735  12.955  22.841  0.00  0.00     0.007 A 
ATOM     26  C   UNL d   1     -49.194  13.135  22.194  0.00  0.00     0.026 A 
ATOM     27  C   UNL d   1     -49.941  13.467  22.306  0.00  0.00     0.116 A 
ATOM     28  C   UNL d   1     -50.212  13.613  23.064  0.00  0.00     0.116 A 
ATOM     29  C   UNL d   1     -49.744  13.429  23.697  0.00  0.00     0.026 A 
ATOM     30  C   UNL d   1     -49.001  13.098  23.585  0.00  0.00     0.002 A 
BRANCH  27  31
ATOM     31  O   UNL d   1     -50.421  13.656  21.653  0.00  0.00    -0.326 OA
ATOM     32  C   UNL d   1     -50.480  13.110  20.997  0.00  0.00     0.181 C 
ENDBRANCH  27  31
BRANCH  28  33
ATOM     33  O   UNL d   1     -50.982  13.956  23.180  0.00  0.00    -0.326 OA
ATOM     34  C   UNL d   1     -51.064  14.634  23.690  0.00  0.00     0.181 C 
ENDBRANCH  28  33
ENDBRANCH   4  25
TORSDOF 6
ENDMDL
