MODEL 1
REMARK VINA RESULT:      45.3      0.000      0.000
REMARK  4 active torsions:
REMARK  status: ('A' for Active; 'I' for Inactive)
REMARK    1  A    between atoms: C_2  and  S_1 
REMARK    2  A    between atoms: N_3  and  S_1 
REMARK    3  A    between atoms: O_13  and  C_7 
REMARK    4  A    between atoms: O_14  and  C_11 
ROOT
ATOM      1  S   UNL d   1     -51.034  26.021  33.627  0.00  0.00     0.273 S 
ATOM      2  O   UNL d   1     -51.730  26.398  33.869  0.00  0.00    -0.200 OA
ATOM      3  O   UNL d   1     -51.069  25.257  33.306  0.00  0.00    -0.200 OA
ENDROOT
BRANCH   1   4
ATOM      4  C   UNL d   1     -51.757  25.643  33.550  0.00  0.00     0.128 A 
ATOM      5  C   UNL d   1     -51.805  24.820  33.517  0.00  0.00     0.039 A 
ATOM      6  C   UNL d   1     -52.533  24.441  33.440  0.00  0.00     0.095 A 
ATOM      7  C   UNL d   1     -53.215  24.894  33.395  0.00  0.00     0.026 A 
ATOM      8  C   UNL d   1     -53.179  25.710  33.427  0.00  0.00     0.027 A 
ATOM      9  C   UNL d   1     -52.451  26.088  33.504  0.00  0.00     0.106 A 
BRANCH   6  10
ATOM     10  O   UNL d   1     -52.569  23.618  33.408  0.00  0.00    -0.328 OA
ATOM     11  C   UNL d   1     -52.803  23.189  34.072  0.00  0.00     0.181 C 
ENDBRANCH   6  10
BRANCH   9  12
ATOM     12  O   UNL d   1     -52.411  26.907  33.536  0.00  0.00    -0.327 OA
ATOM     13  C   UNL d   1     -53.071  27.357  33.320  0.00  0.00     0.181 C 
ENDBRANCH   9  12
ENDBRANCH   1   4
BRANCH   1  14
ATOM     14  N   UNL d   1     -50.306  26.410  33.709  0.00  0.00    -0.232 N 
ATOM     15  C   UNL d   1     -50.296  27.226  33.845  0.00  0.00     0.075 A 
ATOM     16  C   UNL d   1     -49.569  27.615  33.926  0.00  0.00     0.018 A 
ATOM     17  C   UNL d   1     -51.001  27.652  33.900  0.00  0.00     0.020 C 
ATOM     18  C   UNL d   1     -48.866  27.188  33.871  0.00  0.00     0.003 A 
ATOM     19  C   UNL d   1     -48.882  26.367  33.734  0.00  0.00     0.018 A 
ATOM     20  C   UNL d   1     -49.607  25.976  33.652  0.00  0.00     0.075 A 
ATOM     21  C   UNL d   1     -49.626  25.167  33.517  0.00  0.00     0.020 C 
ENDBRANCH   1  14
TORSDOF 4
ENDMDL
MODEL 2
REMARK VINA RESULT:      45.7      1.136      2.149
REMARK  4 active torsions:
REMARK  status: ('A' for Active; 'I' for Inactive)
REMARK    1  A    between atoms: C_2  and  S_1 
REMARK    2  A    between atoms: N_3  and  S_1 
REMARK    3  A    between atoms: O_13  and  C_7 
REMARK    4  A    between atoms: O_14  and  C_11 
ROOT
ATOM      1  S   UNL d   1     -50.669  24.986  33.453  0.00  0.00     0.273 S 
ATOM      2  O   UNL d   1     -50.687  25.800  33.306  0.00  0.00    -0.200 OA
ATOM      3  O   UNL d   1     -51.374  24.578  33.604  0.00  0.00    -0.200 OA
ENDROOT
BRANCH   1   4
ATOM      4  C   UNL d   1     -51.381  25.390  33.456  0.00  0.00     0.128 A 
ATOM      5  C   UNL d   1     -52.099  24.988  33.390  0.00  0.00     0.039 A 
ATOM      6  C   UNL d   1     -52.815  25.396  33.393  0.00  0.00     0.095 A 
ATOM      7  C   UNL d   1     -52.807  26.213  33.462  0.00  0.00     0.026 A 
ATOM      8  C   UNL d   1     -52.103  26.622  33.528  0.00  0.00     0.027 A 
ATOM      9  C   UNL d   1     -51.388  26.213  33.525  0.00  0.00     0.106 A 
BRANCH   6  10
ATOM     10  O   UNL d   1     -53.525  24.984  33.326  0.00  0.00    -0.328 OA
ATOM     11  C   UNL d   1     -54.047  24.954  33.963  0.00  0.00     0.181 C 
ENDBRANCH   6  10
BRANCH   9  12
ATOM     12  O   UNL d   1     -50.678  26.620  33.591  0.00  0.00    -0.327 OA
ATOM     13  C   UNL d   1     -50.623  27.395  33.307  0.00  0.00     0.181 C 
ENDBRANCH   9  12
ENDBRANCH   1   4
BRANCH   1  14
ATOM     14  N   UNL d   1     -49.943  24.584  33.448  0.00  0.00    -0.232 N 
ATOM     15  C   UNL d   1     -49.937  23.760  33.377  0.00  0.00     0.075 A 
ATOM     16  C   UNL d   1     -49.211  23.359  33.372  0.00  0.00     0.018 A 
ATOM     17  C   UNL d   1     -50.642  23.338  33.311  0.00  0.00     0.020 C 
ATOM     18  C   UNL d   1     -48.507  23.782  33.438  0.00  0.00     0.003 A 
ATOM     19  C   UNL d   1     -48.520  24.611  33.510  0.00  0.00     0.018 A 
ATOM     20  C   UNL d   1     -49.242  25.014  33.515  0.00  0.00     0.075 A 
ATOM     21  C   UNL d   1     -49.258  25.832  33.585  0.00  0.00     0.020 C 
ENDBRANCH   1  14
TORSDOF 4
ENDMDL
