MODEL 1
REMARK VINA RESULT:       2.7      0.000      0.000
REMARK  0 active torsions:
REMARK  status: ('A' for Active; 'I' for Inactive)
ROOT
ATOM      1  C   UNL d   1     -54.798-101.647 -36.967  0.00  0.00     0.116 A 
ATOM      2  C   UNL d   1     -54.874-102.468 -36.963  0.00  0.00     0.192 A 
ATOM      3  N   UNL d   1     -54.787-102.474 -38.382  0.00  0.00    -0.145 NA
ATOM      4  C   UNL d   1     -54.805-101.248 -36.254  0.00  0.00     0.285 A 
ATOM      5  N   UNL d   1     -54.955-102.875 -36.267  0.00  0.00    -0.203 NA
ATOM      6  N   UNL d   1     -54.869-102.880 -37.668  0.00  0.00    -0.128 NA
ATOM      7  N   UNL d   1     -54.887-101.658 -35.540  0.00  0.00    -0.185 NA
ATOM      8  C   UNL d   1     -54.962-102.472 -35.553  0.00  0.00     0.203 A 
ATOM      9  C   UNL d   1     -54.711-101.661 -38.381  0.00  0.00     0.130 A 
ATOM     10  O   UNL d   1     -54.729-100.426 -36.241  0.00  0.00    -0.265 OA
ENDROOT
TORSDOF 0
ENDMDL
MODEL 2
REMARK VINA RESULT:       3.8      1.997      3.110
REMARK  0 active torsions:
REMARK  status: ('A' for Active; 'I' for Inactive)
ROOT
ATOM      1  C   UNL d   1     -55.951-102.859 -38.444  0.00  0.00     0.116 A 
ATOM      2  C   UNL d   1     -55.125-102.847 -38.449  0.00  0.00     0.192 A 
ATOM      3  N   UNL d   1     -55.128-102.842 -37.027  0.00  0.00    -0.145 NA
ATOM      4  C   UNL d   1     -56.347-102.867 -39.159  0.00  0.00     0.285 A 
ATOM      5  N   UNL d   1     -54.713-102.843 -39.146  0.00  0.00    -0.203 NA
ATOM      6  N   UNL d   1     -54.716-102.838 -37.743  0.00  0.00    -0.128 NA
ATOM      7  N   UNL d   1     -55.932-102.864 -39.874  0.00  0.00    -0.185 NA
ATOM      8  C   UNL d   1     -55.114-102.852 -39.861  0.00  0.00     0.203 A 
ATOM      9  C   UNL d   1     -55.944-102.854 -37.027  0.00  0.00     0.130 A 
ATOM     10  O   UNL d   1     -57.173-102.880 -39.171  0.00  0.00    -0.265 OA
ENDROOT
TORSDOF 0
ENDMDL
MODEL 3
REMARK VINA RESULT:       4.3      8.463      9.106
REMARK  0 active torsions:
REMARK  status: ('A' for Active; 'I' for Inactive)
ROOT
ATOM      1  C   UNL d   1     -58.531 -98.757 -43.905  0.00  0.00     0.116 A 
ATOM      2  C   UNL d   1     -58.521 -98.756 -44.731  0.00  0.00     0.192 A 
ATOM      3  N   UNL d   1     -57.099 -98.755 -44.702  0.00  0.00    -0.145 NA
ATOM      4  C   UNL d   1     -59.253 -98.758 -43.522  0.00  0.00     0.285 A 
ATOM      5  N   UNL d   1     -59.211 -98.757 -45.156  0.00  0.00    -0.203 NA
ATOM      6  N   UNL d   1     -57.807 -98.755 -45.127  0.00  0.00    -0.128 NA
ATOM      7  N   UNL d   1     -59.961 -98.758 -43.951  0.00  0.00    -0.185 NA
ATOM      8  C   UNL d   1     -59.933 -98.758 -44.768  0.00  0.00     0.203 A 
ATOM      9  C   UNL d   1     -57.115 -98.755 -43.886  0.00  0.00     0.130 A 
ATOM     10  O   UNL d   1     -59.280 -98.758 -42.697  0.00  0.00    -0.265 OA
ENDROOT
TORSDOF 0
ENDMDL
MODEL 4
REMARK VINA RESULT:       5.2      0.895      2.056
REMARK  0 active torsions:
REMARK  status: ('A' for Active; 'I' for Inactive)
ROOT
ATOM      1  C   UNL d   1     -54.780-101.394 -36.982  0.00  0.00     0.116 A 
ATOM      2  C   UNL d   1     -54.836-102.078 -36.522  0.00  0.00     0.192 A 
ATOM      3  N   UNL d   1     -54.802-101.278 -35.347  0.00  0.00    -0.145 NA
ATOM      4  C   UNL d   1     -54.770-101.468 -37.796  0.00  0.00     0.285 A 
ATOM      5  N   UNL d   1     -54.881-102.809 -36.868  0.00  0.00    -0.203 NA
ATOM      6  N   UNL d   1     -54.847-102.019 -35.708  0.00  0.00    -0.128 NA
ATOM      7  N   UNL d   1     -54.815-102.213 -38.154  0.00  0.00    -0.185 NA
ATOM      8  C   UNL d   1     -54.871-102.880 -37.684  0.00  0.00     0.203 A 
ATOM      9  C   UNL d   1     -54.746-100.605 -35.806  0.00  0.00     0.130 A 
ATOM     10  O   UNL d   1     -54.713-100.794 -38.269  0.00  0.00    -0.265 OA
ENDROOT
TORSDOF 0
ENDMDL
