MODEL 1
REMARK VINA RESULT:      27.4      0.000      0.000
REMARK  5 active torsions:
REMARK  status: ('A' for Active; 'I' for Inactive)
REMARK    1  A    between atoms: C_3  and  C_1 
REMARK    2  A    between atoms: C_7  and  C_3 
REMARK       I    between atoms: C_6  and  N_5 
REMARK    3  A    between atoms: O_18  and  C_6 
REMARK    4  A    between atoms: N_10  and  C_7 
REMARK    5  A    between atoms: C_21  and  O_18 
ROOT
ATOM      1  C   UNL d   1      45.807 -17.400  43.419  0.00  0.00     0.110 C 
ATOM      2  C   UNL d   1      46.099 -17.478  44.193  0.00  0.00     0.105 C 
ATOM      3  N   UNL d   1      46.389 -17.556  44.955  0.00  0.00    -0.191 NA
ENDROOT
BRANCH   1   4
ATOM      4  C   UNL d   1      45.986 -17.974  42.854  0.00  0.00     0.122 A 
ATOM      5  N   UNL d   1      45.984 -17.872  42.038  0.00  0.00    -0.238 NA
ATOM      6  C   UNL d   1      46.196 -18.589  41.690  0.00  0.00     0.088 A 
ATOM      7  C   UNL d   1      46.284 -18.813  40.899  0.00  0.00     0.020 A 
ATOM      8  C   UNL d   1      46.330 -19.138  42.291  0.00  0.00     0.049 A 
ATOM      9  C   UNL d   1      46.505 -19.583  40.711  0.00  0.00     0.002 A 
ATOM     10  C   UNL d   1      46.640 -20.135  41.315  0.00  0.00     0.001 A 
ATOM     11  C   UNL d   1      46.553 -19.915  42.103  0.00  0.00     0.008 A 
ATOM     12  S   UNL d   1      46.201 -18.763  43.012  0.00  0.00    -0.066 SA
ENDBRANCH   1   4
BRANCH   1  13
ATOM     13  C   UNL d   1      45.340 -16.753  43.217  0.00  0.00     0.093 C 
BRANCH  13  14
ATOM     14  N   UNL d   1      45.472 -16.020  43.572  0.00  0.00    -0.299 N 
ATOM     15  C   UNL d   1      44.828 -15.511  43.720  0.00  0.00     0.100 A 
ATOM     16  C   UNL d   1      44.959 -14.786  44.071  0.00  0.00     0.104 A 
ATOM     17  N   UNL d   1      45.725 -14.553  44.282  0.00  0.00    -0.249 N 
ATOM     18  C   UNL d   1      46.360 -15.060  44.135  0.00  0.00     0.104 A 
ATOM     19  C   UNL d   1      45.857 -13.819  44.638  0.00  0.00     0.378 C 
ATOM     20  C   UNL d   1      46.236 -15.801  43.776  0.00  0.00     0.100 A 
ATOM     21  O   UNL d   1      46.621 -13.590  44.847  0.00  0.00    -0.237 OA
BRANCH  19  22
ATOM     22  O   UNL d   1      45.223 -13.320  44.782  0.00  0.00    -0.257 OA
BRANCH  22  23
ATOM     23  C   UNL d   1      45.306 -12.506  44.692  0.00  0.00     0.128 C 
ATOM     24  C   UNL d   1      45.614 -12.195  43.985  0.00  0.00     0.029 C 
ENDBRANCH  22  23
ENDBRANCH  19  22
ENDBRANCH  13  14
ENDBRANCH   1  13
TORSDOF 5
ENDMDL
