MODEL 1
REMARK VINA RESULT:      38.5      0.000      0.000
REMARK  6 active torsions:
REMARK  status: ('A' for Active; 'I' for Inactive)
REMARK    1  A    between atoms: C_13  and  N_1 
REMARK    2  A    between atoms: S_9  and  C_2 
REMARK    3  A    between atoms: C_10  and  C_7 
REMARK    4  A    between atoms: C_19  and  S_9 
REMARK    5  A    between atoms: O_23  and  C_10 
REMARK    6  A    between atoms: C_14  and  C_19 
ROOT
ATOM      1  N   UNL d   1      46.255 -18.484  42.229  0.00  0.00    -0.254 N 
ATOM      2  C   UNL d   1      46.124 -17.672  42.296  0.00  0.00     0.182 A 
ATOM      3  C   UNL d   1      46.303 -18.833  41.483  0.00  0.00     0.274 A 
ATOM      4  C   UNL d   1      46.219 -18.373  40.809  0.00  0.00     0.104 A 
ATOM      5  N   UNL d   1      46.040 -17.211  41.617  0.00  0.00    -0.222 NA
ATOM      6  C   UNL d   1      46.088 -17.561  40.876  0.00  0.00     0.095 A 
ATOM      7  S   UNL d   1      46.240 -18.560  40.008  0.00  0.00    -0.080 SA
ATOM      8  O   UNL d   1      46.434 -19.645  41.416  0.00  0.00    -0.266 OA
ATOM      9  C   UNL d   1      46.027 -17.248  40.116  0.00  0.00     0.027 A 
ATOM     10  C   UNL d   1      46.120 -17.859  39.583  0.00  0.00     0.037 A 
ENDROOT
BRANCH   2  11
ATOM     11  S   UNL d   1      46.074 -17.314  43.046  0.00  0.00    -0.047 SA
BRANCH  11  12
ATOM     12  C   UNL d   1      46.427 -16.579  43.172  0.00  0.00     0.063 C 
BRANCH  12  13
ATOM     13  C   UNL d   1      46.006 -15.978  43.549  0.00  0.00     0.107 A 
ATOM     14  O   UNL d   1      46.114 -15.156  43.574  0.00  0.00    -0.301 OA
ATOM     15  C   UNL d   1      45.519 -14.839  44.040  0.00  0.00     0.163 A 
ATOM     16  C   UNL d   1      45.038 -15.457  44.307  0.00  0.00     0.032 A 
ATOM     17  C   UNL d   1      45.341 -16.160  44.001  0.00  0.00     0.027 A 
BRANCH  15  18
ATOM     18  C   UNL d   1      45.409 -14.039  44.219  0.00  0.00     0.319 C 
ATOM     19  O   UNL d   1      44.972 -13.812  44.879  0.00  0.00    -0.257 OA
BRANCH  18  20
ATOM     20  O   UNL d   1      45.743 -13.466  43.728  0.00  0.00    -0.294 OA
ATOM     21  C   UNL d   1      45.557 -12.669  43.839  0.00  0.00     0.185 C 
ENDBRANCH  18  20
ENDBRANCH  15  18
ENDBRANCH  12  13
ENDBRANCH  11  12
ENDBRANCH   2  11
BRANCH   1  22
ATOM     22  C   UNL d   1      46.338 -18.944  42.898  0.00  0.00     0.069 A 
ATOM     23  C   UNL d   1      46.207 -19.758  42.863  0.00  0.00     0.018 A 
ATOM     24  C   UNL d   1      46.293 -20.219  43.542  0.00  0.00     0.002 A 
ATOM     25  C   UNL d   1      46.509 -19.867  44.255  0.00  0.00     0.000 A 
ATOM     26  C   UNL d   1      46.639 -19.053  44.291  0.00  0.00     0.002 A 
ATOM     27  C   UNL d   1      46.597 -20.329  44.947  0.00  0.00     0.000 C 
ATOM     28  C   UNL d   1      46.554 -18.592  43.613  0.00  0.00     0.018 A 
ENDBRANCH   1  22
TORSDOF 6
ENDMDL
