MODEL 1
REMARK VINA RESULT:      52.2      0.000      0.000
REMARK  5 active torsions:
REMARK  status: ('A' for Active; 'I' for Inactive)
REMARK    1  A    between atoms: S_4  and  N_1 
REMARK    2  A    between atoms: C_2  and  C_5 
REMARK    3  A    between atoms: C_12  and  C_7 
REMARK    4  A    between atoms: O_26  and  C_24 
REMARK    5  A    between atoms: C_27  and  O_26 
ROOT
ATOM      1  C   UNL d   1      14.726  13.672  -1.681  0.00  0.00     0.076 A 
ATOM      2  C   UNL d   1      15.424  13.530  -1.272  0.00  0.00     0.281 A 
ATOM      3  C   UNL d   1      14.386  14.424  -1.670  0.00  0.00     0.008 A 
ATOM      4  N   UNL d   1      15.787  14.141  -0.850  0.00  0.00    -0.208 NA
ATOM      5  C   UNL d   1      15.447  14.899  -0.839  0.00  0.00     0.087 A 
ATOM      6  C   UNL d   1      14.749  15.041  -1.247  0.00  0.00     0.018 A 
ATOM      7  C   UNL d   1      15.811  15.510  -0.417  0.00  0.00     0.044 A 
ATOM      8  O   UNL d   1      16.030  13.016  -1.037  0.00  0.00    -0.265 OA
ATOM      9  C   UNL d   1      14.410  15.793  -1.237  0.00  0.00     0.004 A 
ATOM     10  C   UNL d   1      15.470  16.207  -0.425  0.00  0.00     0.102 A 
ATOM     11  C   UNL d   1      14.772  16.348  -0.833  0.00  0.00     0.025 A 
ENDROOT
BRANCH   1  12
ATOM     12  C   UNL d   1      14.363  13.060  -2.102  0.00  0.00     0.101 A 
ATOM     13  N   UNL d   1      14.120  12.349  -1.800  0.00  0.00    -0.155 N 
ATOM     14  N   UNL d   1      13.789  11.907  -2.405  0.00  0.00    -0.153 NA
ATOM     15  C   UNL d   1      13.833  12.357  -3.087  0.00  0.00     0.126 A 
ATOM     16  C   UNL d   1      14.188  13.076  -2.909  0.00  0.00     0.043 A 
BRANCH  13  17
ATOM     17  S   UNL d   1      14.192  12.114  -1.019  0.00  0.00     0.266 S 
ATOM     18  O   UNL d   1      13.373  12.267  -0.892  0.00  0.00    -0.203 OA
ATOM     19  O   UNL d   1      14.996  11.956  -1.115  0.00  0.00    -0.203 OA
ATOM     20  C   UNL d   1      14.249  11.873  -0.207  0.00  0.00     0.165 C 
ENDBRANCH  13  17
BRANCH  15  21
ATOM     21  C   UNL d   1      13.569  12.134  -3.824  0.00  0.00     0.119 A 
ATOM     22  O   UNL d   1      12.779  12.005  -4.046  0.00  0.00    -0.304 OA
ATOM     23  C   UNL d   1      12.770  11.790  -4.834  0.00  0.00     0.123 A 
ATOM     24  C   UNL d   1      13.561  11.779  -5.124  0.00  0.00     0.029 A 
ATOM     25  C   UNL d   1      14.039  11.996  -4.479  0.00  0.00     0.028 A 
ENDBRANCH  15  21
ENDBRANCH   1  12
BRANCH  10  26
ATOM     26  O   UNL d   1      15.812  16.823  -0.015  0.00  0.00    -0.305 OA
BRANCH  26  27
ATOM     27  C   UNL d   1      15.997  17.620  -0.826  0.00  0.00     0.123 C 
ATOM     28  C   UNL d   1      15.650  18.380  -0.772  0.00  0.00     0.029 C 
ENDBRANCH  26  27
ENDBRANCH  10  26
TORSDOF 5
ENDMDL
