MODEL 1
REMARK VINA RESULT:      -7.9      0.000      0.000
REMARK  5 active torsions:
REMARK  status: ('A' for Active; 'I' for Inactive)
REMARK    1  A    between atoms: C_2  and  S_1 
REMARK    2  A    between atoms: N_3  and  S_1 
REMARK    3  A    between atoms: C_18  and  N_7 
REMARK    4  A    between atoms: O_27  and  C_9 
REMARK    5  A    between atoms: C_17  and  C_18 
ROOT
ATOM      1  N   UNL d   1      50.850  34.074  52.833  0.00  0.00    -0.226 N 
ATOM      2  N   UNL d   1      52.262  33.219  52.943  0.00  0.00    -0.300 N 
ATOM      3  C   UNL d   1      50.866  33.343  53.228  0.00  0.00     0.111 A 
ATOM      4  C   UNL d   1      51.545  34.371  52.494  0.00  0.00     0.111 A 
ATOM      5  C   UNL d   1      51.576  32.920  53.280  0.00  0.00     0.100 A 
ATOM      6  C   UNL d   1      52.246  33.949  52.547  0.00  0.00     0.100 A 
ENDROOT
BRANCH   1   7
ATOM      7  S   UNL d   1      50.144  34.495  52.780  0.00  0.00     0.273 S 
ATOM      8  O   UNL d   1      49.720  33.791  52.909  0.00  0.00    -0.200 OA
ATOM      9  O   UNL d   1      50.562  35.192  52.653  0.00  0.00    -0.200 OA
BRANCH   7  10
ATOM     10  C   UNL d   1      49.439  34.913  52.729  0.00  0.00     0.128 A 
ATOM     11  C   UNL d   1      49.162  35.347  53.378  0.00  0.00     0.044 A 
ATOM     12  C   UNL d   1      48.454  35.768  53.328  0.00  0.00     0.141 A 
ATOM     13  F   UNL d   1      48.186  36.194  53.971  0.00  0.00    -0.204 F 
ATOM     14  C   UNL d   1      48.016  35.756  52.622  0.00  0.00     0.032 A 
ATOM     15  C   UNL d   1      48.290  35.325  51.977  0.00  0.00     0.027 A 
ATOM     16  C   UNL d   1      49.001  34.902  52.024  0.00  0.00     0.106 A 
BRANCH  16  17
ATOM     17  O   UNL d   1      49.269  34.473  51.373  0.00  0.00    -0.327 OA
ATOM     18  C   UNL d   1      48.845  34.483  50.672  0.00  0.00     0.181 C 
ENDBRANCH  16  17
ENDBRANCH   7  10
ENDBRANCH   1   7
BRANCH   2  19
ATOM     19  C   UNL d   1      52.969  32.796  52.995  0.00  0.00     0.080 C 
BRANCH  19  20
ATOM     20  C   UNL d   1      53.437  32.843  53.676  0.00  0.00     0.020 A 
ATOM     21  C   UNL d   1      53.869  33.522  53.836  0.00  0.00     0.028 A 
ATOM     22  C   UNL d   1      54.335  33.568  54.515  0.00  0.00     0.119 A 
ATOM     23  O   UNL d   1      54.820  34.162  54.818  0.00  0.00    -0.300 OA
ATOM     24  C   UNL d   1      54.367  32.922  55.038  0.00  0.00     0.119 A 
ATOM     25  C   UNL d   1      55.150  33.888  55.524  0.00  0.00     0.304 A 
ATOM     26  O   UNL d   1      54.871  33.129  55.656  0.00  0.00    -0.300 OA
ATOM     27  C   UNL d   1      53.932  32.241  54.874  0.00  0.00     0.026 A 
ATOM     28  C   UNL d   1      53.469  32.198  54.198  0.00  0.00     0.004 A 
ENDBRANCH  19  20
ENDBRANCH   2  19
TORSDOF 5
ENDMDL
MODEL 2
REMARK VINA RESULT:      -7.6      2.117      5.679
REMARK  5 active torsions:
REMARK  status: ('A' for Active; 'I' for Inactive)
REMARK    1  A    between atoms: C_2  and  S_1 
REMARK    2  A    between atoms: N_3  and  S_1 
REMARK    3  A    between atoms: C_18  and  N_7 
REMARK    4  A    between atoms: O_27  and  C_9 
REMARK    5  A    between atoms: C_17  and  C_18 
ROOT
ATOM      1  N   UNL d   1      51.679  33.091  52.962  0.00  0.00    -0.226 N 
ATOM      2  N   UNL d   1      50.642  34.360  52.734  0.00  0.00    -0.300 N 
ATOM      3  C   UNL d   1      50.951  33.112  53.362  0.00  0.00     0.111 A 
ATOM      4  C   UNL d   1      51.882  33.709  52.450  0.00  0.00     0.111 A 
ATOM      5  C   UNL d   1      50.436  33.750  53.243  0.00  0.00     0.100 A 
ATOM      6  C   UNL d   1      51.370  34.340  52.335  0.00  0.00     0.100 A 
ENDROOT
BRANCH   1   7
ATOM      7  S   UNL d   1      52.192  32.457  53.079  0.00  0.00     0.273 S 
ATOM      8  O   UNL d   1      51.702  32.181  53.692  0.00  0.00    -0.200 OA
ATOM      9  O   UNL d   1      52.677  32.730  52.473  0.00  0.00    -0.200 OA
BRANCH   7  10
ATOM     10  C   UNL d   1      52.702  31.825  53.197  0.00  0.00     0.128 A 
ATOM     11  C   UNL d   1      52.564  31.100  52.821  0.00  0.00     0.044 A 
ATOM     12  C   UNL d   1      53.074  30.464  52.938  0.00  0.00     0.141 A 
ATOM     13  F   UNL d   1      52.933  29.751  52.564  0.00  0.00    -0.204 F 
ATOM     14  C   UNL d   1      53.733  30.549  53.438  0.00  0.00     0.032 A 
ATOM     15  C   UNL d   1      53.871  31.269  53.813  0.00  0.00     0.027 A 
ATOM     16  C   UNL d   1      53.360  31.910  53.697  0.00  0.00     0.106 A 
BRANCH  16  17
ATOM     17  O   UNL d   1      53.506  32.627  54.076  0.00  0.00    -0.327 OA
ATOM     18  C   UNL d   1      54.145  32.702  54.582  0.00  0.00     0.181 C 
ENDBRANCH  16  17
ENDBRANCH   7  10
ENDBRANCH   1   7
BRANCH   2  19
ATOM     19  C   UNL d   1      50.127  34.995  52.618  0.00  0.00     0.080 C 
BRANCH  19  20
ATOM     20  C   UNL d   1      49.479  34.922  52.108  0.00  0.00     0.020 A 
ATOM     21  C   UNL d   1      48.749  35.232  52.320  0.00  0.00     0.028 A 
ATOM     22  C   UNL d   1      48.104  35.159  51.811  0.00  0.00     0.119 A 
ATOM     23  O   UNL d   1      47.320  35.407  51.868  0.00  0.00    -0.300 OA
ATOM     24  C   UNL d   1      48.194  34.770  51.082  0.00  0.00     0.119 A 
ATOM     25  C   UNL d   1      46.926  35.174  51.181  0.00  0.00     0.304 A 
ATOM     26  O   UNL d   1      47.465  34.784  50.701  0.00  0.00    -0.300 OA
ATOM     27  C   UNL d   1      48.929  34.460  50.873  0.00  0.00     0.026 A 
ATOM     28  C   UNL d   1      49.570  34.533  51.379  0.00  0.00     0.004 A 
ENDBRANCH  19  20
ENDBRANCH   2  19
TORSDOF 5
ENDMDL
MODEL 3
REMARK VINA RESULT:      -7.5      2.014      5.355
REMARK  5 active torsions:
REMARK  status: ('A' for Active; 'I' for Inactive)
REMARK    1  A    between atoms: C_2  and  S_1 
REMARK    2  A    between atoms: N_3  and  S_1 
REMARK    3  A    between atoms: C_18  and  N_7 
REMARK    4  A    between atoms: O_27  and  C_9 
REMARK    5  A    between atoms: C_17  and  C_18 
ROOT
ATOM      1  N   UNL d   1      51.740  33.809  53.043  0.00  0.00    -0.226 N 
ATOM      2  N   UNL d   1      50.267  34.037  52.324  0.00  0.00    -0.300 N 
ATOM      3  C   UNL d   1      51.063  33.438  53.351  0.00  0.00     0.111 A 
ATOM      4  C   UNL d   1      51.672  34.293  52.374  0.00  0.00     0.111 A 
ATOM      5  C   UNL d   1      50.328  33.556  52.986  0.00  0.00     0.100 A 
ATOM      6  C   UNL d   1      50.943  34.408  52.015  0.00  0.00     0.100 A 
ENDROOT
BRANCH   1   7
ATOM      7  S   UNL d   1      52.471  33.693  53.404  0.00  0.00     0.273 S 
ATOM      8  O   UNL d   1      52.120  33.147  53.926  0.00  0.00    -0.200 OA
ATOM      9  O   UNL d   1      52.818  34.232  52.889  0.00  0.00    -0.200 OA
BRANCH   7  10
ATOM     10  C   UNL d   1      53.198  33.575  53.766  0.00  0.00     0.128 A 
ATOM     11  C   UNL d   1      53.698  32.965  53.512  0.00  0.00     0.044 A 
ATOM     12  C   UNL d   1      54.429  32.845  53.874  0.00  0.00     0.141 A 
ATOM     13  F   UNL d   1      54.918  32.243  53.619  0.00  0.00    -0.204 F 
ATOM     14  C   UNL d   1      54.666  33.339  54.499  0.00  0.00     0.032 A 
ATOM     15  C   UNL d   1      54.170  33.945  54.753  0.00  0.00     0.027 A 
ATOM     16  C   UNL d   1      53.435  34.068  54.391  0.00  0.00     0.106 A 
BRANCH  16  17
ATOM     17  O   UNL d   1      52.944  34.678  54.651  0.00  0.00    -0.327 OA
ATOM     18  C   UNL d   1      53.202  35.193  55.233  0.00  0.00     0.181 C 
ENDBRANCH  16  17
ENDBRANCH   7  10
ENDBRANCH   1   7
BRANCH   2  19
ATOM     19  C   UNL d   1      49.534  34.153  51.962  0.00  0.00     0.080 C 
BRANCH  19  20
ATOM     20  C   UNL d   1      49.055  34.792  52.180  0.00  0.00     0.020 A 
ATOM     21  C   UNL d   1      49.067  35.075  52.950  0.00  0.00     0.028 A 
ATOM     22  C   UNL d   1      48.588  35.712  53.165  0.00  0.00     0.119 A 
ATOM     23  O   UNL d   1      48.481  36.111  53.879  0.00  0.00    -0.300 OA
ATOM     24  C   UNL d   1      48.093  36.066  52.600  0.00  0.00     0.119 A 
ATOM     25  C   UNL d   1      47.925  36.708  53.758  0.00  0.00     0.304 A 
ATOM     26  O   UNL d   1      47.688  36.679  52.973  0.00  0.00    -0.300 OA
ATOM     27  C   UNL d   1      48.084  35.779  51.827  0.00  0.00     0.026 A 
ATOM     28  C   UNL d   1      48.560  35.146  51.614  0.00  0.00     0.004 A 
ENDBRANCH  19  20
ENDBRANCH   2  19
TORSDOF 5
ENDMDL
MODEL 4
REMARK VINA RESULT:      -6.7      1.371      1.866
REMARK  5 active torsions:
REMARK  status: ('A' for Active; 'I' for Inactive)
REMARK    1  A    between atoms: C_2  and  S_1 
REMARK    2  A    between atoms: N_3  and  S_1 
REMARK    3  A    between atoms: C_18  and  N_7 
REMARK    4  A    between atoms: O_27  and  C_9 
REMARK    5  A    between atoms: C_17  and  C_18 
ROOT
ATOM      1  N   UNL d   1      50.893  34.269  52.882  0.00  0.00    -0.226 N 
ATOM      2  N   UNL d   1      52.387  33.576  53.036  0.00  0.00    -0.300 N 
ATOM      3  C   UNL d   1      51.133  33.952  53.612  0.00  0.00     0.111 A 
ATOM      4  C   UNL d   1      51.406  34.235  52.233  0.00  0.00     0.111 A 
ATOM      5  C   UNL d   1      51.883  33.606  53.682  0.00  0.00     0.100 A 
ATOM      6  C   UNL d   1      52.147  33.892  52.306  0.00  0.00     0.100 A 
ENDROOT
BRANCH   1   7
ATOM      7  S   UNL d   1      50.148  34.613  52.811  0.00  0.00     0.273 S 
ATOM      8  O   UNL d   1      50.507  35.357  52.709  0.00  0.00    -0.200 OA
ATOM      9  O   UNL d   1      49.792  33.878  52.912  0.00  0.00    -0.200 OA
BRANCH   7  10
ATOM     10  C   UNL d   1      49.406  34.958  52.740  0.00  0.00     0.128 A 
ATOM     11  C   UNL d   1      49.077  35.377  53.375  0.00  0.00     0.044 A 
ATOM     12  C   UNL d   1      48.333  35.724  53.305  0.00  0.00     0.141 A 
ATOM     13  F   UNL d   1      48.012  36.136  53.934  0.00  0.00    -0.204 F 
ATOM     14  C   UNL d   1      47.909  35.655  52.594  0.00  0.00     0.032 A 
ATOM     15  C   UNL d   1      48.235  35.239  51.962  0.00  0.00     0.027 A 
ATOM     16  C   UNL d   1      48.983  34.889  52.029  0.00  0.00     0.106 A 
BRANCH  16  17
ATOM     17  O   UNL d   1      49.302  34.475  51.392  0.00  0.00    -0.327 OA
ATOM     18  C   UNL d   1      48.889  34.423  50.686  0.00  0.00     0.181 C 
ENDBRANCH  16  17
ENDBRANCH   7  10
ENDBRANCH   1   7
BRANCH   2  19
ATOM     19  C   UNL d   1      53.134  33.231  53.107  0.00  0.00     0.080 C 
BRANCH  19  20
ATOM     20  C   UNL d   1      53.210  32.434  53.317  0.00  0.00     0.020 A 
ATOM     21  C   UNL d   1      52.905  31.846  52.832  0.00  0.00     0.028 A 
ATOM     22  C   UNL d   1      52.981  31.052  53.043  0.00  0.00     0.119 A 
ATOM     23  O   UNL d   1      52.738  30.354  52.678  0.00  0.00    -0.300 OA
ATOM     24  C   UNL d   1      53.370  30.848  53.748  0.00  0.00     0.119 A 
ATOM     25  C   UNL d   1      52.973  29.721  53.153  0.00  0.00     0.304 A 
ATOM     26  O   UNL d   1      53.360  30.027  53.808  0.00  0.00    -0.300 OA
ATOM     27  C   UNL d   1      53.676  31.441  54.233  0.00  0.00     0.026 A 
ATOM     28  C   UNL d   1      53.598  32.229  54.023  0.00  0.00     0.004 A 
ENDBRANCH  19  20
ENDBRANCH   2  19
TORSDOF 5
ENDMDL
MODEL 5
REMARK VINA RESULT:      -6.1      2.171      6.046
REMARK  5 active torsions:
REMARK  status: ('A' for Active; 'I' for Inactive)
REMARK    1  A    between atoms: C_2  and  S_1 
REMARK    2  A    between atoms: N_3  and  S_1 
REMARK    3  A    between atoms: C_18  and  N_7 
REMARK    4  A    between atoms: O_27  and  C_9 
REMARK    5  A    between atoms: C_17  and  C_18 
ROOT
ATOM      1  N   UNL d   1      49.748  34.690  52.703  0.00  0.00    -0.226 N 
ATOM      2  N   UNL d   1      48.472  35.698  52.397  0.00  0.00    -0.300 N 
ATOM      3  C   UNL d   1      49.429  34.739  51.937  0.00  0.00     0.111 A 
ATOM      4  C   UNL d   1      49.424  35.149  53.311  0.00  0.00     0.111 A 
ATOM      5  C   UNL d   1      48.790  35.245  51.791  0.00  0.00     0.100 A 
ATOM      6  C   UNL d   1      48.791  35.650  53.162  0.00  0.00     0.100 A 
ENDROOT
BRANCH   1   7
ATOM      7  S   UNL d   1      50.384  34.187  52.850  0.00  0.00     0.273 S 
ATOM      8  O   UNL d   1      50.604  34.240  52.049  0.00  0.00    -0.200 OA
ATOM      9  O   UNL d   1      50.166  34.135  53.642  0.00  0.00    -0.200 OA
BRANCH   7  10
ATOM     10  C   UNL d   1      51.017  33.686  52.994  0.00  0.00     0.128 A 
ATOM     11  C   UNL d   1      50.913  32.864  52.980  0.00  0.00     0.044 A 
ATOM     12  C   UNL d   1      51.549  32.359  53.125  0.00  0.00     0.141 A 
ATOM     13  F   UNL d   1      51.440  31.550  53.109  0.00  0.00    -0.204 F 
ATOM     14  C   UNL d   1      52.300  32.676  53.286  0.00  0.00     0.032 A 
ATOM     15  C   UNL d   1      52.405  33.493  53.301  0.00  0.00     0.027 A 
ATOM     16  C   UNL d   1      51.769  34.003  53.156  0.00  0.00     0.106 A 
BRANCH  16  17
ATOM     17  O   UNL d   1      51.882  34.819  53.173  0.00  0.00    -0.327 OA
ATOM     18  C   UNL d   1      52.614  35.128  53.373  0.00  0.00     0.181 C 
ENDBRANCH  16  17
ENDBRANCH   7  10
ENDBRANCH   1   7
BRANCH   2  19
ATOM     19  C   UNL d   1      47.836  36.202  52.249  0.00  0.00     0.080 C 
BRANCH  19  20
ATOM     20  C   UNL d   1      47.060  35.915  52.266  0.00  0.00     0.020 A 
ATOM     21  C   UNL d   1      46.649  35.872  52.975  0.00  0.00     0.028 A 
ATOM     22  C   UNL d   1      45.875  35.586  52.990  0.00  0.00     0.119 A 
ATOM     23  O   UNL d   1      45.334  35.479  53.603  0.00  0.00    -0.300 OA
ATOM     24  C   UNL d   1      45.512  35.340  52.285  0.00  0.00     0.119 A 
ATOM     25  C   UNL d   1      44.640  35.170  53.281  0.00  0.00     0.304 A 
ATOM     26  O   UNL d   1      44.752  35.086  52.473  0.00  0.00    -0.300 OA
ATOM     27  C   UNL d   1      45.927  35.384  51.574  0.00  0.00     0.026 A 
ATOM     28  C   UNL d   1      46.696  35.669  51.560  0.00  0.00     0.004 A 
ENDBRANCH  19  20
ENDBRANCH   2  19
TORSDOF 5
ENDMDL
