MODEL 1
REMARK VINA RESULT:      -7.4      0.000      0.000
REMARK  3 active torsions:
REMARK  status: ('A' for Active; 'I' for Inactive)
REMARK    1  A    between atoms: N_6  and  C_1 
REMARK    2  A    between atoms: C_7  and  C_2 
REMARK    3  A    between atoms: C_9  and  C_5 
ROOT
ATOM      1  C   UNL d   1     -49.438  13.716  23.010  0.00  0.00     0.189 A 
ATOM      2  C   UNL d   1     -49.628  13.078  22.479  0.00  0.00     0.144 A 
ATOM      3  O   UNL d   1     -48.707  13.496  23.382  0.00  0.00    -0.271 OA
ATOM      4  N   UNL d   1     -49.045  12.511  22.530  0.00  0.00    -0.217 NA
ATOM      5  C   UNL d   1     -48.499  12.747  23.058  0.00  0.00     0.184 A 
ENDROOT
BRANCH   5   6
ATOM      6  C   UNL d   1     -47.846  12.295  23.230  0.00  0.00     0.041 A 
ATOM      7  C   UNL d   1     -47.928  11.529  23.531  0.00  0.00     0.004 A 
ATOM      8  C   UNL d   1     -47.250  11.092  23.697  0.00  0.00     0.011 A 
ATOM      9  C   UNL d   1     -46.516  11.393  23.573  0.00  0.00     0.058 A 
ATOM     10  C   UNL d   1     -46.437  12.162  23.271  0.00  0.00     0.011 A 
ATOM     11 CL   UNL d   1     -45.747  11.059  23.698  0.00  0.00    -0.082 Cl
ATOM     12  C   UNL d   1     -47.118  12.609  23.101  0.00  0.00     0.004 A 
ENDBRANCH   5   6
BRANCH   1  13
ATOM     13  N   UNL d   1     -49.984  14.237  22.956  0.00  0.00    -0.284 N 
ATOM     14  C   UNL d   1     -50.724  14.494  22.637  0.00  0.00     0.082 A 
ATOM     15  C   UNL d   1     -51.024  15.231  22.853  0.00  0.00     0.019 A 
ATOM     16  C   UNL d   1     -50.605  15.725  23.384  0.00  0.00     0.003 A 
ATOM     17  C   UNL d   1     -49.885  15.481  23.698  0.00  0.00     0.019 A 
ATOM     18  C   UNL d   1     -49.565  14.731  23.486  0.00  0.00     0.082 A 
ENDBRANCH   1  13
BRANCH   2  19
ATOM     19  C   UNL d   1     -50.237  13.201  22.131  0.00  0.00     0.145 C 
ATOM     20  N   UNL d   1     -50.879  12.745  21.416  0.00  0.00    -0.145 N 
ENDBRANCH   2  19
TORSDOF 3
ENDMDL
MODEL 2
REMARK VINA RESULT:      -7.2      2.051      4.357
REMARK  3 active torsions:
REMARK  status: ('A' for Active; 'I' for Inactive)
REMARK    1  A    between atoms: N_6  and  C_1 
REMARK    2  A    between atoms: C_7  and  C_2 
REMARK    3  A    between atoms: C_9  and  C_5 
ROOT
ATOM      1  C   UNL d   1     -47.464  12.918  23.201  0.00  0.00     0.189 A 
ATOM      2  C   UNL d   1     -47.098  13.583  22.816  0.00  0.00     0.144 A 
ATOM      3  O   UNL d   1     -48.278  13.133  23.308  0.00  0.00    -0.271 OA
ATOM      4  N   UNL d   1     -47.660  14.161  22.700  0.00  0.00    -0.217 NA
ATOM      5  C   UNL d   1     -48.357  13.907  22.986  0.00  0.00     0.184 A 
ENDROOT
BRANCH   5   6
ATOM      6  C   UNL d   1     -49.028  14.365  22.950  0.00  0.00     0.041 A 
ATOM      7  C   UNL d   1     -49.480  14.400  22.258  0.00  0.00     0.004 A 
ATOM      8  C   UNL d   1     -50.155  14.872  22.248  0.00  0.00     0.011 A 
ATOM      9  C   UNL d   1     -50.382  15.295  22.892  0.00  0.00     0.058 A 
ATOM     10  C   UNL d   1     -49.926  15.256  23.585  0.00  0.00     0.011 A 
ATOM     11 CL   UNL d   1     -51.041  15.810  23.018  0.00  0.00    -0.082 Cl
ATOM     12  C   UNL d   1     -49.242  14.782  23.602  0.00  0.00     0.004 A 
ENDBRANCH   5   6
BRANCH   1  13
ATOM     13  N   UNL d   1     -46.935  12.386  23.305  0.00  0.00    -0.284 N 
ATOM     14  C   UNL d   1     -46.124  12.150  23.308  0.00  0.00     0.082 A 
ATOM     15  C   UNL d   1     -45.928  11.373  23.503  0.00  0.00     0.019 A 
ATOM     16  C   UNL d   1     -46.524  10.819  23.698  0.00  0.00     0.003 A 
ATOM     17  C   UNL d   1     -47.316  11.041  23.698  0.00  0.00     0.019 A 
ATOM     18  C   UNL d   1     -47.531  11.832  23.500  0.00  0.00     0.082 A 
ENDBRANCH   1  13
BRANCH   2  19
ATOM     19  C   UNL d   1     -46.406  13.466  22.696  0.00  0.00     0.145 C 
ATOM     20  N   UNL d   1     -45.571  13.913  22.211  0.00  0.00    -0.145 N 
ENDBRANCH   2  19
TORSDOF 3
ENDMDL
MODEL 3
REMARK VINA RESULT:      -6.8      1.163      1.934
REMARK  3 active torsions:
REMARK  status: ('A' for Active; 'I' for Inactive)
REMARK    1  A    between atoms: N_6  and  C_1 
REMARK    2  A    between atoms: C_7  and  C_2 
REMARK    3  A    between atoms: C_9  and  C_5 
ROOT
ATOM      1  C   UNL d   1     -48.764  13.146  22.480  0.00  0.00     0.189 A 
ATOM      2  C   UNL d   1     -48.231  13.791  22.638  0.00  0.00     0.144 A 
ATOM      3  O   UNL d   1     -48.314  12.438  22.612  0.00  0.00    -0.271 OA
ATOM      4  N   UNL d   1     -47.506  13.487  22.850  0.00  0.00    -0.217 NA
ATOM      5  C   UNL d   1     -47.544  12.693  22.839  0.00  0.00     0.184 A 
ENDROOT
BRANCH   5   6
ATOM      6  C   UNL d   1     -46.903  12.230  23.027  0.00  0.00     0.041 A 
ATOM      7  C   UNL d   1     -46.147  12.421  22.750  0.00  0.00     0.004 A 
ATOM      8  C   UNL d   1     -45.514  11.936  22.955  0.00  0.00     0.011 A 
ATOM      9  C   UNL d   1     -45.615  11.285  23.416  0.00  0.00     0.058 A 
ATOM     10  C   UNL d   1     -46.375  11.097  23.691  0.00  0.00     0.011 A 
ATOM     11 CL   UNL d   1     -45.063  10.709  23.698  0.00  0.00    -0.082 Cl
ATOM     12  C   UNL d   1     -47.019  11.582  23.488  0.00  0.00     0.004 A 
ENDBRANCH   5   6
BRANCH   1  13
ATOM     13  N   UNL d   1     -49.434  13.437  22.283  0.00  0.00    -0.284 N 
ATOM     14  C   UNL d   1     -49.924  14.107  22.123  0.00  0.00     0.082 A 
ATOM     15  C   UNL d   1     -50.711  13.992  21.908  0.00  0.00     0.019 A 
ATOM     16  C   UNL d   1     -51.029  13.220  21.847  0.00  0.00     0.003 A 
ATOM     17  C   UNL d   1     -50.559  12.563  22.001  0.00  0.00     0.019 A 
ATOM     18  C   UNL d   1     -49.752  12.665  22.222  0.00  0.00     0.082 A 
ENDBRANCH   1  13
BRANCH   2  19
ATOM     19  C   UNL d   1     -48.550  14.421  22.544  0.00  0.00     0.145 C 
ATOM     20  N   UNL d   1     -48.330  15.462  22.562  0.00  0.00    -0.145 N 
ENDBRANCH   2  19
TORSDOF 3
ENDMDL
MODEL 4
REMARK VINA RESULT:      -5.9      2.796      5.230
REMARK  3 active torsions:
REMARK  status: ('A' for Active; 'I' for Inactive)
REMARK    1  A    between atoms: N_6  and  C_1 
REMARK    2  A    between atoms: C_7  and  C_2 
REMARK    3  A    between atoms: C_9  and  C_5 
ROOT
ATOM      1  C   UNL d   1     -45.271  12.062  22.885  0.00  0.00     0.189 A 
ATOM      2  C   UNL d   1     -44.965  12.610  22.311  0.00  0.00     0.144 A 
ATOM      3  O   UNL d   1     -46.052  12.336  23.072  0.00  0.00    -0.271 OA
ATOM      4  N   UNL d   1     -45.529  13.178  22.164  0.00  0.00    -0.217 NA
ATOM      5  C   UNL d   1     -46.172  13.026  22.606  0.00  0.00     0.184 A 
ENDROOT
BRANCH   5   6
ATOM      6  C   UNL d   1     -46.833  13.500  22.579  0.00  0.00     0.041 A 
ATOM      7  C   UNL d   1     -47.536  13.228  22.239  0.00  0.00     0.004 A 
ATOM      8  C   UNL d   1     -48.190  13.727  22.224  0.00  0.00     0.011 A 
ATOM      9  C   UNL d   1     -48.160  14.468  22.532  0.00  0.00     0.058 A 
ATOM     10  C   UNL d   1     -47.452  14.738  22.873  0.00  0.00     0.011 A 
ATOM     11 CL   UNL d   1     -48.747  15.076  22.584  0.00  0.00    -0.082 Cl
ATOM     12  C   UNL d   1     -46.787  14.239  22.891  0.00  0.00     0.004 A 
ENDBRANCH   5   6
BRANCH   1  13
ATOM     13  N   UNL d   1     -44.740  11.538  23.017  0.00  0.00    -0.284 N 
ATOM     14  C   UNL d   1     -43.939  11.275  22.957  0.00  0.00     0.082 A 
ATOM     15  C   UNL d   1     -43.730  10.540  23.266  0.00  0.00     0.019 A 
ATOM     16  C   UNL d   1     -44.301  10.053  23.637  0.00  0.00     0.003 A 
ATOM     17  C   UNL d   1     -45.082  10.302  23.698  0.00  0.00     0.019 A 
ATOM     18  C   UNL d   1     -45.312  11.051  23.387  0.00  0.00     0.082 A 
ENDBRANCH   1  13
BRANCH   2  19
ATOM     19  C   UNL d   1     -44.304  12.436  22.110  0.00  0.00     0.145 C 
ATOM     20  N   UNL d   1     -43.529  12.770  21.462  0.00  0.00    -0.145 N 
ENDBRANCH   2  19
TORSDOF 3
ENDMDL
MODEL 5
REMARK VINA RESULT:      -5.7      1.598      2.323
REMARK  3 active torsions:
REMARK  status: ('A' for Active; 'I' for Inactive)
REMARK    1  A    between atoms: N_6  and  C_1 
REMARK    2  A    between atoms: C_7  and  C_2 
REMARK    3  A    between atoms: C_9  and  C_5 
ROOT
ATOM      1  C   UNL d   1     -48.956  13.302  23.120  0.00  0.00     0.189 A 
ATOM      2  C   UNL d   1     -48.814  14.135  23.025  0.00  0.00     0.144 A 
ATOM      3  O   UNL d   1     -48.215  12.921  22.956  0.00  0.00    -0.271 OA
ATOM      4  N   UNL d   1     -48.035  14.247  22.817  0.00  0.00    -0.217 NA
ATOM      5  C   UNL d   1     -47.674  13.540  22.773  0.00  0.00     0.184 A 
ENDROOT
BRANCH   5   6
ATOM      6  C   UNL d   1     -46.888  13.472  22.576  0.00  0.00     0.041 A 
ATOM      7  C   UNL d   1     -46.318  13.953  22.931  0.00  0.00     0.004 A 
ATOM      8  C   UNL d   1     -45.529  13.864  22.714  0.00  0.00     0.011 A 
ATOM      9  C   UNL d   1     -45.304  13.321  22.166  0.00  0.00     0.058 A 
ATOM     10  C   UNL d   1     -45.879  12.839  21.811  0.00  0.00     0.011 A 
ATOM     11 CL   UNL d   1     -44.541  13.126  21.854  0.00  0.00    -0.082 Cl
ATOM     12  C   UNL d   1     -46.678  12.924  22.026  0.00  0.00     0.004 A 
ENDBRANCH   5   6
BRANCH   1  13
ATOM     13  N   UNL d   1     -49.682  13.207  23.314  0.00  0.00    -0.284 N 
ATOM     14  C   UNL d   1     -50.441  13.532  23.493  0.00  0.00     0.082 A 
ATOM     15  C   UNL d   1     -51.065  13.026  23.682  0.00  0.00     0.019 A 
ATOM     16  C   UNL d   1     -50.952  12.197  23.698  0.00  0.00     0.003 A 
ATOM     17  C   UNL d   1     -50.217  11.874  23.524  0.00  0.00     0.019 A 
ATOM     18  C   UNL d   1     -49.570  12.378  23.329  0.00  0.00     0.082 A 
ENDBRANCH   1  13
BRANCH   2  19
ATOM     19  C   UNL d   1     -49.403  14.516  23.150  0.00  0.00     0.145 C 
ATOM     20  N   UNL d   1     -49.751  15.521  23.123  0.00  0.00    -0.145 N 
ENDBRANCH   2  19
TORSDOF 3
ENDMDL
MODEL 6
REMARK VINA RESULT:      -5.4      9.726     10.267
REMARK  3 active torsions:
REMARK  status: ('A' for Active; 'I' for Inactive)
REMARK    1  A    between atoms: N_6  and  C_1 
REMARK    2  A    between atoms: C_7  and  C_2 
REMARK    3  A    between atoms: C_9  and  C_5 
ROOT
ATOM      1  C   UNL d   1     -39.954  14.862  18.660  0.00  0.00     0.189 A 
ATOM      2  C   UNL d   1     -39.414  14.205  18.696  0.00  0.00     0.144 A 
ATOM      3  O   UNL d   1     -40.014  15.154  19.455  0.00  0.00    -0.271 OA
ATOM      4  N   UNL d   1     -39.167  14.109  19.465  0.00  0.00    -0.217 NA
ATOM      5  C   UNL d   1     -39.513  14.662  19.920  0.00  0.00     0.184 A 
ENDROOT
BRANCH   5   6
ATOM      6  C   UNL d   1     -39.374  14.708  20.720  0.00  0.00     0.041 A 
ATOM      7  C   UNL d   1     -39.660  14.127  21.234  0.00  0.00     0.004 A 
ATOM      8  C   UNL d   1     -39.505  14.198  22.040  0.00  0.00     0.011 A 
ATOM      9  C   UNL d   1     -39.084  14.815  22.334  0.00  0.00     0.058 A 
ATOM     10  C   UNL d   1     -38.797  15.396  21.815  0.00  0.00     0.011 A 
ATOM     11 CL   UNL d   1     -38.855  15.008  23.126  0.00  0.00    -0.082 Cl
ATOM     12  C   UNL d   1     -38.950  15.331  20.999  0.00  0.00     0.004 A 
ENDBRANCH   5   6
BRANCH   1  13
ATOM     13  N   UNL d   1     -40.179  14.944  17.942  0.00  0.00    -0.284 N 
ATOM     14  C   UNL d   1     -40.129  14.721  17.128  0.00  0.00     0.082 A 
ATOM     15  C   UNL d   1     -40.608  15.100  16.574  0.00  0.00     0.019 A 
ATOM     16  C   UNL d   1     -41.141  15.700  16.809  0.00  0.00     0.003 A 
ATOM     17  C   UNL d   1     -41.196  15.922  17.599  0.00  0.00     0.019 A 
ATOM     18  C   UNL d   1     -40.713  15.544  18.178  0.00  0.00     0.082 A 
ENDBRANCH   1  13
BRANCH   2  19
ATOM     19  C   UNL d   1     -39.319  13.911  18.054  0.00  0.00     0.145 C 
ATOM     20  N   UNL d   1     -38.792  13.113  17.587  0.00  0.00    -0.145 N 
ENDBRANCH   2  19
TORSDOF 3
ENDMDL
MODEL 7
REMARK VINA RESULT:      -5.4      9.447     11.040
REMARK  3 active torsions:
REMARK  status: ('A' for Active; 'I' for Inactive)
REMARK    1  A    between atoms: N_6  and  C_1 
REMARK    2  A    between atoms: C_7  and  C_2 
REMARK    3  A    between atoms: C_9  and  C_5 
ROOT
ATOM      1  C   UNL d   1     -39.262  14.716  17.848  0.00  0.00     0.189 A 
ATOM      2  C   UNL d   1     -39.991  15.149  17.780  0.00  0.00     0.144 A 
ATOM      3  O   UNL d   1     -39.066  14.723  18.675  0.00  0.00    -0.271 OA
ATOM      4  N   UNL d   1     -40.218  15.400  18.521  0.00  0.00    -0.217 NA
ATOM      5  C   UNL d   1     -39.682  15.156  19.054  0.00  0.00     0.184 A 
ENDROOT
BRANCH   5   6
ATOM      6  C   UNL d   1     -39.757  15.323  19.846  0.00  0.00     0.041 A 
ATOM      7  C   UNL d   1     -40.419  15.069  20.272  0.00  0.00     0.004 A 
ATOM      8  C   UNL d   1     -40.471  15.251  21.073  0.00  0.00     0.011 A 
ATOM      9  C   UNL d   1     -39.895  15.668  21.447  0.00  0.00     0.058 A 
ATOM     10  C   UNL d   1     -39.231  15.922  21.016  0.00  0.00     0.011 A 
ATOM     11 CL   UNL d   1     -39.821  15.921  22.251  0.00  0.00    -0.082 Cl
ATOM     12  C   UNL d   1     -39.173  15.741  20.206  0.00  0.00     0.004 A 
ENDBRANCH   5   6
BRANCH   1  13
ATOM     13  N   UNL d   1     -39.058  14.486  17.156  0.00  0.00    -0.284 N 
ATOM     14  C   UNL d   1     -39.161  14.507  16.318  0.00  0.00     0.082 A 
ATOM     15  C   UNL d   1     -38.671  14.048  15.838  0.00  0.00     0.019 A 
ATOM     16  C   UNL d   1     -38.076  13.565  16.173  0.00  0.00     0.003 A 
ATOM     17  C   UNL d   1     -37.970  13.540  16.988  0.00  0.00     0.019 A 
ATOM     18  C   UNL d   1     -38.463  14.003  17.492  0.00  0.00     0.082 A 
ENDBRANCH   1  13
BRANCH   2  19
ATOM     19  C   UNL d   1     -40.213  15.180  17.104  0.00  0.00     0.145 C 
ATOM     20  N   UNL d   1     -41.011  15.574  16.520  0.00  0.00    -0.145 N 
ENDBRANCH   2  19
TORSDOF 3
ENDMDL
MODEL 8
REMARK VINA RESULT:      -4.9      9.235     10.706
REMARK  3 active torsions:
REMARK  status: ('A' for Active; 'I' for Inactive)
REMARK    1  A    between atoms: N_6  and  C_1 
REMARK    2  A    between atoms: C_7  and  C_2 
REMARK    3  A    between atoms: C_9  and  C_5 
ROOT
ATOM      1  C   UNL d   1     -39.481  14.869  19.801  0.00  0.00     0.189 A 
ATOM      2  C   UNL d   1     -40.175  14.434  19.566  0.00  0.00     0.144 A 
ATOM      3  O   UNL d   1     -38.947  14.821  19.143  0.00  0.00    -0.271 OA
ATOM      4  N   UNL d   1     -40.062  14.145  18.813  0.00  0.00    -0.217 NA
ATOM      5  C   UNL d   1     -39.343  14.367  18.555  0.00  0.00     0.184 A 
ENDROOT
BRANCH   5   6
ATOM      6  C   UNL d   1     -39.070  14.160  17.818  0.00  0.00     0.041 A 
ATOM      7  C   UNL d   1     -38.663  13.450  17.701  0.00  0.00     0.004 A 
ATOM      8  C   UNL d   1     -38.396  13.264  16.944  0.00  0.00     0.011 A 
ATOM      9  C   UNL d   1     -38.523  13.756  16.322  0.00  0.00     0.058 A 
ATOM     10  C   UNL d   1     -38.932  14.468  16.443  0.00  0.00     0.011 A 
ATOM     11 CL   UNL d   1     -38.308  13.691  15.505  0.00  0.00    -0.082 Cl
ATOM     12  C   UNL d   1     -39.204  14.662  17.205  0.00  0.00     0.004 A 
ENDBRANCH   5   6
BRANCH   1  13
ATOM     13  N   UNL d   1     -39.595  15.134  20.501  0.00  0.00    -0.284 N 
ATOM     14  C   UNL d   1     -40.101  15.248  21.168  0.00  0.00     0.082 A 
ATOM     15  C   UNL d   1     -39.812  15.638  21.834  0.00  0.00     0.019 A 
ATOM     16  C   UNL d   1     -39.025  15.922  21.854  0.00  0.00     0.003 A 
ATOM     17  C   UNL d   1     -38.527  15.815  21.209  0.00  0.00     0.019 A 
ATOM     18  C   UNL d   1     -38.808  15.417  20.521  0.00  0.00     0.082 A 
ENDBRANCH   1  13
BRANCH   2  19
ATOM     19  C   UNL d   1     -40.669  14.435  20.079  0.00  0.00     0.145 C 
ATOM     20  N   UNL d   1     -41.635  14.040  20.288  0.00  0.00    -0.145 N 
ENDBRANCH   2  19
TORSDOF 3
ENDMDL
