MODEL 1
REMARK VINA RESULT:      61.7      0.000      0.000
REMARK  5 active torsions:
REMARK  status: ('A' for Active; 'I' for Inactive)
REMARK    1  A    between atoms: N_2  and  S_1 
REMARK    2  A    between atoms: C_4  and  S_1 
REMARK    3  A    between atoms: C_5  and  C_9 
REMARK       I    between atoms: N_8  and  C_5 
REMARK    4  A    between atoms: C_17  and  N_8 
REMARK    5  A    between atoms: C_18  and  C_17 
ROOT
ATOM      1  C   UNL d   1      13.998  14.933  -4.473  0.00  0.00     0.104 A 
ATOM      2  C   UNL d   1      14.567  16.342  -4.961  0.00  0.00     0.058 A 
ATOM      3  C   UNL d   1      14.106  15.522  -3.940  0.00  0.00     0.013 A 
ATOM      4  C   UNL d   1      14.175  15.043  -5.262  0.00  0.00     0.013 A 
ATOM      5  C   UNL d   1      14.391  16.228  -4.185  0.00  0.00     0.005 A 
ATOM      6  C   UNL d   1      14.461  15.760  -5.493  0.00  0.00     0.005 A 
ENDROOT
BRANCH   1   7
ATOM      7  S   UNL d   1      13.712  14.220  -4.237  0.00  0.00     0.271 S 
ATOM      8  O   UNL d   1      13.083  14.567  -3.902  0.00  0.00    -0.200 OA
ATOM      9  O   UNL d   1      14.483  13.872  -4.656  0.00  0.00    -0.200 OA
BRANCH   7  10
ATOM     10  N   UNL d   1      13.473  13.405  -4.019  0.00  0.00    -0.231 N 
ATOM     11  C   UNL d   1      13.713  13.088  -3.237  0.00  0.00     0.075 A 
ATOM     12  C   UNL d   1      13.477  12.276  -3.014  0.00  0.00     0.017 A 
ATOM     13  C   UNL d   1      14.176  13.559  -2.680  0.00  0.00     0.018 A 
ATOM     14  C   UNL d   1      13.706  11.943  -2.240  0.00  0.00     0.002 A 
ATOM     15  C   UNL d   1      13.004  11.781  -3.569  0.00  0.00     0.003 A 
ATOM     16  C   UNL d   1      14.170  12.424  -1.689  0.00  0.00     0.000 A 
ATOM     17  C   UNL d   1      14.410  13.239  -1.907  0.00  0.00     0.002 A 
ATOM     18  C   UNL d   1      12.771  12.106  -4.345  0.00  0.00     0.020 A 
ATOM     19  C   UNL d   1      13.008  12.924  -4.570  0.00  0.00     0.092 A 
ENDBRANCH   7  10
ENDBRANCH   1   7
BRANCH   2  20
ATOM     20  C   UNL d   1      14.855  17.056  -5.205  0.00  0.00     0.279 C 
ATOM     21  N   UNL d   1      14.404  17.531  -5.677  0.00  0.00    -0.206 NA
ATOM     22  O   UNL d   1      15.582  17.298  -4.984  0.00  0.00    -0.265 OA
BRANCH  21  23
ATOM     23  C   UNL d   1      14.686  18.239  -5.921  0.00  0.00     0.102 C 
BRANCH  23  24
ATOM     24  C   UNL d   1      14.173  18.868  -6.066  0.00  0.00     0.019 A 
ATOM     25  C   UNL d   1      13.386  18.713  -6.242  0.00  0.00     0.002 A 
ATOM     26  C   UNL d   1      12.868  19.336  -6.388  0.00  0.00     0.000 A 
ATOM     27  C   UNL d   1      13.143  20.126  -6.358  0.00  0.00     0.000 A 
ATOM     28  C   UNL d   1      13.935  20.270  -6.181  0.00  0.00     0.000 A 
ATOM     29  C   UNL d   1      14.454  19.640  -6.034  0.00  0.00     0.002 A 
ENDBRANCH  23  24
ENDBRANCH  21  23
ENDBRANCH   2  20
TORSDOF 5
ENDMDL
