MODEL 1
REMARK VINA RESULT:      50.2      0.000      0.000
REMARK  3 active torsions:
REMARK  status: ('A' for Active; 'I' for Inactive)
REMARK    1  A    between atoms: N_7  and  C_6 
REMARK       I    between atoms: C_8  and  N_7 
REMARK    2  A    between atoms: C_12  and  C_8 
REMARK    3  A    between atoms: C_16  and  C_12 
ROOT
ATOM      1  C   UNL d   1     -50.289  24.914  33.331  0.00  0.00     0.269 A 
ATOM      2  N   UNL d   1     -50.743  24.213  33.330  0.00  0.00    -0.239 N 
ATOM      3  C   UNL d   1     -50.825  25.543  33.323  0.00  0.00     0.079 A 
ATOM      4  C   UNL d   1     -51.526  24.415  33.322  0.00  0.00     0.267 A 
ATOM      5  C   UNL d   1     -51.590  25.235  33.318  0.00  0.00     0.063 A 
ATOM      6  C   UNL d   1     -50.707  26.356  33.320  0.00  0.00     0.089 A 
ATOM      7  O   UNL d   1     -49.468  24.973  33.337  0.00  0.00    -0.267 OA
ATOM      8  O   UNL d   1     -52.169  23.875  33.319  0.00  0.00    -0.267 OA
ATOM      9  C   UNL d   1     -50.439  23.445  33.337  0.00  0.00     0.105 C 
ATOM     10  C   UNL d   1     -52.238  25.739  33.309  0.00  0.00     0.005 A 
ATOM     11  C   UNL d   1     -51.357  26.865  33.311  0.00  0.00     0.019 A 
ATOM     12  C   UNL d   1     -52.123  26.556  33.306  0.00  0.00     0.002 A 
ENDROOT
BRANCH   6  13
ATOM     13  N   UNL d   1     -49.942  26.664  33.325  0.00  0.00    -0.208 NA
ATOM     14  C   UNL d   1     -49.825  27.462  33.492  0.00  0.00     0.279 C 
ATOM     15  O   UNL d   1     -50.464  27.954  33.654  0.00  0.00    -0.265 OA
BRANCH  14  16
ATOM     16  C   UNL d   1     -49.059  27.770  33.497  0.00  0.00     0.062 C 
BRANCH  16  17
ATOM     17  C   UNL d   1     -48.792  28.198  34.151  0.00  0.00     0.005 A 
ATOM     18  C   UNL d   1     -48.860  29.020  34.161  0.00  0.00     0.000 A 
ATOM     19  C   UNL d   1     -48.598  29.448  34.803  0.00  0.00     0.000 A 
ATOM     20  C   UNL d   1     -48.261  29.053  35.449  0.00  0.00     0.000 A 
ATOM     21  C   UNL d   1     -48.192  28.231  35.438  0.00  0.00     0.000 A 
ATOM     22  C   UNL d   1     -48.460  27.804  34.785  0.00  0.00     0.000 A 
ENDBRANCH  16  17
ENDBRANCH  14  16
ENDBRANCH   6  13
TORSDOF 3
ENDMDL
