MODEL 1
REMARK VINA RESULT:      50.3      0.000      0.000
REMARK  5 active torsions:
REMARK  status: ('A' for Active; 'I' for Inactive)
REMARK    1  A    between atoms: N_4  and  S_1 
REMARK    2  A    between atoms: C_5  and  S_1 
REMARK       I    between atoms: N_2  and  C_3 
REMARK    3  A    between atoms: C_3  and  C_11 
REMARK    4  A    between atoms: C_21  and  N_4 
REMARK    5  A    between atoms: C_12  and  C_13 
ROOT
ATOM      1  C   UNL d   1      44.833 -17.094  38.797  0.00  0.00     0.057 A 
ATOM      2  C   UNL d   1      46.032 -17.906  39.584  0.00  0.00     0.094 A 
ATOM      3  C   UNL d   1      45.604 -17.055  38.517  0.00  0.00     0.006 A 
ATOM      4  C   UNL d   1      44.657 -17.540  39.473  0.00  0.00     0.006 A 
ATOM      5  C   UNL d   1      46.208 -17.459  38.907  0.00  0.00     0.020 A 
ATOM      6  C   UNL d   1      45.261 -17.945  39.863  0.00  0.00     0.020 A 
ENDROOT
BRANCH   2   7
ATOM      7  N   UNL d   1      46.636 -18.310  39.974  0.00  0.00    -0.158 NA
BRANCH   7   8
ATOM      8  S   UNL d   1      46.530 -18.569  40.755  0.00  0.00     0.285 S 
ATOM      9  O   UNL d   1      46.546 -19.353  40.498  0.00  0.00    -0.198 OA
ATOM     10  O   UNL d   1      46.514 -17.778  41.010  0.00  0.00    -0.198 OA
BRANCH   8  11
ATOM     11  C   UNL d   1      46.423 -18.827  41.542  0.00  0.00     0.105 A 
ATOM     12  C   UNL d   1      46.434 -18.277  42.154  0.00  0.00     0.013 A 
ATOM     13  C   UNL d   1      46.329 -18.528  42.929  0.00  0.00    -0.004 A 
ATOM     14  C   UNL d   1      46.213 -19.328  43.095  0.00  0.00    -0.023 A 
ATOM     15  C   UNL d   1      46.203 -19.869  42.474  0.00  0.00    -0.004 A 
ATOM     16  C   UNL d   1      46.307 -19.627  41.700  0.00  0.00     0.013 A 
BRANCH  14  17
ATOM     17  C   UNL d   1      46.105 -19.595  43.877  0.00  0.00     0.019 C 
ATOM     18  C   UNL d   1      45.997 -19.864  44.653  0.00  0.00     0.004 C 
ATOM     19  C   UNL d   1      45.840 -20.327  43.591  0.00  0.00     0.004 C 
ATOM     20  C   UNL d   1      46.370 -18.863  44.157  0.00  0.00     0.004 C 
ENDBRANCH  14  17
ENDBRANCH   8  11
ENDBRANCH   7   8
ENDBRANCH   2   7
BRANCH   1  21
ATOM     21  C   UNL d   1      44.229 -16.690  38.406  0.00  0.00     0.265 C 
ATOM     22  N   UNL d   1      44.426 -16.138  37.811  0.00  0.00    -0.268 N 
ATOM     23  C   UNL d   1      45.216 -15.998  37.616  0.00  0.00     0.108 A 
ATOM     24  C   UNL d   1      43.822 -15.733  37.421  0.00  0.00     0.108 A 
ATOM     25  C   UNL d   1      45.404 -15.447  37.022  0.00  0.00     0.118 A 
ATOM     26  C   UNL d   1      46.198 -15.306  36.824  0.00  0.00     0.028 C 
ATOM     27  O   UNL d   1      44.800 -15.043  36.631  0.00  0.00    -0.304 OA
ATOM     28  C   UNL d   1      44.008 -15.180  36.825  0.00  0.00     0.118 A 
ATOM     29  C   UNL d   1      43.405 -14.771  36.430  0.00  0.00     0.028 C 
ATOM     30  O   UNL d   1      43.445 -16.830  38.602  0.00  0.00    -0.267 OA
ENDBRANCH   1  21
TORSDOF 5
ENDMDL
