MODEL 1
REMARK VINA RESULT:      -7.0      0.000      0.000
REMARK  4 active torsions:
REMARK  status: ('A' for Active; 'I' for Inactive)
REMARK    1  A    between atoms: C_8  and  C_1 
REMARK    2  A    between atoms: C_3  and  C_2 
REMARK    3  A    between atoms: O_14  and  C_8 
REMARK    4  A    between atoms: C_16  and  O_14 
ROOT
ATOM      1  C   UNL d   1     -47.838  13.967  22.831  0.00  0.00     0.091 A 
ATOM      2  C   UNL d   1     -47.751  13.199  23.118  0.00  0.00     0.036 A 
ATOM      3  C   UNL d   1     -47.089  14.308  22.742  0.00  0.00     0.138 A 
ATOM      4  C   UNL d   1     -46.937  13.083  23.201  0.00  0.00     0.039 A 
ATOM      5  S   UNL d   1     -46.548  13.749  22.975  0.00  0.00    -0.065 SA
ATOM      6  N   UNL d   1     -46.930  15.082  22.465  0.00  0.00    -0.141 N 
ENDROOT
BRANCH   2   7
ATOM      7  C   UNL d   1     -48.387  12.729  23.260  0.00  0.00     0.101 A 
ATOM      8  O   UNL d   1     -49.177  12.603  23.271  0.00  0.00    -0.307 OA
ATOM      9  C   UNL d   1     -49.301  11.862  23.534  0.00  0.00     0.100 A 
ATOM     10  C   UNL d   1     -50.055  11.519  23.624  0.00  0.00     0.027 C 
ATOM     11  C   UNL d   1     -48.607  11.496  23.697  0.00  0.00     0.027 A 
ATOM     12  C   UNL d   1     -48.030  12.068  23.515  0.00  0.00     0.027 A 
ENDBRANCH   2   7
BRANCH   1  13
ATOM     13  C   UNL d   1     -48.538  14.345  22.657  0.00  0.00     0.302 C 
ATOM     14  O   UNL d   1     -48.917  14.246  21.961  0.00  0.00    -0.259 OA
BRANCH  13  15
ATOM     15  O   UNL d   1     -48.871  14.859  23.235  0.00  0.00    -0.271 OA
BRANCH  15  16
ATOM     16  C   UNL d   1     -49.460  15.356  23.019  0.00  0.00     0.126 C 
ATOM     17  C   UNL d   1     -49.886  15.768  23.617  0.00  0.00     0.029 C 
ENDBRANCH  15  16
ENDBRANCH  13  15
ENDBRANCH   1  13
TORSDOF 4
ENDMDL
MODEL 2
REMARK VINA RESULT:      -6.8      1.669      2.458
REMARK  4 active torsions:
REMARK  status: ('A' for Active; 'I' for Inactive)
REMARK    1  A    between atoms: C_8  and  C_1 
REMARK    2  A    between atoms: C_3  and  C_2 
REMARK    3  A    between atoms: O_14  and  C_8 
REMARK    4  A    between atoms: C_16  and  O_14 
ROOT
ATOM      1  C   UNL d   1     -49.268  12.778  23.110  0.00  0.00     0.091 A 
ATOM      2  C   UNL d   1     -48.553  12.412  23.300  0.00  0.00     0.036 A 
ATOM      3  C   UNL d   1     -49.893  12.296  23.359  0.00  0.00     0.138 A 
ATOM      4  C   UNL d   1     -48.758  11.700  23.666  0.00  0.00     0.039 A 
ATOM      5  S   UNL d   1     -49.559  11.638  23.698  0.00  0.00    -0.065 SA
ATOM      6  N   UNL d   1     -50.708  12.462  23.272  0.00  0.00    -0.141 N 
ENDROOT
BRANCH   2   7
ATOM      7  C   UNL d   1     -47.847  12.753  23.125  0.00  0.00     0.101 A 
ATOM      8  O   UNL d   1     -47.412  13.322  22.767  0.00  0.00    -0.307 OA
ATOM      9  C   UNL d   1     -46.647  13.181  22.932  0.00  0.00     0.100 A 
ATOM     10  C   UNL d   1     -46.017  13.654  22.658  0.00  0.00     0.027 C 
ATOM     11  C   UNL d   1     -46.567  12.531  23.392  0.00  0.00     0.027 A 
ATOM     12  C   UNL d   1     -47.349  12.267  23.507  0.00  0.00     0.027 A 
ENDBRANCH   2   7
BRANCH   1  13
ATOM     13  C   UNL d   1     -49.363  13.497  22.740  0.00  0.00     0.302 C 
ATOM     14  O   UNL d   1     -49.339  13.577  21.945  0.00  0.00    -0.259 OA
BRANCH  13  15
ATOM     15  O   UNL d   1     -49.491  14.181  23.215  0.00  0.00    -0.271 OA
BRANCH  15  16
ATOM     16  C   UNL d   1     -49.735  14.857  22.865  0.00  0.00     0.126 C 
ATOM     17  C   UNL d   1     -49.809  15.555  23.331  0.00  0.00     0.029 C 
ENDBRANCH  15  16
ENDBRANCH  13  15
ENDBRANCH   1  13
TORSDOF 4
ENDMDL
MODEL 3
REMARK VINA RESULT:      -6.8      1.556      2.614
REMARK  4 active torsions:
REMARK  status: ('A' for Active; 'I' for Inactive)
REMARK    1  A    between atoms: C_8  and  C_1 
REMARK    2  A    between atoms: C_3  and  C_2 
REMARK    3  A    between atoms: O_14  and  C_8 
REMARK    4  A    between atoms: C_16  and  O_14 
ROOT
ATOM      1  C   UNL d   1     -48.984  13.856  22.473  0.00  0.00     0.091 A 
ATOM      2  C   UNL d   1     -48.219  14.102  22.661  0.00  0.00     0.036 A 
ATOM      3  C   UNL d   1     -49.456  14.522  22.339  0.00  0.00     0.138 A 
ATOM      4  C   UNL d   1     -48.238  14.927  22.637  0.00  0.00     0.039 A 
ATOM      5  S   UNL d   1     -48.979  15.171  22.444  0.00  0.00    -0.065 SA
ATOM      6  N   UNL d   1     -50.267  14.518  22.134  0.00  0.00    -0.141 N 
ENDROOT
BRANCH   2   7
ATOM      7  C   UNL d   1     -47.635  13.573  22.820  0.00  0.00     0.101 A 
ATOM      8  O   UNL d   1     -47.376  12.821  22.914  0.00  0.00    -0.307 OA
ATOM      9  C   UNL d   1     -46.601  12.853  23.093  0.00  0.00     0.100 A 
ATOM     10  C   UNL d   1     -46.128  12.181  23.233  0.00  0.00     0.027 C 
ATOM     11  C   UNL d   1     -46.343  13.611  23.120  0.00  0.00     0.027 A 
ATOM     12  C   UNL d   1     -47.021  14.061  22.942  0.00  0.00     0.027 A 
ENDBRANCH   2   7
BRANCH   1  13
ATOM     13  C   UNL d   1     -49.250  13.088  22.424  0.00  0.00     0.302 C 
ATOM     14  O   UNL d   1     -49.169  12.648  21.761  0.00  0.00    -0.259 OA
BRANCH  13  15
ATOM     15  O   UNL d   1     -49.623  12.747  23.097  0.00  0.00    -0.271 OA
BRANCH  15  16
ATOM     16  C   UNL d   1     -50.020  12.058  23.014  0.00  0.00     0.126 C 
ATOM     17  C   UNL d   1     -50.352  11.693  23.696  0.00  0.00     0.029 C 
ENDBRANCH  15  16
ENDBRANCH  13  15
ENDBRANCH   1  13
TORSDOF 4
ENDMDL
MODEL 4
REMARK VINA RESULT:      -6.8      1.870      3.161
REMARK  4 active torsions:
REMARK  status: ('A' for Active; 'I' for Inactive)
REMARK    1  A    between atoms: C_8  and  C_1 
REMARK    2  A    between atoms: C_3  and  C_2 
REMARK    3  A    between atoms: O_14  and  C_8 
REMARK    4  A    between atoms: C_16  and  O_14 
ROOT
ATOM      1  C   UNL d   1     -47.096  12.523  23.305  0.00  0.00     0.091 A 
ATOM      2  C   UNL d   1     -47.885  12.753  23.230  0.00  0.00     0.036 A 
ATOM      3  C   UNL d   1     -47.068  11.734  23.555  0.00  0.00     0.138 A 
ATOM      4  C   UNL d   1     -48.331  12.090  23.438  0.00  0.00     0.039 A 
ATOM      5  S   UNL d   1     -47.837  11.486  23.630  0.00  0.00    -0.065 SA
ATOM      6  N   UNL d   1     -46.375  11.287  23.698  0.00  0.00    -0.141 N 
ENDROOT
BRANCH   2   7
ATOM      7  C   UNL d   1     -48.085  13.496  22.995  0.00  0.00     0.101 A 
ATOM      8  O   UNL d   1     -47.888  14.247  22.802  0.00  0.00    -0.307 OA
ATOM      9  C   UNL d   1     -48.559  14.633  22.617  0.00  0.00     0.100 A 
ATOM     10  C   UNL d   1     -48.587  15.433  22.384  0.00  0.00     0.027 C 
ATOM     11  C   UNL d   1     -49.195  14.151  22.685  0.00  0.00     0.027 A 
ATOM     12  C   UNL d   1     -48.872  13.423  22.929  0.00  0.00     0.027 A 
ENDBRANCH   2   7
BRANCH   1  13
ATOM     13  C   UNL d   1     -46.439  12.983  23.163  0.00  0.00     0.302 C 
ATOM     14  O   UNL d   1     -46.156  13.504  23.698  0.00  0.00    -0.259 OA
BRANCH  13  15
ATOM     15  O   UNL d   1     -46.046  12.903  22.422  0.00  0.00    -0.271 OA
BRANCH  15  16
ATOM     16  C   UNL d   1     -45.335  13.254  22.320  0.00  0.00     0.126 C 
ATOM     17  C   UNL d   1     -44.885  13.075  21.631  0.00  0.00     0.029 C 
ENDBRANCH  15  16
ENDBRANCH  13  15
ENDBRANCH   1  13
TORSDOF 4
ENDMDL
MODEL 5
REMARK VINA RESULT:      -6.6      1.066      1.344
REMARK  4 active torsions:
REMARK  status: ('A' for Active; 'I' for Inactive)
REMARK    1  A    between atoms: C_8  and  C_1 
REMARK    2  A    between atoms: C_3  and  C_2 
REMARK    3  A    between atoms: O_14  and  C_8 
REMARK    4  A    between atoms: C_16  and  O_14 
ROOT
ATOM      1  C   UNL d   1     -47.494  12.802  22.895  0.00  0.00     0.091 A 
ATOM      2  C   UNL d   1     -47.923  12.229  23.305  0.00  0.00     0.036 A 
ATOM      3  C   UNL d   1     -46.687  12.688  23.039  0.00  0.00     0.138 A 
ATOM      4  C   UNL d   1     -47.362  11.768  23.698  0.00  0.00     0.039 A 
ATOM      5  S   UNL d   1     -46.626  12.048  23.535  0.00  0.00    -0.065 SA
ATOM      6  N   UNL d   1     -46.061  13.149  22.729  0.00  0.00    -0.141 N 
ENDROOT
BRANCH   2   7
ATOM      7  C   UNL d   1     -48.726  12.201  23.270  0.00  0.00     0.101 A 
ATOM      8  O   UNL d   1     -49.429  12.507  23.039  0.00  0.00    -0.307 OA
ATOM      9  C   UNL d   1     -50.002  12.019  23.299  0.00  0.00     0.100 A 
ATOM     10  C   UNL d   1     -50.815  12.146  23.170  0.00  0.00     0.027 C 
ATOM     11  C   UNL d   1     -49.691  11.398  23.698  0.00  0.00     0.027 A 
ATOM     12  C   UNL d   1     -48.869  11.531  23.670  0.00  0.00     0.027 A 
ENDBRANCH   2   7
BRANCH   1  13
ATOM     13  C   UNL d   1     -47.796  13.392  22.421  0.00  0.00     0.302 C 
ATOM     14  O   UNL d   1     -47.960  13.278  21.648  0.00  0.00    -0.259 OA
BRANCH  13  15
ATOM     15  O   UNL d   1     -47.941  14.147  22.763  0.00  0.00    -0.271 OA
BRANCH  15  16
ATOM     16  C   UNL d   1     -48.085  14.770  22.282  0.00  0.00     0.126 C 
ATOM     17  C   UNL d   1     -48.488  15.441  22.592  0.00  0.00     0.029 C 
ENDBRANCH  15  16
ENDBRANCH  13  15
ENDBRANCH   1  13
TORSDOF 4
ENDMDL
MODEL 6
REMARK VINA RESULT:      -6.6      1.294      2.771
REMARK  4 active torsions:
REMARK  status: ('A' for Active; 'I' for Inactive)
REMARK    1  A    between atoms: C_8  and  C_1 
REMARK    2  A    between atoms: C_3  and  C_2 
REMARK    3  A    between atoms: O_14  and  C_8 
REMARK    4  A    between atoms: C_16  and  O_14 
ROOT
ATOM      1  C   UNL d   1     -47.810  12.410  23.058  0.00  0.00     0.091 A 
ATOM      2  C   UNL d   1     -47.491  13.171  23.085  0.00  0.00     0.036 A 
ATOM      3  C   UNL d   1     -47.245  11.871  23.331  0.00  0.00     0.138 A 
ATOM      4  C   UNL d   1     -46.724  13.081  23.379  0.00  0.00     0.039 A 
ATOM      5  S   UNL d   1     -46.584  12.302  23.523  0.00  0.00    -0.065 SA
ATOM      6  N   UNL d   1     -47.344  11.042  23.393  0.00  0.00    -0.141 N 
ENDROOT
BRANCH   2   7
ATOM      7  C   UNL d   1     -47.915  13.813  22.852  0.00  0.00     0.101 A 
ATOM      8  O   UNL d   1     -48.602  14.155  22.627  0.00  0.00    -0.307 OA
ATOM      9  C   UNL d   1     -48.456  14.925  22.490  0.00  0.00     0.100 A 
ATOM     10  C   UNL d   1     -49.034  15.473  22.244  0.00  0.00     0.027 C 
ATOM     11  C   UNL d   1     -47.685  15.098  22.621  0.00  0.00     0.027 A 
ATOM     12  C   UNL d   1     -47.351  14.372  22.853  0.00  0.00     0.027 A 
ENDBRANCH   2   7
BRANCH   1  13
ATOM     13  C   UNL d   1     -48.557  12.205  22.807  0.00  0.00     0.302 C 
ATOM     14  O   UNL d   1     -48.732  12.084  22.037  0.00  0.00    -0.259 OA
BRANCH  13  15
ATOM     15  O   UNL d   1     -49.164  12.116  23.384  0.00  0.00    -0.271 OA
BRANCH  15  16
ATOM     16  C   UNL d   1     -49.849  11.760  23.175  0.00  0.00     0.126 C 
ATOM     17  C   UNL d   1     -50.507  11.800  23.698  0.00  0.00     0.029 C 
ENDBRANCH  15  16
ENDBRANCH  13  15
ENDBRANCH   1  13
TORSDOF 4
ENDMDL
MODEL 7
REMARK VINA RESULT:      -6.5      1.012      2.664
REMARK  4 active torsions:
REMARK  status: ('A' for Active; 'I' for Inactive)
REMARK    1  A    between atoms: C_8  and  C_1 
REMARK    2  A    between atoms: C_3  and  C_2 
REMARK    3  A    between atoms: O_14  and  C_8 
REMARK    4  A    between atoms: C_16  and  O_14 
ROOT
ATOM      1  C   UNL d   1     -47.447  13.313  22.680  0.00  0.00     0.091 A 
ATOM      2  C   UNL d   1     -47.697  14.099  22.697  0.00  0.00     0.036 A 
ATOM      3  C   UNL d   1     -46.635  13.285  22.836  0.00  0.00     0.138 A 
ATOM      4  C   UNL d   1     -47.022  14.544  22.864  0.00  0.00     0.039 A 
ATOM      5  S   UNL d   1     -46.392  14.052  22.946  0.00  0.00    -0.065 SA
ATOM      6  N   UNL d   1     -46.163  12.595  22.870  0.00  0.00    -0.141 N 
ENDROOT
BRANCH   2   7
ATOM      7  C   UNL d   1     -48.464  14.299  22.564  0.00  0.00     0.101 A 
ATOM      8  O   UNL d   1     -49.217  14.103  22.374  0.00  0.00    -0.307 OA
ATOM      9  C   UNL d   1     -49.650  14.771  22.384  0.00  0.00     0.100 A 
ATOM     10  C   UNL d   1     -50.466  14.799  22.215  0.00  0.00     0.027 C 
ATOM     11  C   UNL d   1     -49.198  15.403  22.578  0.00  0.00     0.027 A 
ATOM     12  C   UNL d   1     -48.438  15.082  22.690  0.00  0.00     0.027 A 
ENDBRANCH   2   7
BRANCH   1  13
ATOM     13  C   UNL d   1     -47.909  12.658  22.536  0.00  0.00     0.302 C 
ATOM     14  O   UNL d   1     -48.082  12.410  21.797  0.00  0.00    -0.259 OA
BRANCH  13  15
ATOM     15  O   UNL d   1     -48.214  12.229  23.193  0.00  0.00    -0.271 OA
BRANCH  15  16
ATOM     16  C   UNL d   1     -48.530  11.504  23.071  0.00  0.00     0.126 C 
ATOM     17  C   UNL d   1     -48.950  11.131  23.698  0.00  0.00     0.029 C 
ENDBRANCH  15  16
ENDBRANCH  13  15
ENDBRANCH   1  13
TORSDOF 4
ENDMDL
MODEL 8
REMARK VINA RESULT:      -6.2      1.349      2.265
REMARK  4 active torsions:
REMARK  status: ('A' for Active; 'I' for Inactive)
REMARK    1  A    between atoms: C_8  and  C_1 
REMARK    2  A    between atoms: C_3  and  C_2 
REMARK    3  A    between atoms: O_14  and  C_8 
REMARK    4  A    between atoms: C_16  and  O_14 
ROOT
ATOM      1  C   UNL d   1     -48.844  14.285  22.684  0.00  0.00     0.091 A 
ATOM      2  C   UNL d   1     -49.561  14.096  23.048  0.00  0.00     0.036 A 
ATOM      3  C   UNL d   1     -48.806  15.104  22.573  0.00  0.00     0.138 A 
ATOM      4  C   UNL d   1     -49.953  14.815  23.154  0.00  0.00     0.039 A 
ATOM      5  S   UNL d   1     -49.497  15.412  22.869  0.00  0.00    -0.065 SA
ATOM      6  N   UNL d   1     -48.173  15.525  22.223  0.00  0.00    -0.141 N 
ENDROOT
BRANCH   2   7
ATOM      7  C   UNL d   1     -49.754  13.336  23.226  0.00  0.00     0.101 A 
ATOM      8  O   UNL d   1     -49.570  12.559  23.272  0.00  0.00    -0.307 OA
ATOM      9  C   UNL d   1     -50.208  12.176  23.555  0.00  0.00     0.100 A 
ATOM     10  C   UNL d   1     -50.238  11.353  23.684  0.00  0.00     0.027 C 
ATOM     11  C   UNL d   1     -50.809  12.686  23.698  0.00  0.00     0.027 A 
ATOM     12  C   UNL d   1     -50.499  13.428  23.481  0.00  0.00     0.027 A 
ENDBRANCH   2   7
BRANCH   1  13
ATOM     13  C   UNL d   1     -48.258  13.765  22.463  0.00  0.00     0.302 C 
ATOM     14  O   UNL d   1     -48.287  13.352  21.779  0.00  0.00    -0.259 OA
BRANCH  13  15
ATOM     15  O   UNL d   1     -47.599  13.660  22.976  0.00  0.00    -0.271 OA
BRANCH  15  16
ATOM     16  C   UNL d   1     -46.937  13.314  22.691  0.00  0.00     0.126 C 
ATOM     17  C   UNL d   1     -46.323  13.103  23.228  0.00  0.00     0.029 C 
ENDBRANCH  15  16
ENDBRANCH  13  15
ENDBRANCH   1  13
TORSDOF 4
ENDMDL
MODEL 9
REMARK VINA RESULT:      -6.2      1.971      3.536
REMARK  4 active torsions:
REMARK  status: ('A' for Active; 'I' for Inactive)
REMARK    1  A    between atoms: C_8  and  C_1 
REMARK    2  A    between atoms: C_3  and  C_2 
REMARK    3  A    between atoms: O_14  and  C_8 
REMARK    4  A    between atoms: C_16  and  O_14 
ROOT
ATOM      1  C   UNL d   1     -49.796  12.647  23.161  0.00  0.00     0.091 A 
ATOM      2  C   UNL d   1     -49.943  13.459  23.194  0.00  0.00     0.036 A 
ATOM      3  C   UNL d   1     -50.446  12.242  23.474  0.00  0.00     0.138 A 
ATOM      4  C   UNL d   1     -50.692  13.535  23.533  0.00  0.00     0.039 A 
ATOM      5  S   UNL d   1     -50.986  12.805  23.698  0.00  0.00    -0.065 SA
ATOM      6  N   UNL d   1     -50.522  11.411  23.544  0.00  0.00    -0.141 N 
ENDROOT
BRANCH   2   7
ATOM      7  C   UNL d   1     -49.407  13.994  22.927  0.00  0.00     0.101 A 
ATOM      8  O   UNL d   1     -48.717  14.174  22.563  0.00  0.00    -0.307 OA
ATOM      9  C   UNL d   1     -48.647  14.967  22.556  0.00  0.00     0.100 A 
ATOM     10  C   UNL d   1     -47.999  15.374  22.224  0.00  0.00     0.027 C 
ATOM     11  C   UNL d   1     -49.277  15.314  22.909  0.00  0.00     0.027 A 
ATOM     12  C   UNL d   1     -49.756  14.674  23.141  0.00  0.00     0.027 A 
ENDBRANCH   2   7
BRANCH   1  13
ATOM     13  C   UNL d   1     -49.126  12.286  22.870  0.00  0.00     0.302 C 
ATOM     14  O   UNL d   1     -49.027  12.129  22.093  0.00  0.00    -0.259 OA
BRANCH  13  15
ATOM     15  O   UNL d   1     -48.518  12.071  23.412  0.00  0.00    -0.271 OA
BRANCH  15  16
ATOM     16  C   UNL d   1     -47.934  11.583  23.166  0.00  0.00     0.126 C 
ATOM     17  C   UNL d   1     -47.291  11.422  23.685  0.00  0.00     0.029 C 
ENDBRANCH  15  16
ENDBRANCH  13  15
ENDBRANCH   1  13
TORSDOF 4
ENDMDL
