MODEL 1
REMARK VINA RESULT:      51.1      0.000      0.000
REMARK  5 active torsions:
REMARK  status: ('A' for Active; 'I' for Inactive)
REMARK       I    between atoms: N_4  and  C_1 
REMARK       I    between atoms: N_8  and  C_1 
REMARK    1  A    between atoms: C_2  and  C_3 
REMARK    2  A    between atoms: C_5  and  C_2 
REMARK    3  A    between atoms: N_6  and  C_2 
REMARK    4  A    between atoms: C_3  and  N_4 
REMARK    5  A    between atoms: C_12  and  N_8 
ROOT
ATOM      1  C   UNL d   1      14.378  13.768  -1.578  0.00  0.00     0.103 C 
ATOM      2  C   UNL d   1      14.525  14.536  -1.344  0.00  0.00     0.022 C 
ENDROOT
BRANCH   1   3
ATOM      3  C   UNL d   1      14.541  13.139  -1.072  0.00  0.00     0.088 C 
BRANCH   3   4
ATOM      4  C   UNL d   1      13.927  12.746  -0.696  0.00  0.00     0.047 A 
ATOM      5  S   UNL d   1      13.875  11.935  -0.562  0.00  0.00    -0.085 SA
ATOM      6  C   UNL d   1      13.165  11.783  -0.167  0.00  0.00     0.035 A 
ATOM      7  C   UNL d   1      12.772  12.501  -0.054  0.00  0.00     0.007 A 
ATOM      8  C   UNL d   1      13.243  13.094  -0.381  0.00  0.00     0.009 A 
ENDBRANCH   3   4
BRANCH   3   9
ATOM      9  N   UNL d   1      15.325  12.902  -0.942  0.00  0.00    -0.299 N 
ATOM     10  C   UNL d   1      15.645  12.278  -1.368  0.00  0.00     0.107 A 
ATOM     11  C   UNL d   1      16.422  12.042  -1.240  0.00  0.00     0.142 A 
ATOM     12  O   UNL d   1      16.896  12.432  -0.678  0.00  0.00    -0.300 OA
ATOM     13  C   UNL d   1      16.568  13.064  -0.250  0.00  0.00     0.142 A 
ATOM     14  C   UNL d   1      15.787  13.300  -0.379  0.00  0.00     0.107 A 
ENDBRANCH   3   9
ENDBRANCH   1   3
BRANCH   1  15
ATOM     15  N   UNL d   1      14.063  13.619  -2.331  0.00  0.00    -0.190 NA
ATOM     16  C   UNL d   1      13.952  14.242  -2.857  0.00  0.00     0.369 C 
ATOM     17  N   UNL d   1      13.637  14.091  -3.607  0.00  0.00    -0.191 NA
ATOM     18  O   UNL d   1      14.149  15.008  -2.643  0.00  0.00    -0.242 OA
BRANCH  17  19
ATOM     19  C   UNL d   1      13.437  13.321  -3.826  0.00  0.00     0.086 A 
ATOM     20  C   UNL d   1      13.701  13.020  -4.546  0.00  0.00     0.019 A 
ATOM     21  C   UNL d   1      13.504  12.259  -4.765  0.00  0.00     0.002 A 
ATOM     22  C   UNL d   1      13.766  11.950  -5.489  0.00  0.00     0.000 C 
ATOM     23  C   UNL d   1      13.038  11.784  -4.263  0.00  0.00     0.000 A 
ATOM     24  C   UNL d   1      12.776  12.088  -3.543  0.00  0.00     0.002 A 
ATOM     25  C   UNL d   1      12.977  12.862  -3.324  0.00  0.00     0.019 A 
ENDBRANCH  17  19
ENDBRANCH   1  15
TORSDOF 5
ENDMDL
