MODEL 1
REMARK VINA RESULT:      -6.4      0.000      0.000
REMARK  5 active torsions:
REMARK  status: ('A' for Active; 'I' for Inactive)
REMARK    1  A    between atoms: C_12  and  N_3 
REMARK    2  A    between atoms: C_10  and  N_7 
REMARK    3  A    between atoms: C_11  and  C_10 
REMARK    4  A    between atoms: C_14  and  C_11 
REMARK    5  A    between atoms: C_19  and  C_12 
ROOT
ATOM      1  C   UNL d   1     -41.364-122.779 -52.727  0.00  0.00     0.191 A 
ATOM      2  C   UNL d   1     -41.267-122.153 -52.183  0.00  0.00     0.196 A 
ATOM      3  N   UNL d   1     -41.297-122.457 -53.490  0.00  0.00    -0.191 N 
ATOM      4  N   UNL d   1     -41.496-123.537 -52.452  0.00  0.00    -0.204 NA
ATOM      5  N   UNL d   1     -41.143-121.459 -52.623  0.00  0.00    -0.122 NA
ATOM      6  N   UNL d   1     -41.163-121.654 -53.411  0.00  0.00    -0.058 NA
ATOM      7  N   UNL d   1     -41.439-123.069 -51.100  0.00  0.00    -0.251 N 
ATOM      8  C   UNL d   1     -41.305-122.304 -51.381  0.00  0.00     0.289 A 
ATOM      9  C   UNL d   1     -41.536-123.694 -51.643  0.00  0.00     0.187 A 
ATOM     10  O   UNL d   1     -41.209-121.679 -50.838  0.00  0.00    -0.265 OA
ENDROOT
BRANCH   7  11
ATOM     11  C   UNL d   1     -41.479-123.230 -50.285  0.00  0.00     0.127 C 
BRANCH  11  12
ATOM     12  C   UNL d   1     -42.170-123.555 -49.952  0.00  0.00     0.213 C 
ATOM     13  O   UNL d   1     -42.783-123.809 -50.445  0.00  0.00    -0.285 OA
BRANCH  12  14
ATOM     14  C   UNL d   1     -42.235-123.621 -49.137  0.00  0.00     0.041 A 
ATOM     15  C   UNL d   1     -41.556-123.727 -48.675  0.00  0.00     0.004 A 
ATOM     16  C   UNL d   1     -41.623-123.791 -47.866  0.00  0.00     0.011 A 
ATOM     17  C   UNL d   1     -42.365-123.751 -47.504  0.00  0.00     0.058 A 
ATOM     18  C   UNL d   1     -43.044-123.646 -47.966  0.00  0.00     0.011 A 
ATOM     19 CL   UNL d   1     -42.433-123.817 -46.676  0.00  0.00    -0.082 Cl
ATOM     20  C   UNL d   1     -42.976-123.581 -48.775  0.00  0.00     0.004 A 
ENDBRANCH  12  14
ENDBRANCH  11  12
ENDBRANCH   7  11
BRANCH   3  21
ATOM     21  C   UNL d   1     -41.356-122.876 -54.212  0.00  0.00     0.104 C 
BRANCH  21  22
ATOM     22  C   UNL d   1     -41.801-122.558 -54.841  0.00  0.00     0.019 A 
ATOM     23  C   UNL d   1     -42.623-122.613 -54.841  0.00  0.00     0.002 A 
ATOM     24  C   UNL d   1     -43.039-122.297 -55.462  0.00  0.00     0.000 A 
ATOM     25  C   UNL d   1     -42.666-121.928 -56.085  0.00  0.00     0.000 A 
ATOM     26  C   UNL d   1     -41.820-121.872 -56.084  0.00  0.00     0.000 A 
ATOM     27  C   UNL d   1     -41.399-122.191 -55.458  0.00  0.00     0.002 A 
ENDBRANCH  21  22
ENDBRANCH   3  21
TORSDOF 5
ENDMDL
MODEL 2
REMARK VINA RESULT:      -6.2      2.147      5.728
REMARK  5 active torsions:
REMARK  status: ('A' for Active; 'I' for Inactive)
REMARK    1  A    between atoms: C_12  and  N_3 
REMARK    2  A    between atoms: C_10  and  N_7 
REMARK    3  A    between atoms: C_11  and  C_10 
REMARK    4  A    between atoms: C_14  and  C_11 
REMARK    5  A    between atoms: C_19  and  C_12 
ROOT
ATOM      1  C   UNL d   1     -41.495-123.135 -50.509  0.00  0.00     0.191 A 
ATOM      2  C   UNL d   1     -41.566-122.345 -50.767  0.00  0.00     0.196 A 
ATOM      3  N   UNL d   1     -41.647-123.144 -49.692  0.00  0.00    -0.191 N 
ATOM      4  N   UNL d   1     -41.306-123.721 -51.047  0.00  0.00    -0.204 NA
ATOM      5  N   UNL d   1     -41.760-121.884 -50.103  0.00  0.00    -0.122 NA
ATOM      6  N   UNL d   1     -41.806-122.377 -49.460  0.00  0.00    -0.058 NA
ATOM      7  N   UNL d   1     -41.254-122.752 -52.101  0.00  0.00    -0.251 N 
ATOM      8  C   UNL d   1     -41.445-122.163 -51.555  0.00  0.00     0.289 A 
ATOM      9  C   UNL d   1     -41.183-123.542 -51.843  0.00  0.00     0.187 A 
ATOM     10  O   UNL d   1     -41.516-121.373 -51.812  0.00  0.00    -0.265 OA
ENDROOT
BRANCH   7  11
ATOM     11  C   UNL d   1     -41.130-122.575 -52.903  0.00  0.00     0.127 C 
BRANCH  11  12
ATOM     12  C   UNL d   1     -41.510-123.018 -53.498  0.00  0.00     0.213 C 
ATOM     13  O   UNL d   1     -41.693-123.813 -53.363  0.00  0.00    -0.285 OA
BRANCH  12  14
ATOM     14  C   UNL d   1     -41.697-122.660 -54.212  0.00  0.00     0.041 A 
ATOM     15  C   UNL d   1     -41.124-122.593 -54.805  0.00  0.00     0.004 A 
ATOM     16  C   UNL d   1     -41.314-122.238 -55.512  0.00  0.00     0.011 A 
ATOM     17  C   UNL d   1     -42.075-121.944 -55.641  0.00  0.00     0.058 A 
ATOM     18  C   UNL d   1     -42.649-122.011 -55.048  0.00  0.00     0.011 A 
ATOM     19 CL   UNL d   1     -42.269-121.580 -56.365  0.00  0.00    -0.082 Cl
ATOM     20  C   UNL d   1     -42.458-122.367 -54.341  0.00  0.00     0.004 A 
ENDBRANCH  12  14
ENDBRANCH  11  12
ENDBRANCH   7  11
BRANCH   3  21
ATOM     21  C   UNL d   1     -41.639-123.817 -49.194  0.00  0.00     0.104 C 
BRANCH  21  22
ATOM     22  C   UNL d   1     -41.806-123.733 -48.382  0.00  0.00     0.019 A 
ATOM     23  C   UNL d   1     -41.200-123.573 -47.845  0.00  0.00     0.002 A 
ATOM     24  C   UNL d   1     -41.382-123.495 -47.058  0.00  0.00     0.000 A 
ATOM     25  C   UNL d   1     -42.146-123.570 -46.784  0.00  0.00     0.000 A 
ATOM     26  C   UNL d   1     -42.768-123.735 -47.337  0.00  0.00     0.000 A 
ATOM     27  C   UNL d   1     -42.586-123.814 -48.132  0.00  0.00     0.002 A 
ENDBRANCH  21  22
ENDBRANCH   3  21
TORSDOF 5
ENDMDL
