MODEL 1
REMARK VINA RESULT:      -8.5      0.000      0.000
REMARK  5 active torsions:
REMARK  status: ('A' for Active; 'I' for Inactive)
REMARK    1  A    between atoms: N_6  and  C_1 
REMARK    2  A    between atoms: C_11  and  C_5 
REMARK       I    between atoms: C_7  and  N_8 
REMARK    3  A    between atoms: C_10  and  C_7 
REMARK    4  A    between atoms: O_27  and  C_14 
REMARK    5  A    between atoms: O_28  and  C_21 
ROOT
ATOM      1  C   UNL d   1      50.723  34.020  53.068  0.00  0.00     0.197 A 
ATOM      2  C   UNL d   1      50.852  34.381  52.326  0.00  0.00     0.191 A 
ATOM      3  O   UNL d   1      49.941  34.177  53.298  0.00  0.00    -0.270 OA
ATOM      4  N   UNL d   1      50.151  34.749  52.119  0.00  0.00    -0.208 NA
ATOM      5  C   UNL d   1      49.615  34.630  52.689  0.00  0.00     0.185 A 
ATOM      6  C   UNL d   1      51.574  34.368  51.874  0.00  0.00     0.124 C 
ATOM      7  N   UNL d   1      52.271  34.366  51.419  0.00  0.00    -0.190 NA
ENDROOT
BRANCH   1   8
ATOM      8  N   UNL d   1      51.418  33.632  53.317  0.00  0.00    -0.280 N 
ATOM      9  C   UNL d   1      51.537  32.831  53.078  0.00  0.00     0.101 A 
ATOM     10  C   UNL d   1      52.232  32.443  53.327  0.00  0.00     0.102 A 
ATOM     11  N   UNL d   1      52.799  32.846  53.807  0.00  0.00    -0.267 N 
ATOM     12  C   UNL d   1      53.494  32.458  54.056  0.00  0.00     0.288 C 
ATOM     13  C   UNL d   1      52.664  33.631  54.031  0.00  0.00     0.102 A 
ATOM     14  O   UNL d   1      53.629  31.673  53.831  0.00  0.00    -0.264 OA
ATOM     15  C   UNL d   1      51.962  34.013  53.776  0.00  0.00     0.101 A 
BRANCH  12  16
ATOM     16  C   UNL d   1      54.058  32.859  54.533  0.00  0.00     0.156 A 
ATOM     17  O   UNL d   1      54.065  33.067  55.333  0.00  0.00    -0.300 OA
ATOM     18  C   UNL d   1      54.761  33.449  55.482  0.00  0.00     0.123 A 
ATOM     19  C   UNL d   1      55.211  33.498  54.798  0.00  0.00     0.029 A 
ATOM     20  C   UNL d   1      54.774  33.130  54.202  0.00  0.00     0.032 A 
ENDBRANCH  12  16
ENDBRANCH   1   8
BRANCH   5  21
ATOM     21  C   UNL d   1      48.934  34.990  52.482  0.00  0.00     0.043 A 
ATOM     22  C   UNL d   1      48.602  35.556  52.951  0.00  0.00     0.030 A 
ATOM     23  C   UNL d   1      47.904  35.929  52.744  0.00  0.00     0.116 A 
ATOM     24  C   UNL d   1      47.531  35.726  52.046  0.00  0.00     0.116 A 
ATOM     25  C   UNL d   1      47.868  35.156  51.577  0.00  0.00     0.026 A 
ATOM     26  C   UNL d   1      48.565  34.783  51.784  0.00  0.00     0.006 A 
BRANCH  23  27
ATOM     27  O   UNL d   1      47.584  36.519  53.260  0.00  0.00    -0.326 OA
ATOM     28  C   UNL d   1      47.915  36.670  53.993  0.00  0.00     0.181 C 
ENDBRANCH  23  27
BRANCH  24  29
ATOM     29  O   UNL d   1      46.826  36.091  51.821  0.00  0.00    -0.326 OA
ATOM     30  C   UNL d   1      46.337  35.743  51.269  0.00  0.00     0.181 C 
ENDBRANCH  24  29
ENDBRANCH   5  21
TORSDOF 5
ENDMDL
MODEL 2
REMARK VINA RESULT:      -6.1      0.967      6.010
REMARK  5 active torsions:
REMARK  status: ('A' for Active; 'I' for Inactive)
REMARK    1  A    between atoms: N_6  and  C_1 
REMARK    2  A    between atoms: C_11  and  C_5 
REMARK       I    between atoms: C_7  and  N_8 
REMARK    3  A    between atoms: C_10  and  C_7 
REMARK    4  A    between atoms: O_27  and  C_14 
REMARK    5  A    between atoms: O_28  and  C_21 
ROOT
ATOM      1  C   UNL d   1      50.707  33.826  53.050  0.00  0.00     0.197 A 
ATOM      2  C   UNL d   1      51.145  33.811  52.339  0.00  0.00     0.191 A 
ATOM      3  O   UNL d   1      51.062  33.297  53.582  0.00  0.00    -0.270 OA
ATOM      4  N   UNL d   1      51.754  33.277  52.450  0.00  0.00    -0.208 NA
ATOM      5  C   UNL d   1      51.707  32.974  53.179  0.00  0.00     0.185 A 
ATOM      6  C   UNL d   1      50.986  34.265  51.635  0.00  0.00     0.124 C 
ATOM      7  N   UNL d   1      50.845  34.701  50.939  0.00  0.00    -0.190 NA
ENDROOT
BRANCH   1   8
ATOM      8  N   UNL d   1      50.071  34.362  52.979  0.00  0.00    -0.280 N 
ATOM      9  C   UNL d   1      50.065  35.045  53.476  0.00  0.00     0.101 A 
ATOM     10  C   UNL d   1      49.430  35.581  53.405  0.00  0.00     0.102 A 
ATOM     11  N   UNL d   1      48.811  35.439  52.847  0.00  0.00    -0.267 N 
ATOM     12  C   UNL d   1      48.176  35.975  52.776  0.00  0.00     0.288 C 
ATOM     13  C   UNL d   1      48.835  34.764  52.368  0.00  0.00     0.102 A 
ATOM     14  O   UNL d   1      48.152  36.650  53.255  0.00  0.00    -0.264 OA
ATOM     15  C   UNL d   1      49.478  34.231  52.447  0.00  0.00     0.101 A 
BRANCH  12  16
ATOM     16  C   UNL d   1      47.561  35.834  52.222  0.00  0.00     0.156 A 
ATOM     17  O   UNL d   1      47.567  35.644  51.416  0.00  0.00    -0.300 OA
ATOM     18  C   UNL d   1      46.799  35.575  51.174  0.00  0.00     0.123 A 
ATOM     19  C   UNL d   1      46.289  35.714  51.801  0.00  0.00     0.029 A 
ATOM     20  C   UNL d   1      46.761  35.877  52.458  0.00  0.00     0.032 A 
ENDBRANCH  12  16
ENDBRANCH   1   8
BRANCH   5  21
ATOM     21  C   UNL d   1      52.303  32.455  53.282  0.00  0.00     0.043 A 
ATOM     22  C   UNL d   1      52.972  32.661  53.683  0.00  0.00     0.030 A 
ATOM     23  C   UNL d   1      53.587  32.133  53.791  0.00  0.00     0.116 A 
ATOM     24  C   UNL d   1      53.526  31.376  53.487  0.00  0.00     0.116 A 
ATOM     25  C   UNL d   1      52.852  31.173  53.084  0.00  0.00     0.026 A 
ATOM     26  C   UNL d   1      52.238  31.701  52.976  0.00  0.00     0.006 A 
BRANCH  23  27
ATOM     27  O   UNL d   1      54.275  32.383  54.217  0.00  0.00    -0.326 OA
ATOM     28  C   UNL d   1      54.254  33.027  54.721  0.00  0.00     0.181 C 
ENDBRANCH  23  27
BRANCH  24  29
ATOM     29  O   UNL d   1      54.136  30.830  53.586  0.00  0.00    -0.326 OA
ATOM     30  C   UNL d   1      54.000  30.033  53.479  0.00  0.00     0.181 C 
ENDBRANCH  24  29
ENDBRANCH   5  21
TORSDOF 5
ENDMDL
MODEL 3
REMARK VINA RESULT:      -6.1      0.859      6.003
REMARK  5 active torsions:
REMARK  status: ('A' for Active; 'I' for Inactive)
REMARK    1  A    between atoms: N_6  and  C_1 
REMARK    2  A    between atoms: C_11  and  C_5 
REMARK       I    between atoms: C_7  and  N_8 
REMARK    3  A    between atoms: C_10  and  C_7 
REMARK    4  A    between atoms: O_27  and  C_14 
REMARK    5  A    between atoms: O_28  and  C_21 
ROOT
ATOM      1  C   UNL d   1      50.809  34.212  52.975  0.00  0.00     0.197 A 
ATOM      2  C   UNL d   1      51.428  34.221  52.415  0.00  0.00     0.191 A 
ATOM      3  O   UNL d   1      51.129  33.998  53.710  0.00  0.00    -0.270 OA
ATOM      4  N   UNL d   1      52.110  34.015  52.817  0.00  0.00    -0.208 NA
ATOM      5  C   UNL d   1      51.937  33.883  53.578  0.00  0.00     0.185 A 
ATOM      6  C   UNL d   1      51.361  34.409  51.587  0.00  0.00     0.124 C 
ATOM      7  N   UNL d   1      51.314  34.590  50.775  0.00  0.00    -0.190 NA
ENDROOT
BRANCH   1   8
ATOM      8  N   UNL d   1      50.090  34.418  52.604  0.00  0.00    -0.280 N 
ATOM      9  C   UNL d   1      49.866  34.000  51.905  0.00  0.00     0.101 A 
ATOM     10  C   UNL d   1      49.148  34.207  51.533  0.00  0.00     0.102 A 
ATOM     11  N   UNL d   1      48.662  34.819  51.854  0.00  0.00    -0.267 N 
ATOM     12  C   UNL d   1      47.943  35.025  51.483  0.00  0.00     0.288 C 
ATOM     13  C   UNL d   1      48.898  35.216  52.540  0.00  0.00     0.102 A 
ATOM     14  O   UNL d   1      47.707  34.627  50.797  0.00  0.00    -0.264 OA
ATOM     15  C   UNL d   1      49.622  35.002  52.906  0.00  0.00     0.101 A 
BRANCH  12  16
ATOM     16  C   UNL d   1      47.460  35.633  51.801  0.00  0.00     0.156 A 
ATOM     17  O   UNL d   1      47.636  36.352  52.171  0.00  0.00    -0.300 OA
ATOM     18  C   UNL d   1      46.937  36.709  52.361  0.00  0.00     0.123 A 
ATOM     19  C   UNL d   1      46.305  36.243  52.126  0.00  0.00     0.029 A 
ATOM     20  C   UNL d   1      46.628  35.569  51.775  0.00  0.00     0.032 A 
ENDBRANCH  12  16
ENDBRANCH   1   8
BRANCH   5  21
ATOM     21  C   UNL d   1      52.605  33.683  53.964  0.00  0.00     0.043 A 
ATOM     22  C   UNL d   1      52.900  32.933  53.925  0.00  0.00     0.030 A 
ATOM     23  C   UNL d   1      53.584  32.720  54.319  0.00  0.00     0.116 A 
ATOM     24  C   UNL d   1      53.983  33.279  54.763  0.00  0.00     0.116 A 
ATOM     25  C   UNL d   1      53.683  34.032  54.799  0.00  0.00     0.026 A 
ATOM     26  C   UNL d   1      52.999  34.244  54.406  0.00  0.00     0.006 A 
BRANCH  23  27
ATOM     27  O   UNL d   1      53.866  31.924  54.256  0.00  0.00    -0.326 OA
ATOM     28  C   UNL d   1      53.584  31.416  53.680  0.00  0.00     0.181 C 
ENDBRANCH  23  27
BRANCH  24  29
ATOM     29  O   UNL d   1      54.675  33.084  55.167  0.00  0.00    -0.326 OA
ATOM     30  C   UNL d   1      55.183  33.668  55.425  0.00  0.00     0.181 C 
ENDBRANCH  24  29
ENDBRANCH   5  21
TORSDOF 5
ENDMDL
MODEL 4
REMARK VINA RESULT:      -5.6      1.552      6.201
REMARK  5 active torsions:
REMARK  status: ('A' for Active; 'I' for Inactive)
REMARK    1  A    between atoms: N_6  and  C_1 
REMARK    2  A    between atoms: C_11  and  C_5 
REMARK       I    between atoms: C_7  and  N_8 
REMARK    3  A    between atoms: C_10  and  C_7 
REMARK    4  A    between atoms: O_27  and  C_14 
REMARK    5  A    between atoms: O_28  and  C_21 
ROOT
ATOM      1  C   UNL d   1      49.280  34.996  52.639  0.00  0.00     0.197 A 
ATOM      2  C   UNL d   1      49.462  34.493  51.997  0.00  0.00     0.191 A 
ATOM      3  O   UNL d   1      49.930  34.999  53.156  0.00  0.00    -0.270 OA
ATOM      4  N   UNL d   1      50.214  34.202  52.134  0.00  0.00    -0.208 NA
ATOM      5  C   UNL d   1      50.491  34.498  52.814  0.00  0.00     0.185 A 
ATOM      6  C   UNL d   1      48.961  34.319  51.331  0.00  0.00     0.124 C 
ATOM      7  N   UNL d   1      48.484  34.138  50.673  0.00  0.00    -0.190 NA
ENDROOT
BRANCH   1   8
ATOM      8  N   UNL d   1      48.516  35.316  52.539  0.00  0.00    -0.280 N 
ATOM      9  C   UNL d   1      48.354  35.750  51.833  0.00  0.00     0.101 A 
ATOM     10  C   UNL d   1      47.590  36.071  51.732  0.00  0.00     0.102 A 
ATOM     11  N   UNL d   1      46.999  35.960  52.326  0.00  0.00    -0.267 N 
ATOM     12  C   UNL d   1      46.235  36.280  52.225  0.00  0.00     0.288 C 
ATOM     13  C   UNL d   1      47.177  35.532  53.011  0.00  0.00     0.102 A 
ATOM     14  O   UNL d   1      46.056  36.709  51.540  0.00  0.00    -0.264 OA
ATOM     15  C   UNL d   1      47.948  35.214  53.103  0.00  0.00     0.101 A 
BRANCH  12  16
ATOM     16  C   UNL d   1      45.647  36.171  52.814  0.00  0.00     0.156 A 
ATOM     17  O   UNL d   1      45.576  36.446  53.592  0.00  0.00    -0.300 OA
ATOM     18  C   UNL d   1      44.885  36.157  53.893  0.00  0.00     0.123 A 
ATOM     19  C   UNL d   1      44.499  35.700  53.333  0.00  0.00     0.029 A 
ATOM     20  C   UNL d   1      44.972  35.706  52.657  0.00  0.00     0.032 A 
ENDBRANCH  12  16
ENDBRANCH   1   8
BRANCH   5  21
ATOM     21  C   UNL d   1      51.223  34.210  52.941  0.00  0.00     0.043 A 
ATOM     22  C   UNL d   1      51.816  34.685  53.215  0.00  0.00     0.030 A 
ATOM     23  C   UNL d   1      52.570  34.397  53.347  0.00  0.00     0.116 A 
ATOM     24  C   UNL d   1      52.730  33.608  53.201  0.00  0.00     0.116 A 
ATOM     25  C   UNL d   1      52.132  33.135  52.926  0.00  0.00     0.026 A 
ATOM     26  C   UNL d   1      51.379  33.423  52.794  0.00  0.00     0.006 A 
BRANCH  23  27
ATOM     27  O   UNL d   1      53.168  34.923  53.634  0.00  0.00    -0.326 OA
ATOM     28  C   UNL d   1      53.008  35.471  54.221  0.00  0.00     0.181 C 
ENDBRANCH  23  27
BRANCH  24  29
ATOM     29  O   UNL d   1      53.484  33.299  53.329  0.00  0.00    -0.326 OA
ATOM     30  C   UNL d   1      53.621  32.497  53.261  0.00  0.00     0.181 C 
ENDBRANCH  24  29
ENDBRANCH   5  21
TORSDOF 5
ENDMDL
