MODEL 1
REMARK VINA RESULT:      17.2      0.000      0.000
REMARK  1 active torsions:
REMARK  status: ('A' for Active; 'I' for Inactive)
REMARK    1  A    between atoms: C_5  and  N_1 
ROOT
ATOM      1  N   UNL d   1      14.052  12.315  -2.247  0.00  0.00    -0.226 N 
ATOM      2  C   UNL d   1      14.839  12.496  -2.088  0.00  0.00     0.359 A 
ATOM      3  C   UNL d   1      13.582  11.962  -1.662  0.00  0.00     0.273 A 
ATOM      4  N   UNL d   1      15.163  12.328  -1.346  0.00  0.00    -0.153 NA
ATOM      5  C   UNL d   1      14.693  11.976  -0.761  0.00  0.00     0.288 A 
ATOM      6  C   UNL d   1      13.901  11.793  -0.920  0.00  0.00     0.124 A 
ATOM      7  O   UNL d   1      15.310  12.846  -2.662  0.00  0.00    -0.244 OA
ATOM      8  O   UNL d   1      12.796  11.779  -1.815  0.00  0.00    -0.266 OA
ATOM      9  O   UNL d   1      15.009  11.806  -0.022  0.00  0.00    -0.265 OA
ENDROOT
BRANCH   1  10
ATOM     10  C   UNL d   1      13.734  12.483  -2.983  0.00  0.00     0.072 A 
ATOM     11  C   UNL d   1      13.622  13.280  -3.212  0.00  0.00     0.029 A 
ATOM     12  C   UNL d   1      13.304  13.449  -3.947  0.00  0.00     0.059 A 
ATOM     13 CL   UNL d   1      13.195  14.238  -4.167  0.00  0.00    -0.082 Cl
ATOM     14  C   UNL d   1      13.095  12.844  -4.461  0.00  0.00     0.011 A 
ATOM     15  C   UNL d   1      13.208  12.056  -4.231  0.00  0.00     0.002 A 
ATOM     16  C   UNL d   1      12.775  13.012  -5.203  0.00  0.00     0.001 C 
ATOM     17  C   UNL d   1      13.530  11.879  -3.486  0.00  0.00     0.018 A 
ENDBRANCH   1  10
TORSDOF 1
ENDMDL
MODEL 2
REMARK VINA RESULT:      19.6      0.782      1.532
REMARK  1 active torsions:
REMARK  status: ('A' for Active; 'I' for Inactive)
REMARK    1  A    between atoms: C_5  and  N_1 
ROOT
ATOM      1  N   UNL d   1      13.971  12.529  -2.240  0.00  0.00    -0.226 N 
ATOM      2  C   UNL d   1      13.521  12.045  -1.749  0.00  0.00     0.359 A 
ATOM      3  C   UNL d   1      14.716  12.793  -1.991  0.00  0.00     0.273 A 
ATOM      4  N   UNL d   1      13.810  11.821  -1.008  0.00  0.00    -0.153 NA
ATOM      5  C   UNL d   1      14.555  12.086  -0.759  0.00  0.00     0.288 A 
ATOM      6  C   UNL d   1      15.009  12.573  -1.251  0.00  0.00     0.124 A 
ATOM      7  O   UNL d   1      12.782  11.779  -1.989  0.00  0.00    -0.244 OA
ATOM      8  O   UNL d   1      15.169  13.277  -2.477  0.00  0.00    -0.266 OA
ATOM      9  O   UNL d   1      14.848  11.867  -0.023  0.00  0.00    -0.265 OA
ENDROOT
BRANCH   1  10
ATOM     10  C   UNL d   1      13.681  12.749  -2.974  0.00  0.00     0.072 A 
ATOM     11  C   UNL d   1      13.552  12.164  -3.559  0.00  0.00     0.029 A 
ATOM     12  C   UNL d   1      13.262  12.383  -4.293  0.00  0.00     0.059 A 
ATOM     13 CL   UNL d   1      13.136  11.801  -4.865  0.00  0.00    -0.082 Cl
ATOM     14  C   UNL d   1      13.099  13.170  -4.460  0.00  0.00     0.011 A 
ATOM     15  C   UNL d   1      13.229  13.746  -3.879  0.00  0.00     0.002 A 
ATOM     16  C   UNL d   1      12.807  13.392  -5.199  0.00  0.00     0.001 C 
ATOM     17  C   UNL d   1      13.522  13.529  -3.132  0.00  0.00     0.018 A 
ENDBRANCH   1  10
TORSDOF 1
ENDMDL
