MODEL 1
REMARK VINA RESULT:      14.2      0.000      0.000
REMARK  1 active torsions:
REMARK  status: ('A' for Active; 'I' for Inactive)
REMARK    1  A    between atoms: C_7  and  C_2 
ROOT
ATOM      1  C   UNL d   1      46.479 -19.030  43.537  0.00  0.00     0.074 A 
ATOM      2  C   UNL d   1      46.428 -18.545  42.873  0.00  0.00     0.088 A 
ATOM      3  C   UNL d   1      46.420 -18.703  44.291  0.00  0.00     0.088 A 
ATOM      4  C   UNL d   1      46.260 -17.405  43.716  0.00  0.00     0.221 A 
ATOM      5  N   UNL d   1      46.311 -17.891  44.382  0.00  0.00    -0.217 NA
ATOM      6  N   UNL d   1      46.319 -17.732  42.962  0.00  0.00    -0.217 NA
ATOM      7  C   UNL d   1      46.587 -19.835  43.444  0.00  0.00     0.199 A 
ATOM      8  S   UNL d   1      46.150 -16.592  43.806  0.00  0.00    -0.037 SA
ATOM      9  O   UNL d   1      46.646 -20.162  42.689  0.00  0.00    -0.286 OA
ATOM     10  C   UNL d   1      46.470 -19.181  44.953  0.00  0.00     0.019 A 
ATOM     11  C   UNL d   1      46.639 -20.329  44.112  0.00  0.00     0.042 A 
ATOM     12  C   UNL d   1      46.580 -20.002  44.866  0.00  0.00     0.005 A 
ENDROOT
BRANCH   2  13
ATOM     13  C   UNL d   1      46.487 -18.872  42.118  0.00  0.00     0.021 A 
ATOM     14  C   UNL d   1      46.522 -18.379  41.457  0.00  0.00     0.043 A 
ATOM     15  C   UNL d   1      46.580 -18.705  40.706  0.00  0.00     0.196 A 
ATOM     16  O   UNL d   1      46.616 -18.212  40.044  0.00  0.00    -0.287 OA
ATOM     17  C   UNL d   1      46.604 -19.525  40.612  0.00  0.00     0.042 A 
ATOM     18  C   UNL d   1      46.569 -20.016  41.274  0.00  0.00     0.003 A 
ATOM     19  C   UNL d   1      46.510 -19.691  42.024  0.00  0.00     0.002 A 
ENDBRANCH   2  13
TORSDOF 1
ENDMDL
