MODEL 1
REMARK VINA RESULT:       8.3      0.000      0.000
REMARK  5 active torsions:
REMARK  status: ('A' for Active; 'I' for Inactive)
REMARK       I    between atoms: C_2  and  N_1 
REMARK    1  A    between atoms: C_3  and  N_1 
REMARK    2  A    between atoms: C_4  and  C_2 
REMARK    3  A    between atoms: N_6  and  C_3 
REMARK    4  A    between atoms: C_11  and  N_6 
REMARK    5  A    between atoms: C_12  and  C_11 
ROOT
ATOM      1  N   UNL d   1      45.974 -15.938  44.227  0.00  0.00    -0.179 NA
ATOM      2  C   UNL d   1      45.423 -15.427  44.534  0.00  0.00     0.281 C 
ATOM      3  O   UNL d   1      44.774 -15.734  44.951  0.00  0.00    -0.265 OA
ENDROOT
BRANCH   1   4
ATOM      4  C   UNL d   1      45.912 -16.752  44.314  0.00  0.00     0.224 C 
ATOM      5  S   UNL d   1      45.493 -17.074  44.951  0.00  0.00    -0.037 SA
BRANCH   4   6
ATOM      6  N   UNL d   1      46.267 -17.239  43.767  0.00  0.00    -0.214 NA
BRANCH   6   7
ATOM      7  C   UNL d   1      46.323 -18.051  43.914  0.00  0.00     0.126 C 
BRANCH   7   8
ATOM      8  C   UNL d   1      46.411 -18.587  43.278  0.00  0.00     0.119 A 
ATOM      9  O   UNL d   1      46.348 -18.391  42.479  0.00  0.00    -0.304 OA
ATOM     10  C   UNL d   1      46.472 -19.076  42.035  0.00  0.00     0.123 A 
ATOM     11  C   UNL d   1      46.612 -19.689  42.571  0.00  0.00     0.029 A 
ATOM     12  C   UNL d   1      46.573 -19.383  43.328  0.00  0.00     0.028 A 
ENDBRANCH   7   8
ENDBRANCH   6   7
ENDBRANCH   4   6
ENDBRANCH   1   4
BRANCH   2  13
ATOM     13  C   UNL d   1      45.510 -14.605  44.431  0.00  0.00     0.058 A 
ATOM     14  C   UNL d   1      45.146 -14.257  43.790  0.00  0.00     0.005 A 
ATOM     15  C   UNL d   1      45.223 -13.442  43.674  0.00  0.00     0.000 A 
ATOM     16  C   UNL d   1      45.660 -12.980  44.195  0.00  0.00     0.000 A 
ATOM     17  C   UNL d   1      46.025 -13.353  44.844  0.00  0.00     0.000 A 
ATOM     18  C   UNL d   1      45.727 -12.158  44.061  0.00  0.00     0.000 C 
ATOM     19  C   UNL d   1      45.946 -14.157  44.954  0.00  0.00     0.005 A 
ENDBRANCH   2  13
TORSDOF 5
ENDMDL
MODEL 2
REMARK VINA RESULT:       8.6      0.768      4.927
REMARK  5 active torsions:
REMARK  status: ('A' for Active; 'I' for Inactive)
REMARK       I    between atoms: C_2  and  N_1 
REMARK    1  A    between atoms: C_3  and  N_1 
REMARK    2  A    between atoms: C_4  and  C_2 
REMARK    3  A    between atoms: N_6  and  C_3 
REMARK    4  A    between atoms: C_11  and  N_6 
REMARK    5  A    between atoms: C_12  and  C_11 
ROOT
ATOM      1  N   UNL d   1      45.882 -17.337  43.595  0.00  0.00    -0.179 NA
ATOM      2  C   UNL d   1      46.216 -18.065  43.731  0.00  0.00     0.281 C 
ATOM      3  O   UNL d   1      46.448 -18.266  44.501  0.00  0.00    -0.265 OA
ENDROOT
BRANCH   1   4
ATOM      4  C   UNL d   1      45.766 -16.790  44.196  0.00  0.00     0.224 C 
ATOM      5  S   UNL d   1      45.554 -17.042  44.955  0.00  0.00    -0.037 SA
BRANCH   4   6
ATOM      6  N   UNL d   1      45.862 -15.998  44.038  0.00  0.00    -0.214 NA
BRANCH   6   7
ATOM      7  C   UNL d   1      45.697 -15.438  44.624  0.00  0.00     0.126 C 
BRANCH   7   8
ATOM      8  C   UNL d   1      45.602 -14.633  44.419  0.00  0.00     0.119 A 
ATOM      9  O   UNL d   1      44.913 -14.298  44.112  0.00  0.00    -0.304 OA
ATOM     10  C   UNL d   1      45.050 -13.494  43.987  0.00  0.00     0.123 A 
ATOM     11  C   UNL d   1      45.828 -13.343  44.220  0.00  0.00     0.029 A 
ATOM     12  C   UNL d   1      46.159 -14.043  44.483  0.00  0.00     0.028 A 
ENDBRANCH   7   8
ENDBRANCH   6   7
ENDBRANCH   4   6
ENDBRANCH   1   4
BRANCH   2  13
ATOM     13  C   UNL d   1      46.322 -18.601  43.101  0.00  0.00     0.058 A 
ATOM     14  C   UNL d   1      46.426 -19.389  43.280  0.00  0.00     0.005 A 
ATOM     15  C   UNL d   1      46.533 -19.933  42.667  0.00  0.00     0.000 A 
ATOM     16  C   UNL d   1      46.536 -19.690  41.882  0.00  0.00     0.000 A 
ATOM     17  C   UNL d   1      46.428 -18.881  41.718  0.00  0.00     0.000 A 
ATOM     18  C   UNL d   1      46.645 -20.255  41.276  0.00  0.00     0.000 C 
ATOM     19  C   UNL d   1      46.323 -18.349  42.326  0.00  0.00     0.005 A 
ENDBRANCH   2  13
TORSDOF 5
ENDMDL
