MODEL 1
REMARK VINA RESULT:      -4.6      0.000      0.000
REMARK  6 active torsions:
REMARK  status: ('A' for Active; 'I' for Inactive)
REMARK    1  A    between atoms: C_6  and  C_1 
REMARK    2  A    between atoms: C_7  and  C_3 
REMARK    3  A    between atoms: O_11  and  C_6 
REMARK    4  A    between atoms: O_12  and  C_7 
REMARK    5  A    between atoms: C_14  and  O_11 
REMARK    6  A    between atoms: C_15  and  O_12 
ROOT
ATOM      1  C   UNL d   1      56.447  -0.351  32.621  0.00  0.00     0.083 A 
ATOM      2  C   UNL d   1      56.954  -0.073  32.014  0.00  0.00     0.030 A 
ATOM      3  C   UNL d   1      57.098  -0.717  31.515  0.00  0.00     0.145 A 
ATOM      4  N   UNL d   1      56.701  -1.371  31.791  0.00  0.00    -0.240 NA
ATOM      5  C   UNL d   1      56.295  -1.141  32.481  0.00  0.00     0.087 A 
ATOM      6  C   UNL d   1      57.238   0.681  31.946  0.00  0.00     0.002 C 
ATOM      7  C   UNL d   1      55.816  -1.618  32.958  0.00  0.00     0.021 C 
ENDROOT
BRANCH   1   8
ATOM      8  C   UNL d   1      56.145   0.083  33.253  0.00  0.00     0.302 C 
ATOM      9  O   UNL d   1      56.634   0.337  33.831  0.00  0.00    -0.259 OA
BRANCH   8  10
ATOM     10  O   UNL d   1      55.321   0.249  33.275  0.00  0.00    -0.271 OA
BRANCH  10  11
ATOM     11  C   UNL d   1      54.982   0.583  33.917  0.00  0.00     0.126 C 
ATOM     12  C   UNL d   1      54.163   0.681  33.965  0.00  0.00     0.029 C 
ENDBRANCH  10  11
ENDBRANCH   8  10
ENDBRANCH   1   8
BRANCH   3  13
ATOM     13  C   UNL d   1      57.579  -0.668  30.842  0.00  0.00     0.318 C 
ATOM     14  O   UNL d   1      57.852   0.032  30.573  0.00  0.00    -0.257 OA
BRANCH  13  15
ATOM     15  O   UNL d   1      57.777  -1.350  30.447  0.00  0.00    -0.270 OA
BRANCH  15  16
ATOM     16  C   UNL d   1      58.361  -1.353  29.873  0.00  0.00     0.126 C 
ATOM     17  C   UNL d   1      58.447  -1.983  29.367  0.00  0.00     0.029 C 
ENDBRANCH  15  16
ENDBRANCH  13  15
ENDBRANCH   3  13
TORSDOF 6
ENDMDL
MODEL 2
REMARK VINA RESULT:      -3.9      1.537      4.211
REMARK  6 active torsions:
REMARK  status: ('A' for Active; 'I' for Inactive)
REMARK    1  A    between atoms: C_6  and  C_1 
REMARK    2  A    between atoms: C_7  and  C_3 
REMARK    3  A    between atoms: O_11  and  C_6 
REMARK    4  A    between atoms: O_12  and  C_7 
REMARK    5  A    between atoms: C_14  and  O_11 
REMARK    6  A    between atoms: C_15  and  O_12 
ROOT
ATOM      1  C   UNL d   1      58.409  -0.552  29.848  0.00  0.00     0.083 A 
ATOM      2  C   UNL d   1      57.973  -0.119  30.419  0.00  0.00     0.030 A 
ATOM      3  C   UNL d   1      57.525  -0.672  30.841  0.00  0.00     0.145 A 
ATOM      4  N   UNL d   1      57.670  -1.419  30.553  0.00  0.00    -0.240 NA
ATOM      5  C   UNL d   1      58.221  -1.343  29.933  0.00  0.00     0.087 A 
ATOM      6  C   UNL d   1      57.997   0.682  30.522  0.00  0.00     0.002 C 
ATOM      7  C   UNL d   1      58.537  -1.951  29.471  0.00  0.00     0.021 C 
ENDROOT
BRANCH   1   8
ATOM      8  C   UNL d   1      58.936  -0.250  29.293  0.00  0.00     0.302 C 
ATOM      9  O   UNL d   1      58.680  -0.063  28.559  0.00  0.00    -0.259 OA
BRANCH   8  10
ATOM     10  O   UNL d   1      59.741  -0.143  29.513  0.00  0.00    -0.271 OA
BRANCH  10  11
ATOM     11  C   UNL d   1      60.264   0.202  29.017  0.00  0.00     0.126 C 
ATOM     12  C   UNL d   1      61.068   0.245  29.207  0.00  0.00     0.029 C 
ENDBRANCH  10  11
ENDBRANCH   8  10
ENDBRANCH   1   8
BRANCH   3  13
ATOM     13  C   UNL d   1      57.015  -0.463  31.460  0.00  0.00     0.318 C 
ATOM     14  O   UNL d   1      56.863   0.300  31.635  0.00  0.00    -0.257 OA
BRANCH  13  15
ATOM     15  O   UNL d   1      56.663  -1.050  31.897  0.00  0.00    -0.270 OA
BRANCH  15  16
ATOM     16  C   UNL d   1      56.224  -0.874  32.567  0.00  0.00     0.126 C 
ATOM     17  C   UNL d   1      55.875  -1.463  33.004  0.00  0.00     0.029 C 
ENDBRANCH  15  16
ENDBRANCH  13  15
ENDBRANCH   3  13
TORSDOF 6
ENDMDL
MODEL 3
REMARK VINA RESULT:      -3.2      0.807      3.933
REMARK  6 active torsions:
REMARK  status: ('A' for Active; 'I' for Inactive)
REMARK    1  A    between atoms: C_6  and  C_1 
REMARK    2  A    between atoms: C_7  and  C_3 
REMARK    3  A    between atoms: O_11  and  C_6 
REMARK    4  A    between atoms: O_12  and  C_7 
REMARK    5  A    between atoms: C_14  and  O_11 
REMARK    6  A    between atoms: C_15  and  O_12 
ROOT
ATOM      1  C   UNL d   1      57.431  -0.324  31.396  0.00  0.00     0.083 A 
ATOM      2  C   UNL d   1      56.808  -0.599  31.886  0.00  0.00     0.030 A 
ATOM      3  C   UNL d   1      56.846  -0.157  32.584  0.00  0.00     0.145 A 
ATOM      4  N   UNL d   1      57.463   0.372  32.540  0.00  0.00    -0.240 NA
ATOM      5  C   UNL d   1      57.826   0.266  31.798  0.00  0.00     0.087 A 
ATOM      6  C   UNL d   1      56.281  -1.182  31.696  0.00  0.00     0.002 C 
ATOM      7  C   UNL d   1      58.478   0.680  31.501  0.00  0.00     0.021 C 
ENDROOT
BRANCH   1   8
ATOM      8  C   UNL d   1      57.622  -0.591  30.641  0.00  0.00     0.302 C 
ATOM      9  O   UNL d   1      57.379  -0.182  29.999  0.00  0.00    -0.259 OA
BRANCH   8  10
ATOM     10  O   UNL d   1      58.075  -1.295  30.562  0.00  0.00    -0.271 OA
BRANCH  10  11
ATOM     11  C   UNL d   1      58.275  -1.582  29.843  0.00  0.00     0.126 C 
ATOM     12  C   UNL d   1      58.856  -2.164  29.762  0.00  0.00     0.029 C 
ENDBRANCH  10  11
ENDBRANCH   8  10
ENDBRANCH   1   8
BRANCH   3  13
ATOM     13  C   UNL d   1      56.320  -0.263  33.215  0.00  0.00     0.318 C 
ATOM     14  O   UNL d   1      56.409  -0.859  33.738  0.00  0.00    -0.257 OA
BRANCH  13  15
ATOM     15  O   UNL d   1      55.698   0.253  33.303  0.00  0.00    -0.270 OA
BRANCH  15  16
ATOM     16  C   UNL d   1      55.255   0.270  33.992  0.00  0.00     0.126 C 
ATOM     17  C   UNL d   1      54.556   0.682  34.029  0.00  0.00     0.029 C 
ENDBRANCH  15  16
ENDBRANCH  13  15
ENDBRANCH   3  13
TORSDOF 6
ENDMDL
MODEL 4
REMARK VINA RESULT:      -3.1      2.163      4.976
REMARK  6 active torsions:
REMARK  status: ('A' for Active; 'I' for Inactive)
REMARK    1  A    between atoms: C_6  and  C_1 
REMARK    2  A    between atoms: C_7  and  C_3 
REMARK    3  A    between atoms: O_11  and  C_6 
REMARK    4  A    between atoms: O_12  and  C_7 
REMARK    5  A    between atoms: C_14  and  O_11 
REMARK    6  A    between atoms: C_15  and  O_12 
ROOT
ATOM      1  C   UNL d   1      59.820  -0.280  29.620  0.00  0.00     0.083 A 
ATOM      2  C   UNL d   1      58.989  -0.364  29.696  0.00  0.00     0.030 A 
ATOM      3  C   UNL d   1      58.737   0.236  30.206  0.00  0.00     0.145 A 
ATOM      4  N   UNL d   1      59.377   0.680  30.443  0.00  0.00    -0.240 NA
ATOM      5  C   UNL d   1      60.052   0.356  30.077  0.00  0.00     0.087 A 
ATOM      6  C   UNL d   1      58.538  -0.928  29.333  0.00  0.00     0.002 C 
ATOM      7  C   UNL d   1      60.832   0.621  30.151  0.00  0.00     0.021 C 
ENDROOT
BRANCH   1   8
ATOM      8  C   UNL d   1      60.328  -0.748  29.171  0.00  0.00     0.302 C 
ATOM      9  O   UNL d   1      60.582  -0.489  28.459  0.00  0.00    -0.259 OA
BRANCH   8  10
ATOM     10  O   UNL d   1      60.569  -1.494  29.475  0.00  0.00    -0.271 OA
BRANCH  10  11
ATOM     11  C   UNL d   1      60.843  -2.069  28.992  0.00  0.00     0.126 C 
ATOM     12  C   UNL d   1      61.132  -2.781  29.298  0.00  0.00     0.029 C 
ENDBRANCH  10  11
ENDBRANCH   8  10
ENDBRANCH   1   8
BRANCH   3  13
ATOM     13  C   UNL d   1      57.945   0.342  30.423  0.00  0.00     0.318 C 
ATOM     14  O   UNL d   1      57.409   0.640  29.912  0.00  0.00    -0.257 OA
BRANCH  13  15
ATOM     15  O   UNL d   1      57.709   0.138  31.173  0.00  0.00    -0.270 OA
BRANCH  15  16
ATOM     16  C   UNL d   1      56.992   0.394  31.476  0.00  0.00     0.126 C 
ATOM     17  C   UNL d   1      56.741   0.157  32.211  0.00  0.00     0.029 C 
ENDBRANCH  15  16
ENDBRANCH  13  15
ENDBRANCH   3  13
TORSDOF 6
ENDMDL
MODEL 5
REMARK VINA RESULT:      -2.9      2.315      3.496
REMARK  6 active torsions:
REMARK  status: ('A' for Active; 'I' for Inactive)
REMARK    1  A    between atoms: C_6  and  C_1 
REMARK    2  A    between atoms: C_7  and  C_3 
REMARK    3  A    between atoms: O_11  and  C_6 
REMARK    4  A    between atoms: O_12  and  C_7 
REMARK    5  A    between atoms: C_14  and  O_11 
REMARK    6  A    between atoms: C_15  and  O_12 
ROOT
ATOM      1  C   UNL d   1      58.450  -0.346  29.917  0.00  0.00     0.083 A 
ATOM      2  C   UNL d   1      58.406  -1.184  29.884  0.00  0.00     0.030 A 
ATOM      3  C   UNL d   1      58.999  -1.430  29.363  0.00  0.00     0.145 A 
ATOM      4  N   UNL d   1      59.401  -0.782  29.080  0.00  0.00    -0.240 NA
ATOM      5  C   UNL d   1      59.057  -0.107  29.426  0.00  0.00     0.087 A 
ATOM      6  C   UNL d   1      57.878  -1.644  30.289  0.00  0.00     0.002 C 
ATOM      7  C   UNL d   1      59.279   0.681  29.306  0.00  0.00     0.021 C 
ENDROOT
BRANCH   1   8
ATOM      8  C   UNL d   1      57.974   0.158  30.360  0.00  0.00     0.302 C 
ATOM      9  O   UNL d   1      57.382   0.561  30.006  0.00  0.00    -0.259 OA
BRANCH   8  10
ATOM     10  O   UNL d   1      58.124   0.240  31.184  0.00  0.00    -0.271 OA
BRANCH  10  11
ATOM     11  C   UNL d   1      57.647   0.679  31.651  0.00  0.00     0.126 C 
ATOM     12  C   UNL d   1      57.739   0.682  32.472  0.00  0.00     0.029 C 
ENDBRANCH  10  11
ENDBRANCH   8  10
ENDBRANCH   1   8
BRANCH   3  13
ATOM     13  C   UNL d   1      59.138  -2.226  29.180  0.00  0.00     0.318 C 
ATOM     14  O   UNL d   1      58.540  -2.721  28.993  0.00  0.00    -0.257 OA
BRANCH  13  15
ATOM     15  O   UNL d   1      59.900  -2.508  29.191  0.00  0.00    -0.270 OA
BRANCH  15  16
ATOM     16  C   UNL d   1      60.059  -3.303  29.070  0.00  0.00     0.126 C 
ATOM     17  C   UNL d   1      60.824  -3.575  29.042  0.00  0.00     0.029 C 
ENDBRANCH  15  16
ENDBRANCH  13  15
ENDBRANCH   3  13
TORSDOF 6
ENDMDL
MODEL 6
REMARK VINA RESULT:      -2.7      1.578      2.085
REMARK  6 active torsions:
REMARK  status: ('A' for Active; 'I' for Inactive)
REMARK    1  A    between atoms: C_6  and  C_1 
REMARK    2  A    between atoms: C_7  and  C_3 
REMARK    3  A    between atoms: O_11  and  C_6 
REMARK    4  A    between atoms: O_12  and  C_7 
REMARK    5  A    between atoms: C_14  and  O_11 
REMARK    6  A    between atoms: C_15  and  O_12 
ROOT
ATOM      1  C   UNL d   1      57.365   0.152  31.995  0.00  0.00     0.083 A 
ATOM      2  C   UNL d   1      57.518   0.064  31.174  0.00  0.00     0.030 A 
ATOM      3  C   UNL d   1      58.276   0.369  31.043  0.00  0.00     0.145 A 
ATOM      4  N   UNL d   1      58.589   0.637  31.744  0.00  0.00    -0.240 NA
ATOM      5  C   UNL d   1      58.020   0.501  32.337  0.00  0.00     0.087 A 
ATOM      6  C   UNL d   1      57.012  -0.259  30.633  0.00  0.00     0.002 C 
ATOM      7  C   UNL d   1      58.087   0.682  33.141  0.00  0.00     0.021 C 
ENDROOT
BRANCH   1   8
ATOM      8  C   UNL d   1      56.683  -0.069  32.399  0.00  0.00     0.302 C 
ATOM      9  O   UNL d   1      56.145   0.485  32.606  0.00  0.00    -0.259 OA
BRANCH   8  10
ATOM     10  O   UNL d   1      56.566  -0.881  32.585  0.00  0.00    -0.271 OA
BRANCH  10  11
ATOM     11  C   UNL d   1      55.874  -1.141  32.890  0.00  0.00     0.126 C 
ATOM     12  C   UNL d   1      55.825  -1.872  33.273  0.00  0.00     0.029 C 
ENDBRANCH  10  11
ENDBRANCH   8  10
ENDBRANCH   1   8
BRANCH   3  13
ATOM     13  C   UNL d   1      58.633   0.383  30.296  0.00  0.00     0.318 C 
ATOM     14  O   UNL d   1      58.256   0.680  29.658  0.00  0.00    -0.257 OA
BRANCH  13  15
ATOM     15  O   UNL d   1      59.385   0.088  30.211  0.00  0.00    -0.270 OA
BRANCH  15  16
ATOM     16  C   UNL d   1      59.850   0.289  29.566  0.00  0.00     0.126 C 
ATOM     17  C   UNL d   1      60.529  -0.122  29.397  0.00  0.00     0.029 C 
ENDBRANCH  15  16
ENDBRANCH  13  15
ENDBRANCH   3  13
TORSDOF 6
ENDMDL
MODEL 7
REMARK VINA RESULT:      -2.5      1.246      3.981
REMARK  6 active torsions:
REMARK  status: ('A' for Active; 'I' for Inactive)
REMARK    1  A    between atoms: C_6  and  C_1 
REMARK    2  A    between atoms: C_7  and  C_3 
REMARK    3  A    between atoms: O_11  and  C_6 
REMARK    4  A    between atoms: O_12  and  C_7 
REMARK    5  A    between atoms: C_14  and  O_11 
REMARK    6  A    between atoms: C_15  and  O_12 
ROOT
ATOM      1  C   UNL d   1      56.974   0.045  32.227  0.00  0.00     0.083 A 
ATOM      2  C   UNL d   1      56.209   0.060  32.571  0.00  0.00     0.030 A 
ATOM      3  C   UNL d   1      56.283   0.456  33.293  0.00  0.00     0.145 A 
ATOM      4  N   UNL d   1      57.057   0.681  33.403  0.00  0.00    -0.240 NA
ATOM      5  C   UNL d   1      57.487   0.425  32.738  0.00  0.00     0.087 A 
ATOM      6  C   UNL d   1      55.540  -0.256  32.245  0.00  0.00     0.002 C 
ATOM      7  C   UNL d   1      58.296   0.527  32.599  0.00  0.00     0.021 C 
ENDROOT
BRANCH   1   8
ATOM      8  C   UNL d   1      57.187  -0.288  31.505  0.00  0.00     0.302 C 
ATOM      9  O   UNL d   1      57.151  -1.080  31.406  0.00  0.00    -0.259 OA
BRANCH   8  10
ATOM     10  O   UNL d   1      57.441   0.218  30.883  0.00  0.00    -0.271 OA
BRANCH  10  11
ATOM     11  C   UNL d   1      57.560  -0.061  30.144  0.00  0.00     0.126 C 
ATOM     12  C   UNL d   1      57.985   0.376  29.586  0.00  0.00     0.029 C 
ENDBRANCH  10  11
ENDBRANCH   8  10
ENDBRANCH   1   8
BRANCH   3  13
ATOM     13  C   UNL d   1      55.645   0.586  33.804  0.00  0.00     0.318 C 
ATOM     14  O   UNL d   1      54.898   0.654  33.531  0.00  0.00    -0.257 OA
BRANCH  13  15
ATOM     15  O   UNL d   1      55.783   0.647  34.603  0.00  0.00    -0.270 OA
BRANCH  15  16
ATOM     16  C   UNL d   1      55.166   0.645  35.142  0.00  0.00     0.126 C 
ATOM     17  C   UNL d   1      55.308   0.681  35.940  0.00  0.00     0.029 C 
ENDBRANCH  15  16
ENDBRANCH  13  15
ENDBRANCH   3  13
TORSDOF 6
ENDMDL
