MODEL 1
REMARK VINA RESULT:      50.5      0.000      0.000
REMARK  6 active torsions:
REMARK  status: ('A' for Active; 'I' for Inactive)
REMARK    1  A    between atoms: C_9  and  C_2 
REMARK    2  A    between atoms: N_3  and  C_7 
REMARK       I    between atoms: C_8  and  N_14 
REMARK    3  A    between atoms: C_10  and  C_8 
REMARK    4  A    between atoms: C_13  and  C_10 
REMARK    5  A    between atoms: C_19  and  C_13 
REMARK    6  A    between atoms: N_14  and  C_20 
ROOT
ATOM      1  C   UNL d   1     -50.892  25.880  33.397  0.00  0.00     0.041 A 
ATOM      2  C   UNL d   1     -51.183  26.641  33.482  0.00  0.00     0.005 A 
ATOM      3  C   UNL d   1     -50.096  25.719  33.328  0.00  0.00     0.005 A 
ATOM      4  C   UNL d   1     -49.847  27.103  33.432  0.00  0.00     0.085 A 
ATOM      5  C   UNL d   1     -50.622  27.256  33.498  0.00  0.00     0.019 A 
ATOM      6  C   UNL d   1     -49.559  26.341  33.346  0.00  0.00     0.019 A 
ENDROOT
BRANCH   4   7
ATOM      7  N   UNL d   1     -49.329  27.745  33.452  0.00  0.00    -0.208 NA
ATOM      8  C   UNL d   1     -48.943  27.940  34.160  0.00  0.00     0.279 C 
ATOM      9  O   UNL d   1     -49.089  27.485  34.824  0.00  0.00    -0.265 OA
BRANCH   8  10
ATOM     10  C   UNL d   1     -48.424  28.582  34.185  0.00  0.00     0.062 C 
BRANCH  10  11
ATOM     11  C   UNL d   1     -48.669  29.316  34.447  0.00  0.00     0.005 C 
BRANCH  11  12
ATOM     12  C   UNL d   1     -48.148  29.836  34.861  0.00  0.00     0.002 A 
ATOM     13  C   UNL d   1     -48.161  30.646  34.700  0.00  0.00     0.024 A 
ATOM     14  C   UNL d   1     -47.636  31.162  35.118  0.00  0.00     0.127 A 
ATOM     15  C   UNL d   1     -47.120  30.841  35.682  0.00  0.00     0.024 A 
ATOM     16  C   UNL d   1     -47.124  30.029  35.827  0.00  0.00     0.002 A 
ATOM     17  C   UNL d   1     -47.635  29.519  35.420  0.00  0.00     0.000 A 
BRANCH  14  18
ATOM     18  N   UNL d   1     -47.636  31.968  34.971  0.00  0.00    -0.114 N 
ATOM     19  O   UNL d   1     -46.977  32.422  34.710  0.00  0.00    -0.532 OA
ATOM     20  O   UNL d   1     -48.302  32.449  35.063  0.00  0.00    -0.532 OA
ENDBRANCH  14  18
ENDBRANCH  11  12
ENDBRANCH  10  11
ENDBRANCH   8  10
ENDBRANCH   4   7
BRANCH   1  21
ATOM     21  C   UNL d   1     -51.444  25.260  33.380  0.00  0.00     0.182 A 
ATOM     22  N   UNL d   1     -51.381  24.432  33.384  0.00  0.00    -0.220 NA
ATOM     23  C   UNL d   1     -52.136  24.117  33.360  0.00  0.00     0.106 A 
ATOM     24  C   UNL d   1     -52.665  24.747  33.343  0.00  0.00     0.119 A 
ATOM     25  C   UNL d   1     -52.412  23.334  33.353  0.00  0.00     0.021 A 
ATOM     26  C   UNL d   1     -53.471  24.597  33.318  0.00  0.00     0.026 A 
ATOM     27  O   UNL d   1     -52.245  25.425  33.355  0.00  0.00    -0.288 OA
ATOM     28  C   UNL d   1     -53.761  23.839  33.310  0.00  0.00     0.002 A 
ATOM     29  C   UNL d   1     -53.232  23.188  33.327  0.00  0.00     0.002 A 
ENDBRANCH   1  21
TORSDOF 6
ENDMDL
