MODEL 1
REMARK VINA RESULT:      -3.4      0.000      0.000
REMARK  2 active torsions:
REMARK  status: ('A' for Active; 'I' for Inactive)
REMARK    1  A    between atoms: N_4  and  C_1 
REMARK    2  A    between atoms: C_6  and  C_2 
ROOT
ATOM      1  C   UNL d   1      56.022   0.311  33.244  0.00  0.00     0.149 A 
ATOM      2  C   UNL d   1      56.492   0.405  33.925  0.00  0.00     0.056 A 
ATOM      3  N   UNL d   1      55.210   0.395  33.276  0.00  0.00    -0.228 NA
ATOM      4  C   UNL d   1      56.131   0.584  34.636  0.00  0.00     0.006 A 
ATOM      5  C   UNL d   1      54.845   0.575  33.986  0.00  0.00     0.083 A 
ATOM      6  C   UNL d   1      55.303   0.670  34.670  0.00  0.00     0.019 A 
ATOM      7  C   UNL d   1      56.581   0.682  35.326  0.00  0.00     0.000 C 
ATOM      8  C   UNL d   1      54.025   0.661  34.023  0.00  0.00     0.021 C 
ENDROOT
BRANCH   1   9
ATOM      9  N   UNL d   1      56.388   0.130  32.525  0.00  0.00    -0.289 N 
ATOM     10  C   UNL d   1      56.580   0.662  32.075  0.00  0.00     0.082 A 
ATOM     11  C   UNL d   1      56.896   0.495  31.453  0.00  0.00     0.021 A 
ATOM     12  C   UNL d   1      56.825  -0.710  31.735  0.00  0.00     0.021 A 
ATOM     13  C   UNL d   1      56.510  -0.546  32.355  0.00  0.00     0.082 A 
ENDBRANCH   1   9
BRANCH   2  14
ATOM     14  C   UNL d   1      57.304   0.319  33.884  0.00  0.00     0.125 C 
ATOM     15  N   UNL d   1      57.784   0.680  34.443  0.00  0.00    -0.146 N 
ENDBRANCH   2  14
TORSDOF 2
ENDMDL
MODEL 2
REMARK VINA RESULT:      -2.9      1.387      1.902
REMARK  2 active torsions:
REMARK  status: ('A' for Active; 'I' for Inactive)
REMARK    1  A    between atoms: N_4  and  C_1 
REMARK    2  A    between atoms: C_6  and  C_2 
ROOT
ATOM      1  C   UNL d   1      56.982  -0.250  31.959  0.00  0.00     0.149 A 
ATOM      2  C   UNL d   1      57.262   0.154  32.631  0.00  0.00     0.056 A 
ATOM      3  N   UNL d   1      56.358  -0.776  32.010  0.00  0.00    -0.228 NA
ATOM      4  C   UNL d   1      56.904   0.019  33.354  0.00  0.00     0.006 A 
ATOM      5  C   UNL d   1      55.998  -0.914  32.732  0.00  0.00     0.083 A 
ATOM      6  C   UNL d   1      56.268  -0.517  33.408  0.00  0.00     0.019 A 
ATOM      7  C   UNL d   1      57.168   0.411  34.035  0.00  0.00     0.000 C 
ATOM      8  C   UNL d   1      55.368  -1.444  32.789  0.00  0.00     0.021 C 
ENDROOT
BRANCH   1   9
ATOM      9  N   UNL d   1      57.344  -0.114  31.228  0.00  0.00    -0.289 N 
ATOM     10  C   UNL d   1      57.777  -0.616  30.943  0.00  0.00     0.082 A 
ATOM     11  C   UNL d   1      58.087  -0.490  30.308  0.00  0.00     0.021 A 
ATOM     12  C   UNL d   1      57.535   0.619  30.256  0.00  0.00     0.021 A 
ATOM     13  C   UNL d   1      57.227   0.494  30.888  0.00  0.00     0.082 A 
ENDBRANCH   1   9
BRANCH   2  14
ATOM     14  C   UNL d   1      57.885   0.678  32.570  0.00  0.00     0.125 C 
ATOM     15  N   UNL d   1      58.478   0.679  33.138  0.00  0.00    -0.146 N 
ENDBRANCH   2  14
TORSDOF 2
ENDMDL
MODEL 3
REMARK VINA RESULT:      -2.8      0.981      2.951
REMARK  2 active torsions:
REMARK  status: ('A' for Active; 'I' for Inactive)
REMARK    1  A    between atoms: N_4  and  C_1 
REMARK    2  A    between atoms: C_6  and  C_2 
ROOT
ATOM      1  C   UNL d   1      56.250   0.026  33.256  0.00  0.00     0.149 A 
ATOM      2  C   UNL d   1      56.060  -0.733  32.974  0.00  0.00     0.056 A 
ATOM      3  N   UNL d   1      56.804   0.493  32.878  0.00  0.00    -0.228 NA
ATOM      4  C   UNL d   1      56.438  -1.014  32.305  0.00  0.00     0.006 A 
ATOM      5  C   UNL d   1      57.184   0.215  32.209  0.00  0.00     0.083 A 
ATOM      6  C   UNL d   1      57.003  -0.540  31.918  0.00  0.00     0.019 A 
ATOM      7  C   UNL d   1      56.263  -1.769  32.007  0.00  0.00     0.000 C 
ATOM      8  C   UNL d   1      57.744   0.681  31.823  0.00  0.00     0.021 C 
ENDROOT
BRANCH   1   9
ATOM      9  N   UNL d   1      55.868   0.311  33.933  0.00  0.00    -0.289 N 
ATOM     10  C   UNL d   1      56.247   0.429  34.536  0.00  0.00     0.082 A 
ATOM     11  C   UNL d   1      55.908   0.676  35.119  0.00  0.00     0.021 A 
ATOM     12  C   UNL d   1      54.836   0.682  34.496  0.00  0.00     0.021 A 
ATOM     13  C   UNL d   1      55.173   0.436  33.916  0.00  0.00     0.082 A 
ENDBRANCH   1   9
BRANCH   2  14
ATOM     14  C   UNL d   1      55.505  -1.192  33.358  0.00  0.00     0.125 C 
ATOM     15  N   UNL d   1      55.567  -2.011  33.346  0.00  0.00    -0.146 N 
ENDBRANCH   2  14
TORSDOF 2
ENDMDL
MODEL 4
REMARK VINA RESULT:      -2.7      0.629      1.802
REMARK  2 active torsions:
REMARK  status: ('A' for Active; 'I' for Inactive)
REMARK    1  A    between atoms: N_4  and  C_1 
REMARK    2  A    between atoms: C_6  and  C_2 
ROOT
ATOM      1  C   UNL d   1      56.449   0.248  33.512  0.00  0.00     0.149 A 
ATOM      2  C   UNL d   1      55.686   0.355  33.827  0.00  0.00     0.056 A 
ATOM      3  N   UNL d   1      57.116   0.355  33.972  0.00  0.00    -0.228 NA
ATOM      4  C   UNL d   1      55.607   0.571  34.612  0.00  0.00     0.006 A 
ATOM      5  C   UNL d   1      57.040   0.571  34.758  0.00  0.00     0.083 A 
ATOM      6  C   UNL d   1      56.286   0.680  35.082  0.00  0.00     0.019 A 
ATOM      7  C   UNL d   1      54.855   0.682  34.945  0.00  0.00     0.000 C 
ATOM      8  C   UNL d   1      57.710   0.681  35.227  0.00  0.00     0.021 C 
ENDROOT
BRANCH   1   9
ATOM      9  N   UNL d   1      56.529   0.030  32.718  0.00  0.00    -0.289 N 
ATOM     10  C   UNL d   1      56.580   0.540  32.209  0.00  0.00     0.082 A 
ATOM     11  C   UNL d   1      56.649   0.342  31.522  0.00  0.00     0.021 A 
ATOM     12  C   UNL d   1      56.617  -0.851  31.861  0.00  0.00     0.021 A 
ATOM     13  C   UNL d   1      56.548  -0.655  32.544  0.00  0.00     0.082 A 
ENDBRANCH   1   9
BRANCH   2  14
ATOM     14  C   UNL d   1      55.025   0.246  33.360  0.00  0.00     0.125 C 
ATOM     15  N   UNL d   1      54.295   0.529  33.607  0.00  0.00    -0.146 N 
ENDBRANCH   2  14
TORSDOF 2
ENDMDL
MODEL 5
REMARK VINA RESULT:      -2.5      4.379      5.925
REMARK  2 active torsions:
REMARK  status: ('A' for Active; 'I' for Inactive)
REMARK    1  A    between atoms: N_4  and  C_1 
REMARK    2  A    between atoms: C_6  and  C_2 
ROOT
ATOM      1  C   UNL d   1      59.060  -1.093  29.151  0.00  0.00     0.149 A 
ATOM      2  C   UNL d   1      59.892  -1.077  29.150  0.00  0.00     0.056 A 
ATOM      3  N   UNL d   1      58.649  -1.790  29.035  0.00  0.00    -0.228 NA
ATOM      4  C   UNL d   1      60.303  -1.775  29.030  0.00  0.00     0.006 A 
ATOM      5  C   UNL d   1      59.057  -2.489  28.915  0.00  0.00     0.083 A 
ATOM      6  C   UNL d   1      59.885  -2.486  28.911  0.00  0.00     0.019 A 
ATOM      7  C   UNL d   1      61.132  -1.781  29.025  0.00  0.00     0.000 C 
ATOM      8  C   UNL d   1      58.647  -3.196  28.797  0.00  0.00     0.021 C 
ENDROOT
BRANCH   1   9
ATOM      9  N   UNL d   1      58.645  -0.388  29.272  0.00  0.00    -0.289 N 
ATOM     10  C   UNL d   1      58.429  -0.208  29.938  0.00  0.00     0.082 A 
ATOM     11  C   UNL d   1      58.069   0.405  30.034  0.00  0.00     0.021 A 
ATOM     12  C   UNL d   1      58.147   0.645  28.820  0.00  0.00     0.021 A 
ATOM     13  C   UNL d   1      58.505   0.035  28.723  0.00  0.00     0.082 A 
ENDBRANCH   1   9
BRANCH   2  14
ATOM     14  C   UNL d   1      60.295  -0.376  29.267  0.00  0.00     0.125 C 
ATOM     15  N   UNL d   1      61.107  -0.382  29.382  0.00  0.00    -0.146 N 
ENDBRANCH   2  14
TORSDOF 2
ENDMDL
MODEL 6
REMARK VINA RESULT:      -2.2      3.576      5.233
REMARK  2 active torsions:
REMARK  status: ('A' for Active; 'I' for Inactive)
REMARK    1  A    between atoms: N_4  and  C_1 
REMARK    2  A    between atoms: C_6  and  C_2 
ROOT
ATOM      1  C   UNL d   1      58.629  -1.509  29.562  0.00  0.00     0.149 A 
ATOM      2  C   UNL d   1      58.904  -0.786  29.254  0.00  0.00     0.056 A 
ATOM      3  N   UNL d   1      58.095  -1.529  30.181  0.00  0.00    -0.228 NA
ATOM      4  C   UNL d   1      58.633  -0.086  29.579  0.00  0.00     0.006 A 
ATOM      5  C   UNL d   1      57.822  -0.831  30.508  0.00  0.00     0.083 A 
ATOM      6  C   UNL d   1      58.089  -0.105  30.210  0.00  0.00     0.019 A 
ATOM      7  C   UNL d   1      58.895   0.644  29.286  0.00  0.00     0.000 C 
ATOM      8  C   UNL d   1      57.282  -0.845  31.133  0.00  0.00     0.021 C 
ENDROOT
BRANCH   1   9
ATOM      9  N   UNL d   1      58.903  -2.217  29.234  0.00  0.00    -0.289 N 
ATOM     10  C   UNL d   1      58.507  -2.557  28.735  0.00  0.00     0.082 A 
ATOM     11  C   UNL d   1      58.752  -3.172  28.455  0.00  0.00     0.021 A 
ATOM     12  C   UNL d   1      59.765  -3.094  29.166  0.00  0.00     0.021 A 
ATOM     13  C   UNL d   1      59.522  -2.483  29.445  0.00  0.00     0.082 A 
ENDBRANCH   1   9
BRANCH   2  14
ATOM     14  C   UNL d   1      59.438  -0.775  28.636  0.00  0.00     0.125 C 
ATOM     15  N   UNL d   1      59.845  -0.086  28.456  0.00  0.00    -0.146 N 
ENDBRANCH   2  14
TORSDOF 2
ENDMDL
MODEL 7
REMARK VINA RESULT:      -2.2      9.573     10.486
REMARK  2 active torsions:
REMARK  status: ('A' for Active; 'I' for Inactive)
REMARK    1  A    between atoms: N_4  and  C_1 
REMARK    2  A    between atoms: C_6  and  C_2 
ROOT
ATOM      1  C   UNL d   1      59.145  -9.322  34.108  0.00  0.00     0.149 A 
ATOM      2  C   UNL d   1      59.851  -9.422  33.680  0.00  0.00     0.056 A 
ATOM      3  N   UNL d   1      58.417  -9.451  33.759  0.00  0.00    -0.228 NA
ATOM      4  C   UNL d   1      59.813  -9.655  32.897  0.00  0.00     0.006 A 
ATOM      5  C   UNL d   1      58.374  -9.684  32.976  0.00  0.00     0.083 A 
ATOM      6  C   UNL d   1      59.071  -9.788  32.540  0.00  0.00     0.019 A 
ATOM      7  C   UNL d   1      60.505  -9.761  32.453  0.00  0.00     0.000 C 
ATOM      8  C   UNL d   1      57.642  -9.817  32.619  0.00  0.00     0.021 C 
ENDROOT
BRANCH   1   9
ATOM      9  N   UNL d   1      59.184  -9.086  34.900  0.00  0.00    -0.289 N 
ATOM     10  C   UNL d   1      59.265  -9.582  35.418  0.00  0.00     0.082 A 
ATOM     11  C   UNL d   1      59.298  -9.369  36.103  0.00  0.00     0.021 A 
ATOM     12  C   UNL d   1      59.170  -8.189  35.745  0.00  0.00     0.021 A 
ATOM     13  C   UNL d   1      59.137  -8.400  35.063  0.00  0.00     0.082 A 
ENDBRANCH   1   9
BRANCH   2  14
ATOM     14  C   UNL d   1      60.574  -9.291  34.036  0.00  0.00     0.125 C 
ATOM     15  N   UNL d   1      61.133  -8.815  33.669  0.00  0.00    -0.146 N 
ENDBRANCH   2  14
TORSDOF 2
ENDMDL
MODEL 8
REMARK VINA RESULT:      -2.2      2.270      4.127
REMARK  2 active torsions:
REMARK  status: ('A' for Active; 'I' for Inactive)
REMARK    1  A    between atoms: N_4  and  C_1 
REMARK    2  A    between atoms: C_6  and  C_2 
ROOT
ATOM      1  C   UNL d   1      57.916   0.019  30.700  0.00  0.00     0.149 A 
ATOM      2  C   UNL d   1      58.652   0.352  30.899  0.00  0.00     0.056 A 
ATOM      3  N   UNL d   1      57.786  -0.314  29.965  0.00  0.00    -0.228 NA
ATOM      4  C   UNL d   1      59.254   0.345  30.346  0.00  0.00     0.006 A 
ATOM      5  C   UNL d   1      58.386  -0.323  29.409  0.00  0.00     0.083 A 
ATOM      6  C   UNL d   1      59.124   0.006  29.596  0.00  0.00     0.019 A 
ATOM      7  C   UNL d   1      59.995   0.671  30.524  0.00  0.00     0.000 C 
ATOM      8  C   UNL d   1      58.261  -0.657  28.665  0.00  0.00     0.021 C 
ENDROOT
BRANCH   1   9
ATOM      9  N   UNL d   1      57.307   0.026  31.260  0.00  0.00    -0.289 N 
ATOM     10  C   UNL d   1      57.173  -0.565  31.652  0.00  0.00     0.082 A 
ATOM     11  C   UNL d   1      56.642  -0.550  32.136  0.00  0.00     0.021 A 
ATOM     12  C   UNL d   1      56.393   0.625  31.830  0.00  0.00     0.021 A 
ATOM     13  C   UNL d   1      56.921   0.611  31.349  0.00  0.00     0.082 A 
ENDBRANCH   1   9
BRANCH   2  14
ATOM     14  C   UNL d   1      58.773   0.682  31.637  0.00  0.00     0.125 C 
ATOM     15  N   UNL d   1      59.521   0.672  31.974  0.00  0.00    -0.146 N 
ENDBRANCH   2  14
TORSDOF 2
ENDMDL
MODEL 9
REMARK VINA RESULT:      -2.0      0.932      2.607
REMARK  2 active torsions:
REMARK  status: ('A' for Active; 'I' for Inactive)
REMARK    1  A    between atoms: N_4  and  C_1 
REMARK    2  A    between atoms: C_6  and  C_2 
ROOT
ATOM      1  C   UNL d   1      56.494   0.338  33.545  0.00  0.00     0.149 A 
ATOM      2  C   UNL d   1      56.843   0.423  32.794  0.00  0.00     0.056 A 
ATOM      3  N   UNL d   1      56.933   0.423  34.229  0.00  0.00    -0.228 NA
ATOM      4  C   UNL d   1      57.642   0.594  32.744  0.00  0.00     0.006 A 
ATOM      5  C   UNL d   1      57.732   0.595  34.183  0.00  0.00     0.083 A 
ATOM      6  C   UNL d   1      58.091   0.681  33.441  0.00  0.00     0.019 A 
ATOM      7  C   UNL d   1      58.009   0.682  32.006  0.00  0.00     0.000 C 
ATOM      8  C   UNL d   1      58.180   0.682  34.870  0.00  0.00     0.021 C 
ENDROOT
BRANCH   1   9
ATOM      9  N   UNL d   1      55.686   0.165  33.595  0.00  0.00    -0.289 N 
ATOM     10  C   UNL d   1      55.220   0.681  33.791  0.00  0.00     0.082 A 
ATOM     11  C   UNL d   1      54.521   0.522  33.833  0.00  0.00     0.021 A 
ATOM     12  C   UNL d   1      54.763  -0.644  33.487  0.00  0.00     0.021 A 
ATOM     13  C   UNL d   1      55.458  -0.487  33.446  0.00  0.00     0.082 A 
ENDBRANCH   1   9
BRANCH   2  14
ATOM     14  C   UNL d   1      56.397   0.336  32.116  0.00  0.00     0.125 C 
ATOM     15  N   UNL d   1      56.707   0.554  31.388  0.00  0.00    -0.146 N 
ENDBRANCH   2  14
TORSDOF 2
ENDMDL
