MODEL 1
REMARK VINA RESULT:      39.4      0.000      0.000
REMARK  9 active torsions:
REMARK  status: ('A' for Active; 'I' for Inactive)
REMARK    1  A    between atoms: C_6  and  N_1 
REMARK    2  A    between atoms: C_7  and  C_2 
REMARK    3  A    between atoms: C_3  and  C_9 
REMARK    4  A    between atoms: O_5  and  C_3 
REMARK    5  A    between atoms: C_4  and  O_5 
REMARK    6  A    between atoms: C_8  and  C_7 
REMARK    7  A    between atoms: C_12  and  C_8 
REMARK    8  A    between atoms: C_10  and  C_12 
REMARK    9  A    between atoms: O_25  and  C_23 
ROOT
ATOM      1  C   UNL d   1      13.638  12.585  -3.579  0.00  0.00     0.064 A 
ATOM      2  C   UNL d   1      13.541  13.395  -3.703  0.00  0.00     0.106 A 
ATOM      3  C   UNL d   1      13.378  12.046  -4.154  0.00  0.00     0.029 A 
ATOM      4  C   UNL d   1      13.185  13.666  -4.403  0.00  0.00     0.027 A 
ATOM      5  C   UNL d   1      13.025  12.317  -4.846  0.00  0.00     0.094 A 
ATOM      6  C   UNL d   1      12.929  13.127  -4.971  0.00  0.00     0.026 A 
ENDROOT
BRANCH   2   7
ATOM      7  O   UNL d   1      13.797  13.938  -3.136  0.00  0.00    -0.273 OA
BRANCH   7   8
ATOM      8  C   UNL d   1      13.586  14.732  -3.205  0.00  0.00     0.300 C 
ATOM      9  O   UNL d   1      12.820  14.942  -3.411  0.00  0.00    -0.259 OA
BRANCH   8  10
ATOM     10  C   UNL d   1      14.152  15.315  -3.066  0.00  0.00     0.065 A 
ATOM     11  C   UNL d   1      14.249  15.614  -2.307  0.00  0.00     0.029 A 
ATOM     12  C   UNL d   1      14.809  16.193  -2.161  0.00  0.00     0.127 A 
ATOM     13  C   UNL d   1      15.283  16.482  -2.778  0.00  0.00     0.024 A 
ATOM     14  C   UNL d   1      15.182  16.179  -3.538  0.00  0.00     0.002 A 
ATOM     15  C   UNL d   1      14.615  15.593  -3.686  0.00  0.00     0.005 A 
BRANCH  12  16
ATOM     16  N   UNL d   1      14.912  16.499  -1.393  0.00  0.00    -0.114 N 
ATOM     17  O   UNL d   1      14.526  17.186  -1.168  0.00  0.00    -0.532 OA
ATOM     18  O   UNL d   1      15.408  16.099  -0.866  0.00  0.00    -0.532 OA
ENDBRANCH  12  16
ENDBRANCH   8  10
ENDBRANCH   7   8
ENDBRANCH   2   7
BRANCH   1  19
ATOM     19  C   UNL d   1      13.992  12.315  -2.882  0.00  0.00     0.198 C 
ATOM     20  O   UNL d   1      14.783  12.080  -2.888  0.00  0.00    -0.286 OA
BRANCH  19  21
ATOM     21  C   UNL d   1      13.558  12.281  -2.185  0.00  0.00     0.043 C 
BRANCH  21  22
ATOM     22  C   UNL d   1      13.808  11.796  -1.568  0.00  0.00     0.010 C 
BRANCH  22  23
ATOM     23  C   UNL d   1      14.303  12.098  -0.984  0.00  0.00     0.030 A 
ATOM     24  S   UNL d   1      15.021  11.779  -0.733  0.00  0.00    -0.086 SA
ATOM     25  C   UNL d   1      15.330  12.259  -0.138  0.00  0.00     0.035 A 
ATOM     26  C   UNL d   1      14.805  12.881  -0.015  0.00  0.00     0.007 A 
ATOM     27  C   UNL d   1      14.170  12.784  -0.536  0.00  0.00     0.007 A 
ENDBRANCH  22  23
ENDBRANCH  21  22
ENDBRANCH  19  21
ENDBRANCH   1  19
BRANCH   5  28
ATOM     28  O   UNL d   1      12.769  11.780  -5.415  0.00  0.00    -0.328 OA
ATOM     29  C   UNL d   1      12.995  11.873  -6.200  0.00  0.00     0.181 C 
ENDBRANCH   5  28
TORSDOF 9
ENDMDL
