MODEL 1
REMARK VINA RESULT:      33.8      0.000      0.000
REMARK  5 active torsions:
REMARK  status: ('A' for Active; 'I' for Inactive)
REMARK    1  A    between atoms: N_2  and  C_7 
REMARK    2  A    between atoms: N_11  and  C_3 
REMARK    3  A    between atoms: C_9  and  C_4 
REMARK    4  A    between atoms: C_18  and  N_11 
REMARK    5  A    between atoms: C_16  and  C_18 
ROOT
ATOM      1  N   UNL d   1     -55.982-100.028 -44.624  0.00  0.00    -0.222 NA
ATOM      2  C   UNL d   1     -55.281 -99.923 -44.204  0.00  0.00     0.172 A 
ATOM      3  C   UNL d   1     -56.380 -99.296 -44.645  0.00  0.00     0.090 A 
ATOM      4  S   UNL d   1     -55.242 -99.144 -43.970  0.00  0.00    -0.048 SA
ATOM      5  C   UNL d   1     -55.913 -98.760 -44.238  0.00  0.00     0.057 A 
ENDROOT
BRANCH   3   6
ATOM      6  C   UNL d   1     -57.117 -99.176 -45.023  0.00  0.00     0.018 A 
ATOM      7  C   UNL d   1     -57.129 -98.879 -45.793  0.00  0.00     0.003 A 
ATOM      8  C   UNL d   1     -57.855 -98.761 -46.166  0.00  0.00     0.024 A 
ATOM      9  C   UNL d   1     -58.550 -98.943 -45.759  0.00  0.00     0.127 A 
ATOM     10  C   UNL d   1     -58.545 -99.236 -44.999  0.00  0.00     0.024 A 
ATOM     11  C   UNL d   1     -57.808 -99.356 -44.621  0.00  0.00     0.003 A 
BRANCH   9  12
ATOM     12  N   UNL d   1     -59.271 -98.826 -46.129  0.00  0.00    -0.114 N 
ATOM     13  O   UNL d   1     -59.315 -98.774 -46.955  0.00  0.00    -0.532 OA
ATOM     14  O   UNL d   1     -59.960 -98.758 -45.692  0.00  0.00    -0.532 OA
ENDBRANCH   9  12
ENDBRANCH   3   6
BRANCH   2  15
ATOM     15  N   UNL d   1     -54.711-100.486 -44.041  0.00  0.00    -0.332 N 
ATOM     16  H   UNL d   1     -54.118-100.323 -43.480  0.00  0.00     0.168 HD
BRANCH  15  17
ATOM     17  C   UNL d   1     -54.720-101.222 -44.431  0.00  0.00     0.074 C 
BRANCH  17  18
ATOM     18  C   UNL d   1     -54.917-101.900 -44.035  0.00  0.00     0.018 C 
ATOM     19  C   UNL d   1     -55.081-102.618 -44.454  0.00  0.00     0.002 C 
ENDBRANCH  17  18
ENDBRANCH  15  17
ENDBRANCH   2  15
TORSDOF 5
ENDMDL
