MODEL 1
REMARK VINA RESULT:      -5.9      0.000      0.000
REMARK  1 active torsions:
REMARK  status: ('A' for Active; 'I' for Inactive)
REMARK    1  A    between atoms: C_11  and  C_4 
ROOT
ATOM      1  N   UNL d   1      56.698   0.248  32.256  0.00  0.00    -0.242 NA
ATOM      2  C   UNL d   1      57.109  -0.062  31.625  0.00  0.00     0.099 A 
ATOM      3  N   UNL d   1      56.652  -1.369  31.943  0.00  0.00    -0.241 NA
ATOM      4  C   UNL d   1      56.266  -0.251  32.728  0.00  0.00     0.101 A 
ATOM      5  C   UNL d   1      57.086  -0.872  31.468  0.00  0.00     0.099 A 
ATOM      6  C   UNL d   1      57.545   0.438  31.147  0.00  0.00     0.021 A 
ATOM      7  C   UNL d   1      57.973   0.132  30.493  0.00  0.00     0.002 A 
ATOM      8  C   UNL d   1      57.950  -0.678  30.337  0.00  0.00     0.002 A 
ATOM      9  C   UNL d   1      57.499  -1.179  30.834  0.00  0.00     0.021 A 
ATOM     10  C   UNL d   1      56.243  -1.061  32.571  0.00  0.00     0.118 A 
ATOM     11  C   UNL d   1      58.421   0.635  30.000  0.00  0.00     0.000 C 
ATOM     12  C   UNL d   1      58.375  -0.982  29.687  0.00  0.00     0.000 C 
ENDROOT
BRANCH   4  13
ATOM     13  C   UNL d   1      55.855   0.059  33.361  0.00  0.00     0.019 A 
ATOM     14  C   UNL d   1      56.255   0.340  34.018  0.00  0.00     0.002 A 
ATOM     15  C   UNL d   1      55.837   0.666  34.684  0.00  0.00     0.000 A 
ATOM     16  C   UNL d   1      55.011   0.682  34.630  0.00  0.00     0.000 A 
ATOM     17  C   UNL d   1      54.610   0.400  33.972  0.00  0.00     0.000 A 
ATOM     18  C   UNL d   1      55.019   0.091  33.341  0.00  0.00     0.002 A 
ENDBRANCH   4  13
TORSDOF 1
ENDMDL
MODEL 2
REMARK VINA RESULT:      -5.8      0.975      2.008
REMARK  1 active torsions:
REMARK  status: ('A' for Active; 'I' for Inactive)
REMARK    1  A    between atoms: C_11  and  C_4 
ROOT
ATOM      1  N   UNL d   1      57.382  -0.843  31.026  0.00  0.00    -0.242 NA
ATOM      2  C   UNL d   1      57.906  -0.717  30.415  0.00  0.00     0.099 A 
ATOM      3  N   UNL d   1      57.890   0.682  30.661  0.00  0.00    -0.241 NA
ATOM      4  C   UNL d   1      57.114  -0.205  31.451  0.00  0.00     0.101 A 
ATOM      5  C   UNL d   1      58.160   0.046  30.233  0.00  0.00     0.099 A 
ATOM      6  C   UNL d   1      58.177  -1.357  29.985  0.00  0.00     0.021 A 
ATOM      7  C   UNL d   1      58.718  -1.243  29.353  0.00  0.00     0.002 A 
ATOM      8  C   UNL d   1      58.973  -0.480  29.170  0.00  0.00     0.002 A 
ATOM      9  C   UNL d   1      58.686   0.167  29.620  0.00  0.00     0.021 A 
ATOM     10  C   UNL d   1      57.369   0.558  31.269  0.00  0.00     0.118 A 
ATOM     11  C   UNL d   1      59.001  -1.890  28.908  0.00  0.00     0.000 C 
ATOM     12  C   UNL d   1      59.510  -0.366  28.543  0.00  0.00     0.000 C 
ENDROOT
BRANCH   4  13
ATOM     13  C   UNL d   1      56.588  -0.330  32.063  0.00  0.00     0.019 A 
ATOM     14  C   UNL d   1      56.221   0.305  32.431  0.00  0.00     0.002 A 
ATOM     15  C   UNL d   1      55.672   0.188  33.070  0.00  0.00     0.000 A 
ATOM     16  C   UNL d   1      55.531  -0.596  33.297  0.00  0.00     0.000 A 
ATOM     17  C   UNL d   1      55.898  -1.231  32.930  0.00  0.00     0.000 A 
ATOM     18  C   UNL d   1      56.422  -1.108  32.319  0.00  0.00     0.002 A 
ENDBRANCH   4  13
TORSDOF 1
ENDMDL
MODEL 3
REMARK VINA RESULT:      -5.8      0.856      4.287
REMARK  1 active torsions:
REMARK  status: ('A' for Active; 'I' for Inactive)
REMARK    1  A    between atoms: C_11  and  C_4 
ROOT
ATOM      1  N   UNL d   1      57.448  -0.921  30.838  0.00  0.00    -0.242 NA
ATOM      2  C   UNL d   1      57.018  -0.655  31.477  0.00  0.00     0.099 A 
ATOM      3  N   UNL d   1      57.425   0.682  31.220  0.00  0.00    -0.241 NA
ATOM      4  C   UNL d   1      57.864  -0.385  30.393  0.00  0.00     0.101 A 
ATOM      5  C   UNL d   1      57.007   0.147  31.668  0.00  0.00     0.099 A 
ATOM      6  C   UNL d   1      56.598  -1.193  31.927  0.00  0.00     0.021 A 
ATOM      7  C   UNL d   1      56.151  -0.932  32.589  0.00  0.00     0.002 A 
ATOM      8  C   UNL d   1      56.139  -0.130  32.780  0.00  0.00     0.002 A 
ATOM      9  C   UNL d   1      56.575   0.410  32.309  0.00  0.00     0.021 A 
ATOM     10  C   UNL d   1      57.852   0.418  30.584  0.00  0.00     0.118 A 
ATOM     11  C   UNL d   1      55.718  -1.474  33.055  0.00  0.00     0.000 C 
ATOM     12  C   UNL d   1      55.695   0.129  33.436  0.00  0.00     0.000 C 
ENDROOT
BRANCH   4  13
ATOM     13  C   UNL d   1      58.294  -0.651  29.753  0.00  0.00     0.019 A 
ATOM     14  C   UNL d   1      58.520  -1.438  29.702  0.00  0.00     0.002 A 
ATOM     15  C   UNL d   1      58.969  -1.727  29.040  0.00  0.00     0.000 A 
ATOM     16  C   UNL d   1      59.163  -1.173  28.455  0.00  0.00     0.000 A 
ATOM     17  C   UNL d   1      58.938  -0.387  28.506  0.00  0.00     0.000 A 
ATOM     18  C   UNL d   1      58.508  -0.120  29.143  0.00  0.00     0.002 A 
ENDBRANCH   4  13
TORSDOF 1
ENDMDL
MODEL 4
REMARK VINA RESULT:      -4.0      0.623      3.990
REMARK  1 active torsions:
REMARK  status: ('A' for Active; 'I' for Inactive)
REMARK    1  A    between atoms: C_11  and  C_4 
ROOT
ATOM      1  N   UNL d   1      56.475  -0.141  32.078  0.00  0.00    -0.242 NA
ATOM      2  C   UNL d   1      56.208   0.066  32.820  0.00  0.00     0.099 A 
ATOM      3  N   UNL d   1      57.452   0.682  33.120  0.00  0.00    -0.241 NA
ATOM      4  C   UNL d   1      57.229   0.065  31.861  0.00  0.00     0.101 A 
ATOM      5  C   UNL d   1      56.697   0.477  33.341  0.00  0.00     0.099 A 
ATOM      6  C   UNL d   1      55.448  -0.141  33.042  0.00  0.00     0.021 A 
ATOM      7  C   UNL d   1      55.160   0.066  33.803  0.00  0.00     0.002 A 
ATOM      8  C   UNL d   1      55.649   0.477  34.325  0.00  0.00     0.002 A 
ATOM      9  C   UNL d   1      56.426   0.682  34.083  0.00  0.00     0.021 A 
ATOM     10  C   UNL d   1      57.719   0.477  32.382  0.00  0.00     0.118 A 
ATOM     11  C   UNL d   1      54.386  -0.140  34.039  0.00  0.00     0.000 C 
ATOM     12  C   UNL d   1      55.363   0.682  35.081  0.00  0.00     0.000 C 
ENDROOT
BRANCH   4  13
ATOM     13  C   UNL d   1      57.497  -0.141  31.118  0.00  0.00     0.019 A 
ATOM     14  C   UNL d   1      57.691   0.439  30.571  0.00  0.00     0.002 A 
ATOM     15  C   UNL d   1      57.972   0.237  29.794  0.00  0.00     0.000 A 
ATOM     16  C   UNL d   1      58.037  -0.571  29.623  0.00  0.00     0.000 A 
ATOM     17  C   UNL d   1      57.843  -1.151  30.170  0.00  0.00     0.000 A 
ATOM     18  C   UNL d   1      57.576  -0.947  30.911  0.00  0.00     0.002 A 
ENDBRANCH   4  13
TORSDOF 1
ENDMDL
MODEL 5
REMARK VINA RESULT:      -3.7      0.845      1.376
REMARK  1 active torsions:
REMARK  status: ('A' for Active; 'I' for Inactive)
REMARK    1  A    between atoms: C_11  and  C_4 
ROOT
ATOM      1  N   UNL d   1      57.714  -0.033  31.350  0.00  0.00    -0.242 NA
ATOM      2  C   UNL d   1      58.049  -0.337  30.673  0.00  0.00     0.099 A 
ATOM      3  N   UNL d   1      57.215  -1.484  30.749  0.00  0.00    -0.241 NA
ATOM      4  C   UNL d   1      57.131  -0.457  31.724  0.00  0.00     0.101 A 
ATOM      5  C   UNL d   1      57.799  -1.063  30.372  0.00  0.00     0.099 A 
ATOM      6  C   UNL d   1      58.637   0.087  30.293  0.00  0.00     0.021 A 
ATOM      7  C   UNL d   1      58.991  -0.214  29.594  0.00  0.00     0.002 A 
ATOM      8  C   UNL d   1      58.741  -0.941  29.293  0.00  0.00     0.002 A 
ATOM      9  C   UNL d   1      58.138  -1.364  29.692  0.00  0.00     0.021 A 
ATOM     10  C   UNL d   1      56.881  -1.183  31.423  0.00  0.00     0.118 A 
ATOM     11  C   UNL d   1      59.592   0.211  29.200  0.00  0.00     0.000 C 
ATOM     12  C   UNL d   1      59.093  -1.240  28.599  0.00  0.00     0.000 C 
ENDROOT
BRANCH   4  13
ATOM     13  C   UNL d   1      56.795  -0.153  32.403  0.00  0.00     0.019 A 
ATOM     14  C   UNL d   1      57.237   0.313  32.912  0.00  0.00     0.002 A 
ATOM     15  C   UNL d   1      56.898   0.636  33.623  0.00  0.00     0.000 A 
ATOM     16  C   UNL d   1      56.103   0.452  33.769  0.00  0.00     0.000 A 
ATOM     17  C   UNL d   1      55.661  -0.014  33.260  0.00  0.00     0.000 A 
ATOM     18  C   UNL d   1      55.995  -0.317  32.583  0.00  0.00     0.002 A 
ENDBRANCH   4  13
TORSDOF 1
ENDMDL
MODEL 6
REMARK VINA RESULT:      -3.4      0.707      1.365
REMARK  1 active torsions:
REMARK  status: ('A' for Active; 'I' for Inactive)
REMARK    1  A    between atoms: C_11  and  C_4 
ROOT
ATOM      1  N   UNL d   1      56.730  -0.693  31.877  0.00  0.00    -0.242 NA
ATOM      2  C   UNL d   1      57.291  -0.694  31.287  0.00  0.00     0.099 A 
ATOM      3  N   UNL d   1      57.606   0.665  31.557  0.00  0.00    -0.241 NA
ATOM      4  C   UNL d   1      56.609  -0.014  32.305  0.00  0.00     0.101 A 
ATOM      5  C   UNL d   1      57.730  -0.014  31.127  0.00  0.00     0.099 A 
ATOM      6  C   UNL d   1      57.415  -1.377  30.855  0.00  0.00     0.021 A 
ATOM      7  C   UNL d   1      57.991  -1.391  30.244  0.00  0.00     0.002 A 
ATOM      8  C   UNL d   1      58.430  -0.711  30.084  0.00  0.00     0.002 A 
ATOM      9  C   UNL d   1      58.292  -0.019  30.535  0.00  0.00     0.021 A 
ATOM     10  C   UNL d   1      57.048   0.666  32.144  0.00  0.00     0.118 A 
ATOM     11  C   UNL d   1      58.125  -2.084  29.797  0.00  0.00     0.000 C 
ATOM     12  C   UNL d   1      59.002  -0.726  29.477  0.00  0.00     0.000 C 
ENDROOT
BRANCH   4  13
ATOM     13  C   UNL d   1      56.046  -0.012  32.896  0.00  0.00     0.019 A 
ATOM     14  C   UNL d   1      55.904   0.668  33.332  0.00  0.00     0.002 A 
ATOM     15  C   UNL d   1      55.320   0.682  33.951  0.00  0.00     0.000 A 
ATOM     16  C   UNL d   1      54.908  -0.024  34.086  0.00  0.00     0.000 A 
ATOM     17  C   UNL d   1      55.050  -0.704  33.650  0.00  0.00     0.000 A 
ATOM     18  C   UNL d   1      55.611  -0.707  33.060  0.00  0.00     0.002 A 
ENDBRANCH   4  13
TORSDOF 1
ENDMDL
