MODEL 1
REMARK VINA RESULT:      -7.3      0.000      0.000
REMARK  4 active torsions:
REMARK  status: ('A' for Active; 'I' for Inactive)
REMARK    1  A    between atoms: C_7  and  C_3 
REMARK    2  A    between atoms: S_6  and  C_4 
REMARK    3  A    between atoms: C_9  and  S_6 
REMARK    4  A    between atoms: C_10  and  C_9 
ROOT
ATOM      1  O   UNL d   1      51.019  33.428  53.038  0.00  0.00    -0.263 OA
ATOM      2  N   UNL d   1      51.562  34.568  52.555  0.00  0.00    -0.120 NA
ATOM      3  C   UNL d   1      50.838  34.170  52.709  0.00  0.00     0.205 A 
ATOM      4  C   UNL d   1      51.846  33.361  53.090  0.00  0.00     0.236 A 
ATOM      5  N   UNL d   1      52.170  34.061  52.793  0.00  0.00    -0.114 NA
ENDROOT
BRANCH   4   6
ATOM      6  S   UNL d   1      52.262  32.717  53.383  0.00  0.00    -0.041 SA
BRANCH   6   7
ATOM      7  C   UNL d   1      52.702  32.223  52.869  0.00  0.00     0.039 C 
BRANCH   7   8
ATOM      8  C   UNL d   1      52.965  31.505  53.121  0.00  0.00     0.007 A 
ATOM      9  C   UNL d   1      52.586  30.811  52.879  0.00  0.00     0.001 A 
ATOM     10  C   UNL d   1      52.845  30.068  53.129  0.00  0.00     0.000 A 
ATOM     11  C   UNL d   1      53.498  30.018  53.633  0.00  0.00     0.000 A 
ATOM     12  C   UNL d   1      53.884  30.726  53.880  0.00  0.00     0.000 A 
ATOM     13  C   UNL d   1      53.619  31.452  53.626  0.00  0.00     0.001 A 
ENDBRANCH   7   8
ENDBRANCH   6   7
ENDBRANCH   4   6
BRANCH   3  14
ATOM     14  C   UNL d   1      50.107  34.503  52.544  0.00  0.00     0.046 A 
ATOM     15  C   UNL d   1      49.763  34.382  51.799  0.00  0.00     0.024 A 
ATOM     16  C   UNL d   1      49.031  34.714  51.629  0.00  0.00     0.099 A 
ATOM     17  N   UNL d   1      48.637  35.171  52.207  0.00  0.00    -0.242 NA
ATOM     18  C   UNL d   1      48.992  35.273  52.921  0.00  0.00     0.099 A 
ATOM     19  C   UNL d   1      49.726  34.946  53.103  0.00  0.00     0.024 A 
ENDBRANCH   3  14
TORSDOF 4
ENDMDL
MODEL 2
REMARK VINA RESULT:      -7.3      1.372      1.953
REMARK  4 active torsions:
REMARK  status: ('A' for Active; 'I' for Inactive)
REMARK    1  A    between atoms: C_7  and  C_3 
REMARK    2  A    between atoms: S_6  and  C_4 
REMARK    3  A    between atoms: C_9  and  S_6 
REMARK    4  A    between atoms: C_10  and  C_9 
ROOT
ATOM      1  O   UNL d   1      50.665  34.129  53.121  0.00  0.00    -0.263 OA
ATOM      2  N   UNL d   1      50.871  34.324  51.799  0.00  0.00    -0.120 NA
ATOM      3  C   UNL d   1      50.314  34.409  52.422  0.00  0.00     0.205 A 
ATOM      4  C   UNL d   1      51.435  33.870  52.940  0.00  0.00     0.236 A 
ATOM      5  N   UNL d   1      51.552  33.992  52.132  0.00  0.00    -0.114 NA
ENDROOT
BRANCH   4   6
ATOM      6  S   UNL d   1      51.975  33.552  53.469  0.00  0.00    -0.041 SA
BRANCH   6   7
ATOM      7  C   UNL d   1      52.789  33.739  53.414  0.00  0.00     0.039 C 
BRANCH   7   8
ATOM      8  C   UNL d   1      53.305  33.489  53.979  0.00  0.00     0.007 A 
ATOM      9  C   UNL d   1      53.624  34.023  54.524  0.00  0.00     0.001 A 
ATOM     10  C   UNL d   1      54.153  33.779  55.108  0.00  0.00     0.000 A 
ATOM     11  C   UNL d   1      54.369  32.983  55.149  0.00  0.00     0.000 A 
ATOM     12  C   UNL d   1      54.044  32.438  54.594  0.00  0.00     0.000 A 
ATOM     13  C   UNL d   1      53.523  32.690  54.022  0.00  0.00     0.001 A 
ENDBRANCH   7   8
ENDBRANCH   6   7
ENDBRANCH   4   6
BRANCH   3  14
ATOM     14  C   UNL d   1      49.565  34.722  52.304  0.00  0.00     0.046 A 
ATOM     15  C   UNL d   1      49.213  35.175  52.903  0.00  0.00     0.024 A 
ATOM     16  C   UNL d   1      48.464  35.490  52.789  0.00  0.00     0.099 A 
ATOM     17  N   UNL d   1      48.059  35.354  52.070  0.00  0.00    -0.242 NA
ATOM     18  C   UNL d   1      48.423  34.912  51.505  0.00  0.00     0.099 A 
ATOM     19  C   UNL d   1      49.174  34.590  51.608  0.00  0.00     0.024 A 
ENDBRANCH   3  14
TORSDOF 4
ENDMDL
MODEL 3
REMARK VINA RESULT:      -7.2      1.948      4.766
REMARK  4 active torsions:
REMARK  status: ('A' for Active; 'I' for Inactive)
REMARK    1  A    between atoms: C_7  and  C_3 
REMARK    2  A    between atoms: S_6  and  C_4 
REMARK    3  A    between atoms: C_9  and  S_6 
REMARK    4  A    between atoms: C_10  and  C_9 
ROOT
ATOM      1  O   UNL d   1      52.499  33.464  53.700  0.00  0.00    -0.263 OA
ATOM      2  N   UNL d   1      53.194  32.439  53.156  0.00  0.00    -0.120 NA
ATOM      3  C   UNL d   1      53.218  33.048  53.735  0.00  0.00     0.205 A 
ATOM      4  C   UNL d   1      52.029  33.120  53.106  0.00  0.00     0.236 A 
ATOM      5  N   UNL d   1      52.460  32.496  52.780  0.00  0.00    -0.114 NA
ENDROOT
BRANCH   4   6
ATOM      6  S   UNL d   1      51.275  33.360  52.887  0.00  0.00    -0.041 SA
BRANCH   6   7
ATOM      7  C   UNL d   1      51.149  34.114  52.546  0.00  0.00     0.039 C 
BRANCH   7   8
ATOM      8  C   UNL d   1      50.405  34.356  52.354  0.00  0.00     0.007 A 
ATOM      9  C   UNL d   1      50.109  34.236  51.590  0.00  0.00     0.001 A 
ATOM     10  C   UNL d   1      49.349  34.479  51.381  0.00  0.00     0.000 A 
ATOM     11  C   UNL d   1      48.873  34.849  51.946  0.00  0.00     0.000 A 
ATOM     12  C   UNL d   1      49.175  34.971  52.724  0.00  0.00     0.000 A 
ATOM     13  C   UNL d   1      49.926  34.727  52.919  0.00  0.00     0.001 A 
ENDBRANCH   7   8
ENDBRANCH   6   7
ENDBRANCH   4   6
BRANCH   3  14
ATOM     14  C   UNL d   1      53.865  33.166  54.224  0.00  0.00     0.046 A 
ATOM     15  C   UNL d   1      53.784  33.060  55.042  0.00  0.00     0.024 A 
ATOM     16  C   UNL d   1      54.430  33.178  55.535  0.00  0.00     0.099 A 
ATOM     17  N   UNL d   1      55.166  33.403  55.211  0.00  0.00    -0.242 NA
ATOM     18  C   UNL d   1      55.219  33.499  54.415  0.00  0.00     0.099 A 
ATOM     19  C   UNL d   1      54.578  33.385  53.909  0.00  0.00     0.024 A 
ENDBRANCH   3  14
TORSDOF 4
ENDMDL
MODEL 4
REMARK VINA RESULT:      -7.0      2.566      5.151
REMARK  4 active torsions:
REMARK  status: ('A' for Active; 'I' for Inactive)
REMARK    1  A    between atoms: C_7  and  C_3 
REMARK    2  A    between atoms: S_6  and  C_4 
REMARK    3  A    between atoms: C_9  and  S_6 
REMARK    4  A    between atoms: C_10  and  C_9 
ROOT
ATOM      1  O   UNL d   1      53.293  31.238  53.872  0.00  0.00    -0.263 OA
ATOM      2  N   UNL d   1      52.822  30.464  52.868  0.00  0.00    -0.120 NA
ATOM      3  C   UNL d   1      53.136  30.453  53.648  0.00  0.00     0.205 A 
ATOM      4  C   UNL d   1      53.081  31.736  53.240  0.00  0.00     0.236 A 
ATOM      5  N   UNL d   1      52.795  31.256  52.632  0.00  0.00    -0.114 NA
ENDROOT
BRANCH   4   6
ATOM      6  S   UNL d   1      53.146  32.554  53.227  0.00  0.00    -0.041 SA
BRANCH   6   7
ATOM      7  C   UNL d   1      52.569  33.034  53.599  0.00  0.00     0.039 C 
BRANCH   7   8
ATOM      8  C   UNL d   1      52.722  33.810  53.751  0.00  0.00     0.007 A 
ATOM      9  C   UNL d   1      53.069  34.037  54.467  0.00  0.00     0.001 A 
ATOM     10  C   UNL d   1      53.231  34.829  54.635  0.00  0.00     0.000 A 
ATOM     11  C   UNL d   1      53.041  35.407  54.076  0.00  0.00     0.000 A 
ATOM     12  C   UNL d   1      52.686  35.175  53.347  0.00  0.00     0.000 A 
ATOM     13  C   UNL d   1      52.532  34.392  53.192  0.00  0.00     0.001 A 
ENDBRANCH   7   8
ENDBRANCH   6   7
ENDBRANCH   4   6
BRANCH   3  14
ATOM     14  C   UNL d   1      53.246  29.759  54.069  0.00  0.00     0.046 A 
ATOM     15  C   UNL d   1      53.007  29.720  54.862  0.00  0.00     0.024 A 
ATOM     16  C   UNL d   1      53.116  29.026  55.288  0.00  0.00     0.099 A 
ATOM     17  N   UNL d   1      53.467  28.362  54.920  0.00  0.00    -0.242 NA
ATOM     18  C   UNL d   1      53.691  28.426  54.151  0.00  0.00     0.099 A 
ATOM     19  C   UNL d   1      53.587  29.117  53.713  0.00  0.00     0.024 A 
ENDBRANCH   3  14
TORSDOF 4
ENDMDL
MODEL 5
REMARK VINA RESULT:      -6.9      2.254      2.829
REMARK  4 active torsions:
REMARK  status: ('A' for Active; 'I' for Inactive)
REMARK    1  A    between atoms: C_7  and  C_3 
REMARK    2  A    between atoms: S_6  and  C_4 
REMARK    3  A    between atoms: C_9  and  S_6 
REMARK    4  A    between atoms: C_10  and  C_9 
ROOT
ATOM      1  O   UNL d   1      52.771  32.863  53.772  0.00  0.00    -0.263 OA
ATOM      2  N   UNL d   1      52.625  33.691  52.713  0.00  0.00    -0.120 NA
ATOM      3  C   UNL d   1      52.788  33.660  53.537  0.00  0.00     0.205 A 
ATOM      4  C   UNL d   1      52.599  32.398  53.104  0.00  0.00     0.236 A 
ATOM      5  N   UNL d   1      52.512  32.911  52.462  0.00  0.00    -0.114 NA
ENDROOT
BRANCH   4   6
ATOM      6  S   UNL d   1      52.531  31.581  53.089  0.00  0.00    -0.041 SA
BRANCH   6   7
ATOM      7  C   UNL d   1      53.211  31.094  53.128  0.00  0.00     0.039 C 
BRANCH   7   8
ATOM      8  C   UNL d   1      53.161  30.347  53.426  0.00  0.00     0.007 A 
ATOM      9  C   UNL d   1      53.621  30.123  54.076  0.00  0.00     0.001 A 
ATOM     10  C   UNL d   1      53.580  29.362  54.392  0.00  0.00     0.000 A 
ATOM     11  C   UNL d   1      53.067  28.811  54.050  0.00  0.00     0.000 A 
ATOM     12  C   UNL d   1      52.598  29.040  53.387  0.00  0.00     0.000 A 
ATOM     13  C   UNL d   1      52.648  29.794  53.085  0.00  0.00     0.001 A 
ENDBRANCH   7   8
ENDBRANCH   6   7
ENDBRANCH   4   6
BRANCH   3  14
ATOM     14  C   UNL d   1      52.932  34.333  53.983  0.00  0.00     0.046 A 
ATOM     15  C   UNL d   1      53.329  34.264  54.707  0.00  0.00     0.024 A 
ATOM     16  C   UNL d   1      53.476  34.936  55.157  0.00  0.00     0.099 A 
ATOM     17  N   UNL d   1      53.224  35.684  54.883  0.00  0.00    -0.242 NA
ATOM     18  C   UNL d   1      52.841  35.723  54.178  0.00  0.00     0.099 A 
ATOM     19  C   UNL d   1      52.688  35.057  53.717  0.00  0.00     0.024 A 
ENDBRANCH   3  14
TORSDOF 4
ENDMDL
MODEL 6
REMARK VINA RESULT:      -5.7      9.962     10.730
REMARK  4 active torsions:
REMARK  status: ('A' for Active; 'I' for Inactive)
REMARK    1  A    between atoms: C_7  and  C_3 
REMARK    2  A    between atoms: S_6  and  C_4 
REMARK    3  A    between atoms: C_9  and  S_6 
REMARK    4  A    between atoms: C_10  and  C_9 
ROOT
ATOM      1  O   UNL d   1      44.666  29.263  59.089  0.00  0.00    -0.263 OA
ATOM      2  N   UNL d   1      45.131  30.047  58.090  0.00  0.00    -0.120 NA
ATOM      3  C   UNL d   1      44.951  29.255  58.309  0.00  0.00     0.205 A 
ATOM      4  C   UNL d   1      44.666  30.050  59.359  0.00  0.00     0.236 A 
ATOM      5  N   UNL d   1      44.951  30.522  58.743  0.00  0.00    -0.114 NA
ENDROOT
BRANCH   4   6
ATOM      6  S   UNL d   1      44.427  30.308  60.100  0.00  0.00    -0.041 SA
BRANCH   6   7
ATOM      7  C   UNL d   1      44.990  30.558  60.668  0.00  0.00     0.039 C 
BRANCH   7   8
ATOM      8  C   UNL d   1      44.772  30.678  61.433  0.00  0.00     0.007 A 
ATOM      9  C   UNL d   1      44.763  30.049  61.971  0.00  0.00     0.001 A 
ATOM     10  C   UNL d   1      44.542  30.158  62.758  0.00  0.00     0.000 A 
ATOM     11  C   UNL d   1      44.323  30.912  63.015  0.00  0.00     0.000 A 
ATOM     12  C   UNL d   1      44.331  31.553  62.467  0.00  0.00     0.000 A 
ATOM     13  C   UNL d   1      44.552  31.434  61.693  0.00  0.00     0.001 A 
ENDBRANCH   7   8
ENDBRANCH   6   7
ENDBRANCH   4   6
BRANCH   3  14
ATOM     14  C   UNL d   1      45.057  28.622  57.799  0.00  0.00     0.046 A 
ATOM     15  C   UNL d   1      45.420  27.931  58.077  0.00  0.00     0.024 A 
ATOM     16  C   UNL d   1      45.529  27.294  57.570  0.00  0.00     0.099 A 
ATOM     17  N   UNL d   1      45.274  27.346  56.776  0.00  0.00    -0.242 NA
ATOM     18  C   UNL d   1      44.925  28.027  56.531  0.00  0.00     0.099 A 
ATOM     19  C   UNL d   1      44.810  28.673  57.030  0.00  0.00     0.024 A 
ENDBRANCH   3  14
TORSDOF 4
ENDMDL
MODEL 7
REMARK VINA RESULT:      -5.6     10.101     10.584
REMARK  4 active torsions:
REMARK  status: ('A' for Active; 'I' for Inactive)
REMARK    1  A    between atoms: C_7  and  C_3 
REMARK    2  A    between atoms: S_6  and  C_4 
REMARK    3  A    between atoms: C_9  and  S_6 
REMARK    4  A    between atoms: C_10  and  C_9 
ROOT
ATOM      1  O   UNL d   1      44.502  29.796  60.249  0.00  0.00    -0.263 OA
ATOM      2  N   UNL d   1      44.997  31.051  60.159  0.00  0.00    -0.120 NA
ATOM      3  C   UNL d   1      44.672  30.483  60.686  0.00  0.00     0.205 A 
ATOM      4  C   UNL d   1      44.718  29.931  59.457  0.00  0.00     0.236 A 
ATOM      5  N   UNL d   1      45.018  30.699  59.411  0.00  0.00    -0.114 NA
ENDROOT
BRANCH   4   6
ATOM      6  S   UNL d   1      44.644  29.398  58.838  0.00  0.00    -0.041 SA
BRANCH   6   7
ATOM      7  C   UNL d   1      45.321  29.048  58.493  0.00  0.00     0.039 C 
BRANCH   7   8
ATOM      8  C   UNL d   1      45.244  28.458  57.950  0.00  0.00     0.007 A 
ATOM      9  C   UNL d   1      45.474  27.685  58.134  0.00  0.00     0.001 A 
ATOM     10  C   UNL d   1      45.400  27.072  57.587  0.00  0.00     0.000 A 
ATOM     11  C   UNL d   1      45.088  27.233  56.839  0.00  0.00     0.000 A 
ATOM     12  C   UNL d   1      44.853  28.021  56.652  0.00  0.00     0.000 A 
ATOM     13  C   UNL d   1      44.931  28.618  57.199  0.00  0.00     0.001 A 
ENDBRANCH   7   8
ENDBRANCH   6   7
ENDBRANCH   4   6
BRANCH   3  14
ATOM     14  C   UNL d   1      44.564  30.633  61.484  0.00  0.00     0.046 A 
ATOM     15  C   UNL d   1      44.423  31.410  61.738  0.00  0.00     0.024 A 
ATOM     16  C   UNL d   1      44.314  31.565  62.537  0.00  0.00     0.099 A 
ATOM     17  N   UNL d   1      44.345  30.940  63.091  0.00  0.00    -0.242 NA
ATOM     18  C   UNL d   1      44.482  30.196  62.819  0.00  0.00     0.099 A 
ATOM     19  C   UNL d   1      44.593  30.028  62.020  0.00  0.00     0.024 A 
ENDBRANCH   3  14
TORSDOF 4
ENDMDL
MODEL 8
REMARK VINA RESULT:      -5.4     10.412     11.229
REMARK  4 active torsions:
REMARK  status: ('A' for Active; 'I' for Inactive)
REMARK    1  A    between atoms: C_7  and  C_3 
REMARK    2  A    between atoms: S_6  and  C_4 
REMARK    3  A    between atoms: C_9  and  S_6 
REMARK    4  A    between atoms: C_10  and  C_9 
ROOT
ATOM      1  O   UNL d   1      44.403  29.751  60.760  0.00  0.00    -0.263 OA
ATOM      2  N   UNL d   1      44.987  30.648  61.586  0.00  0.00    -0.120 NA
ATOM      3  C   UNL d   1      44.656  29.876  61.541  0.00  0.00     0.205 A 
ATOM      4  C   UNL d   1      44.572  30.435  60.318  0.00  0.00     0.236 A 
ATOM      5  N   UNL d   1      44.928  30.977  60.829  0.00  0.00    -0.114 NA
ENDROOT
BRANCH   4   6
ATOM      6  S   UNL d   1      44.414  30.547  59.521  0.00  0.00    -0.041 SA
BRANCH   6   7
ATOM      7  C   UNL d   1      45.038  30.633  58.969  0.00  0.00     0.039 C 
BRANCH   7   8
ATOM      8  C   UNL d   1      44.880  30.694  58.181  0.00  0.00     0.007 A 
ATOM      9  C   UNL d   1      44.881  30.022  57.700  0.00  0.00     0.001 A 
ATOM     10  C   UNL d   1      44.722  30.070  56.892  0.00  0.00     0.000 A 
ATOM     11  C   UNL d   1      44.557  30.808  56.557  0.00  0.00     0.000 A 
ATOM     12  C   UNL d   1      44.556  31.493  57.048  0.00  0.00     0.000 A 
ATOM     13  C   UNL d   1      44.715  31.433  57.844  0.00  0.00     0.001 A 
ENDBRANCH   7   8
ENDBRANCH   6   7
ENDBRANCH   4   6
BRANCH   3  14
ATOM     14  C   UNL d   1      44.615  29.376  62.189  0.00  0.00     0.046 A 
ATOM     15  C   UNL d   1      44.358  29.674  62.919  0.00  0.00     0.024 A 
ATOM     16  C   UNL d   1      44.316  29.176  63.571  0.00  0.00     0.099 A 
ATOM     17  N   UNL d   1      44.532  28.372  63.496  0.00  0.00    -0.242 NA
ATOM     18  C   UNL d   1      44.778  28.109  62.778  0.00  0.00     0.099 A 
ATOM     19  C   UNL d   1      44.824  28.598  62.117  0.00  0.00     0.024 A 
ENDBRANCH   3  14
TORSDOF 4
ENDMDL
MODEL 9
REMARK VINA RESULT:      -4.8      9.678     10.706
REMARK  4 active torsions:
REMARK  status: ('A' for Active; 'I' for Inactive)
REMARK    1  A    between atoms: C_7  and  C_3 
REMARK    2  A    between atoms: S_6  and  C_4 
REMARK    3  A    between atoms: C_9  and  S_6 
REMARK    4  A    between atoms: C_10  and  C_9 
ROOT
ATOM      1  O   UNL d   1      44.518  27.345  57.638  0.00  0.00    -0.263 OA
ATOM      2  N   UNL d   1      45.462  26.596  58.251  0.00  0.00    -0.120 NA
ATOM      3  C   UNL d   1      44.876  26.595  57.648  0.00  0.00     0.205 A 
ATOM      4  C   UNL d   1      44.874  27.811  58.227  0.00  0.00     0.236 A 
ATOM      5  N   UNL d   1      45.449  27.347  58.596  0.00  0.00    -0.114 NA
ENDROOT
BRANCH   4   6
ATOM      6  S   UNL d   1      44.687  28.590  58.406  0.00  0.00    -0.041 SA
BRANCH   6   7
ATOM      7  C   UNL d   1      45.186  29.217  58.163  0.00  0.00     0.039 C 
BRANCH   7   8
ATOM      8  C   UNL d   1      44.959  29.982  58.267  0.00  0.00     0.007 A 
ATOM      9  C   UNL d   1      44.770  30.456  57.615  0.00  0.00     0.001 A 
ATOM     10  C   UNL d   1      44.536  31.242  57.707  0.00  0.00     0.000 A 
ATOM     11  C   UNL d   1      44.491  31.562  58.468  0.00  0.00     0.000 A 
ATOM     12  C   UNL d   1      44.684  31.080  59.132  0.00  0.00     0.000 A 
ATOM     13  C   UNL d   1      44.913  30.306  59.028  0.00  0.00     0.001 A 
ENDBRANCH   7   8
ENDBRANCH   6   7
ENDBRANCH   4   6
BRANCH   3  14
ATOM     14  C   UNL d   1      44.726  25.939  57.180  0.00  0.00     0.046 A 
ATOM     15  C   UNL d   1      44.469  25.235  57.535  0.00  0.00     0.024 A 
ATOM     16  C   UNL d   1      44.317  24.575  57.070  0.00  0.00     0.099 A 
ATOM     17  N   UNL d   1      44.422  24.616  56.241  0.00  0.00    -0.242 NA
ATOM     18  C   UNL d   1      44.672  25.310  55.922  0.00  0.00     0.099 A 
ATOM     19  C   UNL d   1      44.828  25.979  56.378  0.00  0.00     0.024 A 
ENDBRANCH   3  14
TORSDOF 4
ENDMDL
