MODEL 1
REMARK VINA RESULT:      79.6      0.000      0.000
REMARK  3 active torsions:
REMARK  status: ('A' for Active; 'I' for Inactive)
REMARK    1  A    between atoms: C_2  and  C_1 
REMARK       I    between atoms: N_3  and  C_2 
REMARK    2  A    between atoms: C_21  and  N_4 
REMARK    3  A    between atoms: C_20  and  C_21 
ROOT
ATOM      1  C   UNL d   1      58.893  49.454  51.194  0.00  0.00     0.255 C 
ATOM      2  N   UNL d   1      59.615  49.104  50.929  0.00  0.00    -0.271 N 
ATOM      3  N   UNL d   1      61.036  48.422  50.428  0.00  0.00    -0.300 N 
ATOM      4  O   UNL d   1      58.841  49.707  51.914  0.00  0.00    -0.270 OA
ATOM      5  C   UNL d   1      60.256  49.035  51.439  0.00  0.00     0.102 A 
ATOM      6  C   UNL d   1      59.683  48.829  50.156  0.00  0.00     0.102 A 
ATOM      7  C   UNL d   1      60.397  48.483  49.894  0.00  0.00     0.100 A 
ATOM      8  C   UNL d   1      60.966  48.701  51.208  0.00  0.00     0.100 A 
ENDROOT
BRANCH   1   9
ATOM      9  C   UNL d   1      58.270  49.518  50.688  0.00  0.00     0.137 A 
ATOM     10  C   UNL d   1      57.648  49.571  51.214  0.00  0.00     0.033 A 
ATOM     11  C   UNL d   1      56.852  49.648  51.017  0.00  0.00     0.046 A 
ATOM     12  C   UNL d   1      56.348  49.701  50.408  0.00  0.00    -0.015 A 
ATOM     13  C   UNL d   1      56.628  49.676  50.286  0.00  0.00    -0.022 A 
ATOM     14  C   UNL d   1      56.743  49.671  49.772  0.00  0.00     0.027 A 
ATOM     15  C   UNL d   1      57.495  49.597  50.053  0.00  0.00    -0.117 A 
ATOM     16  C   UNL d   1      56.619  49.691  48.957  0.00  0.00     0.006 A 
ATOM     17  C   UNL d   1      57.398  49.611  49.622  0.00  0.00    -0.006 A 
ATOM     18  C   UNL d   1      58.145  49.538  49.886  0.00  0.00    -0.007 A 
ENDBRANCH   1   9
BRANCH   3  19
ATOM     19  C   UNL d   1      61.678  48.149  50.311  0.00  0.00     0.080 C 
BRANCH  19  20
ATOM     20  C   UNL d   1      61.751  47.364  50.092  0.00  0.00     0.020 A 
ATOM     21  C   UNL d   1      61.362  46.765  50.511  0.00  0.00     0.028 A 
ATOM     22  C   UNL d   1      61.434  45.968  50.291  0.00  0.00     0.119 A 
ATOM     23  O   UNL d   1      61.108  45.303  50.618  0.00  0.00    -0.300 OA
ATOM     24  C   UNL d   1      61.902  45.751  49.639  0.00  0.00     0.119 A 
ATOM     25  C   UNL d   1      61.363  44.623  50.175  0.00  0.00     0.304 A 
ATOM     26  O   UNL d   1      61.852  44.928  49.575  0.00  0.00    -0.300 OA
ATOM     27  C   UNL d   1      62.298  46.354  49.209  0.00  0.00     0.026 A 
ATOM     28  C   UNL d   1      62.223  47.147  49.433  0.00  0.00     0.004 A 
ENDBRANCH  19  20
ENDBRANCH   3  19
TORSDOF 3
ENDMDL
