MODEL 1
REMARK VINA RESULT:      -8.8      0.000      0.000
REMARK  4 active torsions:
REMARK  status: ('A' for Active; 'I' for Inactive)
REMARK    1  A    between atoms: C_2  and  C_1 
REMARK    2  A    between atoms: O_6  and  C_3 
REMARK    3  A    between atoms: C_4  and  C_9 
REMARK    4  A    between atoms: C_9  and  O_6 
ROOT
ATOM      1  C   UNL d   1      53.714  32.197  53.834  0.00  0.00     0.000 A 
ATOM      2  C   UNL d   1      53.064  32.499  53.409  0.00  0.00     0.091 A 
ATOM      3  C   UNL d   1      53.839  31.364  53.848  0.00  0.00     0.004 A 
ATOM      4  C   UNL d   1      52.550  31.994  53.008  0.00  0.00     0.024 A 
ATOM      5  C   UNL d   1      53.319  30.866  53.443  0.00  0.00     0.035 A 
ATOM      6  C   UNL d   1      52.681  31.181  53.028  0.00  0.00     0.009 A 
ATOM      7 BR   UNL d   1      53.443  30.032  53.456  0.00  0.00    -0.049 Br
ENDROOT
BRANCH   2   8
ATOM      8  O   UNL d   1      52.944  33.325  53.399  0.00  0.00    -0.320 OA
BRANCH   8   9
ATOM      9  C   UNL d   1      52.269  33.657  53.018  0.00  0.00     0.246 C 
BRANCH   9  10
ATOM     10  C   UNL d   1      52.161  34.475  52.995  0.00  0.00     0.217 C 
ATOM     11  O   UNL d   1      51.681  34.837  53.571  0.00  0.00    -0.645 OA
ATOM     12  O   UNL d   1      52.533  34.910  52.402  0.00  0.00    -0.645 OA
ENDBRANCH   9  10
ENDBRANCH   8   9
ENDBRANCH   2   8
BRANCH   1  13
ATOM     13  C   UNL d   1      54.226  32.701  54.233  0.00  0.00     0.021 C 
ATOM     14  C   UNL d   1      54.741  33.208  54.636  0.00  0.00     0.004 C 
ATOM     15  C   UNL d   1      54.684  32.781  53.545  0.00  0.00     0.004 C 
ATOM     16  C   UNL d   1      53.775  32.622  54.910  0.00  0.00     0.004 C 
ENDBRANCH   1  13
TORSDOF 4
ENDMDL
MODEL 2
REMARK VINA RESULT:      -8.0      1.875      2.947
REMARK  4 active torsions:
REMARK  status: ('A' for Active; 'I' for Inactive)
REMARK    1  A    between atoms: C_2  and  C_1 
REMARK    2  A    between atoms: O_6  and  C_3 
REMARK    3  A    between atoms: C_4  and  C_9 
REMARK    4  A    between atoms: C_9  and  O_6 
ROOT
ATOM      1  C   UNL d   1      53.372  32.986  53.728  0.00  0.00     0.000 A 
ATOM      2  C   UNL d   1      53.015  32.296  53.429  0.00  0.00     0.091 A 
ATOM      3  C   UNL d   1      53.017  33.732  53.564  0.00  0.00     0.004 A 
ATOM      4  C   UNL d   1      52.325  32.339  52.979  0.00  0.00     0.024 A 
ATOM      5  C   UNL d   1      52.327  33.766  53.113  0.00  0.00     0.035 A 
ATOM      6  C   UNL d   1      51.985  33.073  52.824  0.00  0.00     0.009 A 
ATOM      7 BR   UNL d   1      51.970  34.512  52.948  0.00  0.00    -0.049 Br
ENDROOT
BRANCH   2   8
ATOM      8  O   UNL d   1      53.370  31.559  53.594  0.00  0.00    -0.320 OA
BRANCH   8   9
ATOM      9  C   UNL d   1      53.056  30.847  53.271  0.00  0.00     0.246 C 
BRANCH   9  10
ATOM     10  C   UNL d   1      53.334  30.113  53.524  0.00  0.00     0.217 C 
ATOM     11  O   UNL d   1      52.874  29.665  54.053  0.00  0.00    -0.645 OA
ATOM     12  O   UNL d   1      54.062  29.844  53.246  0.00  0.00    -0.645 OA
ENDBRANCH   9  10
ENDBRANCH   8   9
ENDBRANCH   2   8
BRANCH   1  13
ATOM     13  C   UNL d   1      54.060  32.943  54.176  0.00  0.00     0.021 C 
ATOM     14  C   UNL d   1      54.752  32.900  54.627  0.00  0.00     0.004 C 
ATOM     15  C   UNL d   1      53.605  32.912  54.871  0.00  0.00     0.004 C 
ATOM     16  C   UNL d   1      54.507  32.973  53.493  0.00  0.00     0.004 C 
ENDBRANCH   1  13
TORSDOF 4
ENDMDL
MODEL 3
REMARK VINA RESULT:      -7.7      1.336      2.455
REMARK  4 active torsions:
REMARK  status: ('A' for Active; 'I' for Inactive)
REMARK    1  A    between atoms: C_2  and  C_1 
REMARK    2  A    between atoms: O_6  and  C_3 
REMARK    3  A    between atoms: C_4  and  C_9 
REMARK    4  A    between atoms: C_9  and  O_6 
ROOT
ATOM      1  C   UNL d   1      52.175  33.184  53.151  0.00  0.00     0.000 A 
ATOM      2  C   UNL d   1      52.768  33.486  53.653  0.00  0.00     0.091 A 
ATOM      3  C   UNL d   1      52.232  32.386  52.889  0.00  0.00     0.004 A 
ATOM      4  C   UNL d   1      53.401  33.013  53.889  0.00  0.00     0.024 A 
ATOM      5  C   UNL d   1      52.868  31.920  53.131  0.00  0.00     0.035 A 
ATOM      6  C   UNL d   1      53.447  32.233  53.627  0.00  0.00     0.009 A 
ATOM      7 BR   UNL d   1      52.926  31.120  52.869  0.00  0.00    -0.049 Br
ENDROOT
BRANCH   2   8
ATOM      8  O   UNL d   1      52.708  34.277  53.910  0.00  0.00    -0.320 OA
BRANCH   8   9
ATOM      9  C   UNL d   1      53.333  34.637  54.346  0.00  0.00     0.246 C 
BRANCH   9  10
ATOM     10  C   UNL d   1      53.212  35.350  54.742  0.00  0.00     0.217 C 
ATOM     11  O   UNL d   1      53.271  36.065  54.319  0.00  0.00    -0.645 OA
ATOM     12  O   UNL d   1      53.034  35.335  55.547  0.00  0.00    -0.645 OA
ENDBRANCH   9  10
ENDBRANCH   8   9
ENDBRANCH   2   8
BRANCH   1  13
ATOM     13  C   UNL d   1      51.544  33.656  52.916  0.00  0.00     0.021 C 
ATOM     14  C   UNL d   1      50.910  34.130  52.678  0.00  0.00     0.004 C 
ATOM     15  C   UNL d   1      51.090  33.363  53.547  0.00  0.00     0.004 C 
ATOM     16  C   UNL d   1      51.991  33.944  52.295  0.00  0.00     0.004 C 
ENDBRANCH   1  13
TORSDOF 4
ENDMDL
MODEL 4
REMARK VINA RESULT:      -7.7      1.539      2.281
REMARK  4 active torsions:
REMARK  status: ('A' for Active; 'I' for Inactive)
REMARK    1  A    between atoms: C_2  and  C_1 
REMARK    2  A    between atoms: O_6  and  C_3 
REMARK    3  A    between atoms: C_4  and  C_9 
REMARK    4  A    between atoms: C_9  and  O_6 
ROOT
ATOM      1  C   UNL d   1      53.776  32.801  54.138  0.00  0.00     0.000 A 
ATOM      2  C   UNL d   1      53.184  33.385  54.087  0.00  0.00     0.091 A 
ATOM      3  C   UNL d   1      54.462  32.956  54.601  0.00  0.00     0.004 A 
ATOM      4  C   UNL d   1      53.267  34.105  54.482  0.00  0.00     0.024 A 
ATOM      5  C   UNL d   1      54.536  33.678  54.992  0.00  0.00     0.035 A 
ATOM      6  C   UNL d   1      53.942  34.247  54.932  0.00  0.00     0.009 A 
ATOM      7 BR   UNL d   1      55.223  33.835  55.456  0.00  0.00    -0.049 Br
ENDROOT
BRANCH   2   8
ATOM      8  O   UNL d   1      52.507  33.227  53.627  0.00  0.00    -0.320 OA
BRANCH   8   9
ATOM      9  C   UNL d   1      51.898  33.804  53.545  0.00  0.00     0.246 C 
BRANCH   9  10
ATOM     10  C   UNL d   1      51.250  33.663  53.054  0.00  0.00     0.217 C 
ATOM     11  O   UNL d   1      50.603  33.230  53.350  0.00  0.00    -0.645 OA
ATOM     12  O   UNL d   1      51.261  33.955  52.283  0.00  0.00    -0.645 OA
ENDBRANCH   9  10
ENDBRANCH   8   9
ENDBRANCH   2   8
BRANCH   1  13
ATOM     13  C   UNL d   1      53.693  32.084  53.744  0.00  0.00     0.021 C 
ATOM     14  C   UNL d   1      53.610  31.363  53.348  0.00  0.00     0.004 C 
ATOM     15  C   UNL d   1      53.348  31.751  54.423  0.00  0.00     0.004 C 
ATOM     16  C   UNL d   1      54.032  32.411  53.077  0.00  0.00     0.004 C 
ENDBRANCH   1  13
TORSDOF 4
ENDMDL
MODEL 5
REMARK VINA RESULT:      -7.6      1.931      3.454
REMARK  4 active torsions:
REMARK  status: ('A' for Active; 'I' for Inactive)
REMARK    1  A    between atoms: C_2  and  C_1 
REMARK    2  A    between atoms: O_6  and  C_3 
REMARK    3  A    between atoms: C_4  and  C_9 
REMARK    4  A    between atoms: C_9  and  O_6 
ROOT
ATOM      1  C   UNL d   1      52.169  34.064  53.250  0.00  0.00     0.000 A 
ATOM      2  C   UNL d   1      52.604  33.382  53.452  0.00  0.00     0.091 A 
ATOM      3  C   UNL d   1      52.351  34.791  53.635  0.00  0.00     0.004 A 
ATOM      4  C   UNL d   1      53.201  33.416  54.020  0.00  0.00     0.024 A 
ATOM      5  C   UNL d   1      52.950  34.815  54.202  0.00  0.00     0.035 A 
ATOM      6  C   UNL d   1      53.371  34.132  54.391  0.00  0.00     0.009 A 
ATOM      7 BR   UNL d   1      53.133  35.542  54.588  0.00  0.00    -0.049 Br
ENDROOT
BRANCH   2   8
ATOM      8  O   UNL d   1      52.421  32.665  53.068  0.00  0.00    -0.320 OA
BRANCH   8   9
ATOM      9  C   UNL d   1      52.852  31.962  53.241  0.00  0.00     0.246 C 
BRANCH   9  10
ATOM     10  C   UNL d   1      52.647  31.246  52.885  0.00  0.00     0.217 C 
ATOM     11  O   UNL d   1      52.112  30.739  53.270  0.00  0.00    -0.645 OA
ATOM     12  O   UNL d   1      52.980  31.055  52.155  0.00  0.00    -0.645 OA
ENDBRANCH   9  10
ENDBRANCH   8   9
ENDBRANCH   2   8
BRANCH   1  13
ATOM     13  C   UNL d   1      51.574  34.031  52.684  0.00  0.00     0.021 C 
ATOM     14  C   UNL d   1      50.975  33.997  52.115  0.00  0.00     0.004 C 
ATOM     15  C   UNL d   1      51.027  33.818  53.273  0.00  0.00     0.004 C 
ATOM     16  C   UNL d   1      52.112  34.239  52.106  0.00  0.00     0.004 C 
ENDBRANCH   1  13
TORSDOF 4
ENDMDL
MODEL 6
REMARK VINA RESULT:      -7.1      1.801      2.973
REMARK  4 active torsions:
REMARK  status: ('A' for Active; 'I' for Inactive)
REMARK    1  A    between atoms: C_2  and  C_1 
REMARK    2  A    between atoms: O_6  and  C_3 
REMARK    3  A    between atoms: C_4  and  C_9 
REMARK    4  A    between atoms: C_9  and  O_6 
ROOT
ATOM      1  C   UNL d   1      52.842  32.985  53.334  0.00  0.00     0.000 A 
ATOM      2  C   UNL d   1      53.162  33.560  53.845  0.00  0.00     0.091 A 
ATOM      3  C   UNL d   1      52.199  33.198  52.833  0.00  0.00     0.004 A 
ATOM      4  C   UNL d   1      52.857  34.326  53.861  0.00  0.00     0.024 A 
ATOM      5  C   UNL d   1      51.900  33.967  52.857  0.00  0.00     0.035 A 
ATOM      6  C   UNL d   1      52.228  34.525  53.368  0.00  0.00     0.009 A 
ATOM      7 BR   UNL d   1      51.256  34.182  52.356  0.00  0.00    -0.049 Br
ENDROOT
BRANCH   2   8
ATOM      8  O   UNL d   1      53.799  33.344  54.338  0.00  0.00    -0.320 OA
BRANCH   8   9
ATOM      9  C   UNL d   1      54.109  33.888  54.903  0.00  0.00     0.246 C 
BRANCH   9  10
ATOM     10  C   UNL d   1      54.781  33.698  55.343  0.00  0.00     0.217 C 
ATOM     11  O   UNL d   1      55.521  33.995  55.104  0.00  0.00    -0.645 OA
ATOM     12  O   UNL d   1      54.700  33.217  56.007  0.00  0.00    -0.645 OA
ENDBRANCH   9  10
ENDBRANCH   8   9
ENDBRANCH   2   8
BRANCH   1  13
ATOM     13  C   UNL d   1      53.146  32.221  53.318  0.00  0.00     0.021 C 
ATOM     14  C   UNL d   1      53.453  31.453  53.301  0.00  0.00     0.004 C 
ATOM     15  C   UNL d   1      52.540  31.969  53.827  0.00  0.00     0.004 C 
ATOM     16  C   UNL d   1      53.742  32.470  52.817  0.00  0.00     0.004 C 
ENDBRANCH   1  13
TORSDOF 4
ENDMDL
MODEL 7
REMARK VINA RESULT:      -6.9      1.830      3.161
REMARK  4 active torsions:
REMARK  status: ('A' for Active; 'I' for Inactive)
REMARK    1  A    between atoms: C_2  and  C_1 
REMARK    2  A    between atoms: O_6  and  C_3 
REMARK    3  A    between atoms: C_4  and  C_9 
REMARK    4  A    between atoms: C_9  and  O_6 
ROOT
ATOM      1  C   UNL d   1      52.141  34.383  53.450  0.00  0.00     0.000 A 
ATOM      2  C   UNL d   1      52.274  33.562  53.496  0.00  0.00     0.091 A 
ATOM      3  C   UNL d   1      51.402  34.659  53.153  0.00  0.00     0.004 A 
ATOM      4  C   UNL d   1      51.695  33.026  53.257  0.00  0.00     0.024 A 
ATOM      5  C   UNL d   1      50.828  34.115  52.916  0.00  0.00     0.035 A 
ATOM      6  C   UNL d   1      50.976  33.306  52.968  0.00  0.00     0.009 A 
ATOM      7 BR   UNL d   1      50.088  34.390  52.619  0.00  0.00    -0.049 Br
ENDROOT
BRANCH   2   8
ATOM      8  O   UNL d   1      53.007  33.294  53.791  0.00  0.00    -0.320 OA
BRANCH   8   9
ATOM      9  C   UNL d   1      53.185  32.470  53.817  0.00  0.00     0.246 C 
BRANCH   9  10
ATOM     10  C   UNL d   1      53.902  32.206  54.129  0.00  0.00     0.217 C 
ATOM     11  O   UNL d   1      53.967  32.083  54.949  0.00  0.00    -0.645 OA
ATOM     12  O   UNL d   1      54.534  32.073  53.617  0.00  0.00    -0.645 OA
ENDBRANCH   9  10
ENDBRANCH   8   9
ENDBRANCH   2   8
BRANCH   1  13
ATOM     13  C   UNL d   1      52.718  34.917  53.688  0.00  0.00     0.021 C 
ATOM     14  C   UNL d   1      53.299  35.454  53.928  0.00  0.00     0.004 C 
ATOM     15  C   UNL d   1      52.406  34.910  54.459  0.00  0.00     0.004 C 
ATOM     16  C   UNL d   1      53.025  34.924  52.931  0.00  0.00     0.004 C 
ENDBRANCH   1  13
TORSDOF 4
ENDMDL
MODEL 8
REMARK VINA RESULT:      -6.8      1.420      2.050
REMARK  4 active torsions:
REMARK  status: ('A' for Active; 'I' for Inactive)
REMARK    1  A    between atoms: C_2  and  C_1 
REMARK    2  A    between atoms: O_6  and  C_3 
REMARK    3  A    between atoms: C_4  and  C_9 
REMARK    4  A    between atoms: C_9  and  O_6 
ROOT
ATOM      1  C   UNL d   1      52.880  33.851  53.655  0.00  0.00     0.000 A 
ATOM      2  C   UNL d   1      52.178  33.571  53.305  0.00  0.00     0.091 A 
ATOM      3  C   UNL d   1      53.528  33.321  53.749  0.00  0.00     0.004 A 
ATOM      4  C   UNL d   1      52.115  32.788  53.053  0.00  0.00     0.024 A 
ATOM      5  C   UNL d   1      53.456  32.539  53.494  0.00  0.00     0.035 A 
ATOM      6  C   UNL d   1      52.755  32.277  53.149  0.00  0.00     0.009 A 
ATOM      7 BR   UNL d   1      54.104  32.007  53.587  0.00  0.00    -0.049 Br
ENDROOT
BRANCH   2   8
ATOM      8  O   UNL d   1      51.539  34.100  53.214  0.00  0.00    -0.320 OA
BRANCH   8   9
ATOM      9  C   UNL d   1      50.782  33.822  52.969  0.00  0.00     0.246 C 
BRANCH   9  10
ATOM     10  C   UNL d   1      50.218  34.348  52.675  0.00  0.00     0.217 C 
ATOM     11  O   UNL d   1      49.746  34.777  53.209  0.00  0.00    -0.645 OA
ATOM     12  O   UNL d   1      50.139  34.433  51.858  0.00  0.00    -0.645 OA
ENDBRANCH   9  10
ENDBRANCH   8   9
ENDBRANCH   2   8
BRANCH   1  13
ATOM     13  C   UNL d   1      52.942  34.632  53.905  0.00  0.00     0.021 C 
ATOM     14  C   UNL d   1      53.005  35.417  54.157  0.00  0.00     0.004 C 
ATOM     15  C   UNL d   1      52.743  34.400  54.678  0.00  0.00     0.004 C 
ATOM     16  C   UNL d   1      53.138  34.860  53.146  0.00  0.00     0.004 C 
ENDBRANCH   1  13
TORSDOF 4
ENDMDL
