MODEL 1
REMARK VINA RESULT:      79.8      0.000      0.000
REMARK  7 active torsions:
REMARK  status: ('A' for Active; 'I' for Inactive)
REMARK    1  A    between atoms: N_3  and  C_2 
REMARK       I    between atoms: C_6  and  N_3 
REMARK    2  A    between atoms: C_11  and  C_4 
REMARK    3  A    between atoms: C_5  and  C_6 
REMARK    4  A    between atoms: C_15  and  C_11 
REMARK    5  A    between atoms: C_18  and  C_12 
REMARK    6  A    between atoms: O_17  and  C_18 
REMARK    7  A    between atoms: C_19  and  O_17 
ROOT
ATOM      1  C   UNL d   1      60.865  47.959  50.655  0.00  0.00     0.158 A 
ATOM      2  O   UNL d   1      60.321  48.469  50.308  0.00  0.00    -0.300 OA
ATOM      3  C   UNL d   1      61.040  48.247  51.406  0.00  0.00     0.032 A 
ATOM      4  C   UNL d   1      60.154  49.078  50.842  0.00  0.00     0.125 A 
ATOM      5  C   UNL d   1      60.601  48.938  51.522  0.00  0.00     0.029 A 
ENDROOT
BRANCH   1   6
ATOM      6  C   UNL d   1      61.183  47.275  50.311  0.00  0.00     0.304 C 
ATOM      7  N   UNL d   1      60.990  46.532  50.618  0.00  0.00    -0.180 NA
ATOM      8  O   UNL d   1      61.692  47.339  49.665  0.00  0.00    -0.263 OA
BRANCH   7   9
ATOM      9  C   UNL d   1      61.304  45.853  50.279  0.00  0.00     0.216 A 
ATOM     10  N   UNL d   1      61.142  45.062  50.509  0.00  0.00    -0.200 NA
ATOM     11  C   UNL d   1      61.567  44.573  50.029  0.00  0.00     0.175 A 
ATOM     12  N   UNL d   1      61.998  45.034  49.497  0.00  0.00    -0.187 NA
ATOM     13  S   UNL d   1      61.834  45.825  49.653  0.00  0.00     0.054 SA
BRANCH  11  14
ATOM     14  C   UNL d   1      61.578  43.750  50.057  0.00  0.00     0.082 C 
BRANCH  14  15
ATOM     15  C   UNL d   1      62.053  43.369  50.622  0.00  0.00     0.199 C 
ATOM     16  O   UNL d   1      62.814  43.123  50.429  0.00  0.00    -0.286 OA
ATOM     17  C   UNL d   1      61.758  43.236  51.386  0.00  0.00     0.045 C 
ENDBRANCH  14  15
ENDBRANCH  11  14
ENDBRANCH   7   9
ENDBRANCH   1   6
BRANCH   4  18
ATOM     18  C   UNL d   1      59.640  49.701  50.713  0.00  0.00     0.147 C 
BRANCH  18  19
ATOM     19  O   UNL d   1      58.901  49.708  51.094  0.00  0.00    -0.303 OA
BRANCH  19  20
ATOM     20  C   UNL d   1      58.209  49.665  50.652  0.00  0.00     0.100 A 
ATOM     21  C   UNL d   1      58.248  49.704  49.829  0.00  0.00     0.025 A 
ATOM     22  C   UNL d   1      57.559  49.661  49.388  0.00  0.00     0.002 A 
ATOM     23  C   UNL d   1      56.822  49.577  49.768  0.00  0.00     0.000 A 
ATOM     24  C   UNL d   1      56.791  49.538  50.592  0.00  0.00     0.002 A 
ATOM     25  C   UNL d   1      56.129  49.534  49.318  0.00  0.00     0.000 C 
ATOM     26  C   UNL d   1      57.483  49.582  51.034  0.00  0.00     0.025 A 
ENDBRANCH  19  20
ENDBRANCH  18  19
ENDBRANCH   4  18
TORSDOF 7
ENDMDL
MODEL 2
REMARK VINA RESULT:      80.4      1.839      5.727
REMARK  7 active torsions:
REMARK  status: ('A' for Active; 'I' for Inactive)
REMARK    1  A    between atoms: N_3  and  C_2 
REMARK       I    between atoms: C_6  and  N_3 
REMARK    2  A    between atoms: C_11  and  C_4 
REMARK    3  A    between atoms: C_5  and  C_6 
REMARK    4  A    between atoms: C_15  and  C_11 
REMARK    5  A    between atoms: C_18  and  C_12 
REMARK    6  A    between atoms: O_17  and  C_18 
REMARK    7  A    between atoms: C_19  and  O_17 
ROOT
ATOM      1  C   UNL d   1      61.203  48.312  50.283  0.00  0.00     0.158 A 
ATOM      2  O   UNL d   1      61.212  47.512  50.091  0.00  0.00    -0.300 OA
ATOM      3  C   UNL d   1      61.927  48.635  50.060  0.00  0.00     0.032 A 
ATOM      4  C   UNL d   1      61.941  47.333  49.747  0.00  0.00     0.125 A 
ATOM      5  C   UNL d   1      62.383  48.030  49.728  0.00  0.00     0.029 A 
ENDROOT
BRANCH   1   6
ATOM      6  C   UNL d   1      60.578  48.724  50.639  0.00  0.00     0.304 C 
ATOM      7  N   UNL d   1      59.798  48.556  50.422  0.00  0.00    -0.180 NA
ATOM      8  O   UNL d   1      60.736  49.300  51.208  0.00  0.00    -0.263 OA
BRANCH   7   9
ATOM      9  C   UNL d   1      59.177  48.963  50.774  0.00  0.00     0.216 A 
ATOM     10  N   UNL d   1      58.394  49.026  50.477  0.00  0.00    -0.200 NA
ATOM     11  C   UNL d   1      57.969  49.474  50.997  0.00  0.00     0.175 A 
ATOM     12  N   UNL d   1      58.463  49.698  51.618  0.00  0.00    -0.187 NA
ATOM     13  S   UNL d   1      59.210  49.382  51.479  0.00  0.00     0.054 SA
BRANCH  11  14
ATOM     14  C   UNL d   1      57.174  49.679  50.927  0.00  0.00     0.082 C 
BRANCH  14  15
ATOM     15  C   UNL d   1      56.744  49.420  50.265  0.00  0.00     0.199 C 
ATOM     16  O   UNL d   1      56.034  49.019  50.360  0.00  0.00    -0.286 OA
ATOM     17  C   UNL d   1      57.036  49.569  49.503  0.00  0.00     0.045 C 
ENDBRANCH  14  15
ENDBRANCH  11  14
ENDBRANCH   7   9
ENDBRANCH   1   6
BRANCH   4  18
ATOM     18  C   UNL d   1      62.176  46.597  49.476  0.00  0.00     0.147 C 
BRANCH  18  19
ATOM     19  O   UNL d   1      61.606  46.006  49.349  0.00  0.00    -0.303 OA
BRANCH  19  20
ATOM     20  C   UNL d   1      61.760  45.229  49.575  0.00  0.00     0.100 A 
ATOM     21  C   UNL d   1      61.400  44.924  50.251  0.00  0.00     0.025 A 
ATOM     22  C   UNL d   1      61.552  44.151  50.477  0.00  0.00     0.002 A 
ATOM     23  C   UNL d   1      62.067  43.676  50.025  0.00  0.00     0.000 A 
ATOM     24  C   UNL d   1      62.423  43.989  49.350  0.00  0.00     0.002 A 
ATOM     25  C   UNL d   1      62.218  42.896  50.258  0.00  0.00     0.000 C 
ATOM     26  C   UNL d   1      62.270  44.765  49.124  0.00  0.00     0.025 A 
ENDBRANCH  19  20
ENDBRANCH  18  19
ENDBRANCH   4  18
TORSDOF 7
ENDMDL
MODEL 3
REMARK VINA RESULT:      81.7      2.433      6.163
REMARK  7 active torsions:
REMARK  status: ('A' for Active; 'I' for Inactive)
REMARK    1  A    between atoms: N_3  and  C_2 
REMARK       I    between atoms: C_6  and  N_3 
REMARK    2  A    between atoms: C_11  and  C_4 
REMARK    3  A    between atoms: C_5  and  C_6 
REMARK    4  A    between atoms: C_15  and  C_11 
REMARK    5  A    between atoms: C_18  and  C_12 
REMARK    6  A    between atoms: O_17  and  C_18 
REMARK    7  A    between atoms: C_19  and  O_17 
ROOT
ATOM      1  C   UNL d   1      61.845  46.272  49.754  0.00  0.00     0.158 A 
ATOM      2  O   UNL d   1      61.634  45.486  49.875  0.00  0.00    -0.300 OA
ATOM      3  C   UNL d   1      62.379  46.299  49.128  0.00  0.00     0.032 A 
ATOM      4  C   UNL d   1      62.036  45.019  49.324  0.00  0.00     0.125 A 
ATOM      5  C   UNL d   1      62.497  45.526  48.862  0.00  0.00     0.029 A 
ENDROOT
BRANCH   1   6
ATOM      6  C   UNL d   1      61.570  46.924  50.186  0.00  0.00     0.304 C 
ATOM      7  N   UNL d   1      61.366  47.622  49.793  0.00  0.00    -0.180 NA
ATOM      8  O   UNL d   1      61.502  46.875  51.007  0.00  0.00    -0.263 OA
BRANCH   7   9
ATOM      9  C   UNL d   1      61.093  48.269  50.219  0.00  0.00     0.216 A 
ATOM     10  N   UNL d   1      61.447  48.594  50.908  0.00  0.00    -0.200 NA
ATOM     11  C   UNL d   1      60.998  49.222  51.142  0.00  0.00     0.175 A 
ATOM     12  N   UNL d   1      60.366  49.305  50.618  0.00  0.00    -0.187 NA
ATOM     13  S   UNL d   1      60.426  48.715  50.048  0.00  0.00     0.054 SA
BRANCH  11  14
ATOM     14  C   UNL d   1      61.138  49.706  51.794  0.00  0.00     0.082 C 
BRANCH  14  15
ATOM     15  C   UNL d   1      60.605  49.694  52.431  0.00  0.00     0.199 C 
ATOM     16  O   UNL d   1      59.794  49.696  52.296  0.00  0.00    -0.286 OA
ATOM     17  C   UNL d   1      60.894  49.680  53.208  0.00  0.00     0.045 C 
ENDBRANCH  14  15
ENDBRANCH  11  14
ENDBRANCH   7   9
ENDBRANCH   1   6
BRANCH   4  18
ATOM     18  C   UNL d   1      61.982  44.206  49.254  0.00  0.00     0.147 C 
BRANCH  18  19
ATOM     19  O   UNL d   1      62.648  43.736  49.416  0.00  0.00    -0.303 OA
BRANCH  19  20
ATOM     20  C   UNL d   1      62.650  43.235  50.070  0.00  0.00     0.100 A 
ATOM     21  C   UNL d   1      63.154  42.582  50.080  0.00  0.00     0.025 A 
ATOM     22  C   UNL d   1      63.157  42.083  50.730  0.00  0.00     0.002 A 
ATOM     23  C   UNL d   1      62.653  42.235  51.377  0.00  0.00     0.000 A 
ATOM     24  C   UNL d   1      62.152  42.890  51.360  0.00  0.00     0.002 A 
ATOM     25  C   UNL d   1      62.660  41.728  52.032  0.00  0.00     0.000 C 
ATOM     26  C   UNL d   1      62.150  43.390  50.706  0.00  0.00     0.025 A 
ENDBRANCH  19  20
ENDBRANCH  18  19
ENDBRANCH   4  18
TORSDOF 7
ENDMDL
