MODEL 1
REMARK VINA RESULT:      52.1      0.000      0.000
REMARK  5 active torsions:
REMARK  status: ('A' for Active; 'I' for Inactive)
REMARK    1  A    between atoms: N_10  and  C_2 
REMARK    2  A    between atoms: C_7  and  C_5 
REMARK    3  A    between atoms: C_6  and  C_9 
REMARK    4  A    between atoms: C_8  and  C_7 
REMARK       I    between atoms: N_11  and  C_8 
REMARK    5  A    between atoms: C_14  and  N_11 
ROOT
ATOM      1  C   UNL d   1      59.321  49.215  50.552  0.00  0.00     0.280 C 
ATOM      2  N   UNL d   1      60.094  49.121  50.284  0.00  0.00    -0.208 NA
ATOM      3  O   UNL d   1      59.071  48.814  51.227  0.00  0.00    -0.265 OA
ENDROOT
BRANCH   1   4
ATOM      4  C   UNL d   1      58.799  49.708  50.150  0.00  0.00     0.074 C 
BRANCH   4   5
ATOM      5  C   UNL d   1      57.985  49.595  50.216  0.00  0.00     0.093 A 
ATOM      6  C   UNL d   1      57.480  49.364  49.607  0.00  0.00     0.272 A 
ATOM      7  N   UNL d   1      56.722  49.320  49.914  0.00  0.00    -0.251 N 
ATOM      8  O   UNL d   1      57.699  49.206  48.828  0.00  0.00    -0.266 OA
ATOM      9  C   UNL d   1      56.756  49.524  50.713  0.00  0.00     0.182 A 
ATOM     10  C   UNL d   1      56.038  49.109  49.498  0.00  0.00     0.104 C 
ATOM     11  S   UNL d   1      57.538  49.693  50.897  0.00  0.00    -0.045 SA
BRANCH   9  12
ATOM     12  N   UNL d   1      56.118  49.552  51.235  0.00  0.00    -0.219 NA
ATOM     13  C   UNL d   1      56.227  49.367  52.033  0.00  0.00     0.122 C 
ENDBRANCH   9  12
ENDBRANCH   4   5
ENDBRANCH   1   4
BRANCH   2  14
ATOM     14  C   UNL d   1      60.613  48.625  50.692  0.00  0.00     0.085 A 
ATOM     15  C   UNL d   1      60.736  47.847  50.439  0.00  0.00     0.023 A 
ATOM     16  C   UNL d   1      61.257  47.356  50.852  0.00  0.00     0.073 A 
ATOM     17  C   UNL d   1      61.652  47.641  51.513  0.00  0.00     0.004 A 
ATOM     18  C   UNL d   1      61.529  48.420  51.766  0.00  0.00     0.002 A 
ATOM     19  C   UNL d   1      61.011  48.911  51.359  0.00  0.00     0.019 A 
BRANCH  16  20
ATOM     20  C   UNL d   1      61.380  46.579  50.598  0.00  0.00     0.419 C 
ATOM     21  F   UNL d   1      61.491  45.873  50.368  0.00  0.00    -0.166 F 
ATOM     22  F   UNL d   1      61.987  46.264  50.075  0.00  0.00    -0.166 F 
ATOM     23  F   UNL d   1      60.932  45.865  50.788  0.00  0.00    -0.166 F 
ENDBRANCH  16  20
ENDBRANCH   2  14
TORSDOF 5
ENDMDL
