MODEL 1
REMARK VINA RESULT:      -8.2      0.000      0.000
REMARK  5 active torsions:
REMARK  status: ('A' for Active; 'I' for Inactive)
REMARK    1  A    between atoms: N_2  and  S_1 
REMARK    2  A    between atoms: C_3  and  S_1 
REMARK    3  A    between atoms: C_14  and  C_5 
REMARK    4  A    between atoms: O_15  and  C_8 
REMARK    5  A    between atoms: C_18  and  C_14 
ROOT
ATOM      1  C   UNL d   1      52.194  32.746  53.097  0.00  0.00     0.104 A 
ATOM      2  C   UNL d   1      52.869  33.018  53.486  0.00  0.00     0.015 A 
ATOM      3  C   UNL d   1      53.478  32.494  53.677  0.00  0.00     0.023 A 
ATOM      4  C   UNL d   1      53.413  31.695  53.480  0.00  0.00     0.094 A 
ATOM      5  C   UNL d   1      52.129  31.947  52.900  0.00  0.00     0.015 A 
ATOM      6  C   UNL d   1      52.738  31.422  53.092  0.00  0.00     0.025 A 
ENDROOT
BRANCH   1   7
ATOM      7  S   UNL d   1      51.586  33.270  52.906  0.00  0.00     0.272 S 
ATOM      8  O   UNL d   1      51.181  33.050  53.591  0.00  0.00    -0.200 OA
ATOM      9  O   UNL d   1      51.991  33.490  52.220  0.00  0.00    -0.200 OA
BRANCH   7  10
ATOM     10  N   UNL d   1      50.979  33.793  52.715  0.00  0.00    -0.225 N 
ATOM     11  C   UNL d   1      50.791  33.937  51.925  0.00  0.00     0.118 A 
ATOM     12  C   UNL d   1      50.182  34.463  51.734  0.00  0.00     0.142 A 
ATOM     13  O   UNL d   1      49.761  34.843  52.332  0.00  0.00    -0.300 OA
ATOM     14  C   UNL d   1      49.949  34.699  53.123  0.00  0.00     0.142 A 
ATOM     15  C   UNL d   1      50.559  34.174  53.314  0.00  0.00     0.118 A 
ENDBRANCH   7  10
ENDBRANCH   1   7
BRANCH   3  16
ATOM     16  C   UNL d   1      54.152  32.766  54.066  0.00  0.00     0.002 C 
ATOM     17  C   UNL d   1      54.843  32.906  53.637  0.00  0.00     0.000 C 
BRANCH  16  18
ATOM     18  C   UNL d   1      54.136  32.898  54.881  0.00  0.00     0.000 C 
ATOM     19  C   UNL d   1      54.709  33.377  55.234  0.00  0.00     0.000 C 
ENDBRANCH  16  18
ENDBRANCH   3  16
BRANCH   4  20
ATOM     20  O   UNL d   1      54.021  31.170  53.672  0.00  0.00    -0.328 OA
ATOM     21  C   UNL d   1      53.927  30.361  53.541  0.00  0.00     0.181 C 
ENDBRANCH   4  20
TORSDOF 5
ENDMDL
MODEL 2
REMARK VINA RESULT:      -7.9      1.583      3.900
REMARK  5 active torsions:
REMARK  status: ('A' for Active; 'I' for Inactive)
REMARK    1  A    between atoms: N_2  and  S_1 
REMARK    2  A    between atoms: C_3  and  S_1 
REMARK    3  A    between atoms: C_14  and  C_5 
REMARK    4  A    between atoms: O_15  and  C_8 
REMARK    5  A    between atoms: C_18  and  C_14 
ROOT
ATOM      1  C   UNL d   1      52.911  32.570  53.412  0.00  0.00     0.104 A 
ATOM      2  C   UNL d   1      52.264  32.937  53.054  0.00  0.00     0.015 A 
ATOM      3  C   UNL d   1      52.203  33.761  53.053  0.00  0.00     0.023 A 
ATOM      4  C   UNL d   1      52.789  34.220  53.411  0.00  0.00     0.094 A 
ATOM      5  C   UNL d   1      53.496  33.029  53.770  0.00  0.00     0.015 A 
ATOM      6  C   UNL d   1      53.435  33.853  53.769  0.00  0.00     0.025 A 
ENDROOT
BRANCH   1   7
ATOM      7  S   UNL d   1      52.972  31.746  53.413  0.00  0.00     0.272 S 
ATOM      8  O   UNL d   1      53.039  31.751  52.590  0.00  0.00    -0.200 OA
ATOM      9  O   UNL d   1      52.905  31.742  54.237  0.00  0.00    -0.200 OA
BRANCH   7  10
ATOM     10  N   UNL d   1      53.033  30.926  53.414  0.00  0.00    -0.225 N 
ATOM     11  C   UNL d   1      52.511  30.472  52.964  0.00  0.00     0.118 A 
ATOM     12  C   UNL d   1      52.573  29.648  52.964  0.00  0.00     0.142 A 
ATOM     13  O   UNL d   1      53.155  29.277  53.415  0.00  0.00    -0.300 OA
ATOM     14  C   UNL d   1      53.677  29.731  53.866  0.00  0.00     0.142 A 
ATOM     15  C   UNL d   1      53.616  30.555  53.865  0.00  0.00     0.118 A 
ENDBRANCH   7  10
ENDBRANCH   1   7
BRANCH   3  16
ATOM     16  C   UNL d   1      51.558  34.128  52.695  0.00  0.00     0.002 C 
ATOM     17  C   UNL d   1      51.624  34.411  51.922  0.00  0.00     0.000 C 
BRANCH  16  18
ATOM     18  C   UNL d   1      50.847  34.212  53.108  0.00  0.00     0.000 C 
ATOM     19  C   UNL d   1      50.145  34.355  52.698  0.00  0.00     0.000 C 
ENDBRANCH  16  18
ENDBRANCH   3  16
BRANCH   4  20
ATOM     20  O   UNL d   1      52.728  35.043  53.410  0.00  0.00    -0.328 OA
ATOM     21  C   UNL d   1      53.213  35.495  53.901  0.00  0.00     0.181 C 
ENDBRANCH   4  20
TORSDOF 5
ENDMDL
MODEL 3
REMARK VINA RESULT:      -7.3      1.944      3.600
REMARK  5 active torsions:
REMARK  status: ('A' for Active; 'I' for Inactive)
REMARK    1  A    between atoms: N_2  and  S_1 
REMARK    2  A    between atoms: C_3  and  S_1 
REMARK    3  A    between atoms: C_14  and  C_5 
REMARK    4  A    between atoms: O_15  and  C_8 
REMARK    5  A    between atoms: C_18  and  C_14 
ROOT
ATOM      1  C   UNL d   1      53.115  32.132  53.545  0.00  0.00     0.104 A 
ATOM      2  C   UNL d   1      53.565  32.517  54.120  0.00  0.00     0.015 A 
ATOM      3  C   UNL d   1      53.609  33.342  54.127  0.00  0.00     0.023 A 
ATOM      4  C   UNL d   1      53.203  33.783  53.561  0.00  0.00     0.094 A 
ATOM      5  C   UNL d   1      52.709  32.574  52.978  0.00  0.00     0.015 A 
ATOM      6  C   UNL d   1      52.753  33.398  52.986  0.00  0.00     0.025 A 
ENDROOT
BRANCH   1   7
ATOM      7  S   UNL d   1      53.070  31.307  53.537  0.00  0.00     0.272 S 
ATOM      8  O   UNL d   1      53.882  31.265  53.390  0.00  0.00    -0.200 OA
ATOM      9  O   UNL d   1      52.258  31.349  53.684  0.00  0.00    -0.200 OA
BRANCH   7  10
ATOM     10  N   UNL d   1      53.026  30.485  53.529  0.00  0.00    -0.225 N 
ATOM     11  C   UNL d   1      53.326  30.049  54.162  0.00  0.00     0.118 A 
ATOM     12  C   UNL d   1      53.282  29.224  54.154  0.00  0.00     0.142 A 
ATOM     13  O   UNL d   1      52.938  28.835  53.513  0.00  0.00    -0.300 OA
ATOM     14  C   UNL d   1      52.638  29.270  52.880  0.00  0.00     0.142 A 
ATOM     15  C   UNL d   1      52.683  30.096  52.888  0.00  0.00     0.118 A 
ENDBRANCH   7  10
ENDBRANCH   1   7
BRANCH   3  16
ATOM     16  C   UNL d   1      54.059  33.727  54.701  0.00  0.00     0.002 C 
ATOM     17  C   UNL d   1      53.681  34.132  55.313  0.00  0.00     0.000 C 
BRANCH  16  18
ATOM     18  C   UNL d   1      54.884  33.706  54.664  0.00  0.00     0.000 C 
ATOM     19  C   UNL d   1      55.332  33.889  55.332  0.00  0.00     0.000 C 
ENDBRANCH  16  18
ENDBRANCH   3  16
BRANCH   4  20
ATOM     20  O   UNL d   1      53.247  34.608  53.569  0.00  0.00    -0.328 OA
ATOM     21  C   UNL d   1      52.767  35.053  53.066  0.00  0.00     0.181 C 
ENDBRANCH   4  20
TORSDOF 5
ENDMDL
