MODEL 1
REMARK VINA RESULT:      -7.4      0.000      0.000
REMARK  7 active torsions:
REMARK  status: ('A' for Active; 'I' for Inactive)
REMARK    1  A    between atoms: C_3  and  S_1 
REMARK    2  A    between atoms: N_4  and  S_1 
REMARK    3  A    between atoms: C_6  and  C_2 
REMARK       I    between atoms: N_13  and  C_6 
REMARK    4  A    between atoms: C_17  and  N_13 
REMARK    5  A    between atoms: C_18  and  C_17 
REMARK    6  A    between atoms: C_20  and  C_18 
REMARK    7  A    between atoms: C_19  and  C_20 
ROOT
ATOM      1  C   UNL d   1     -46.922  13.940  22.816  0.00  0.00     0.086 A 
ATOM      2  C   UNL d   1     -48.350  13.812  22.846  0.00  0.00     0.104 A 
ATOM      3  C   UNL d   1     -47.602  13.474  22.917  0.00  0.00     0.020 A 
ATOM      4  C   UNL d   1     -46.995  14.741  22.644  0.00  0.00     0.145 A 
ATOM      5  C   UNL d   1     -48.425  14.621  22.673  0.00  0.00     0.015 A 
ATOM      6  C   UNL d   1     -47.754  15.081  22.573  0.00  0.00     0.030 A 
ATOM      7  F   UNL d   1     -46.330  15.210  22.543  0.00  0.00    -0.204 F 
ENDROOT
BRANCH   2   8
ATOM      8  S   UNL d   1     -49.032  13.345  22.948  0.00  0.00     0.271 S 
ATOM      9  O   UNL d   1     -49.187  13.748  23.657  0.00  0.00    -0.200 OA
ATOM     10  O   UNL d   1     -48.867  12.951  22.242  0.00  0.00    -0.200 OA
BRANCH   8  11
ATOM     11  N   UNL d   1     -49.707  12.888  23.057  0.00  0.00    -0.229 N 
ATOM     12  C   UNL d   1     -50.390  13.063  22.633  0.00  0.00     0.092 A 
ATOM     13  C   UNL d   1     -51.064  12.602  22.745  0.00  0.00     0.020 A 
ATOM     14  C   UNL d   1     -51.059  11.976  23.273  0.00  0.00     0.003 A 
ATOM     15  C   UNL d   1     -50.371  11.803  23.697  0.00  0.00     0.020 A 
ATOM     16  C   UNL d   1     -49.692  12.263  23.587  0.00  0.00     0.092 A 
ENDBRANCH   8  11
ENDBRANCH   2   8
BRANCH   1  17
ATOM     17  C   UNL d   1     -46.173  13.596  22.888  0.00  0.00     0.281 C 
ATOM     18  O   UNL d   1     -45.875  13.431  23.643  0.00  0.00    -0.265 OA
ATOM     19  N   UNL d   1     -45.728  13.418  22.220  0.00  0.00    -0.206 NA
BRANCH  19  20
ATOM     20  C   UNL d   1     -44.980  13.074  22.291  0.00  0.00     0.102 C 
BRANCH  20  21
ATOM     21  C   UNL d   1     -44.523  12.931  21.624  0.00  0.00     0.021 C 
BRANCH  21  22
ATOM     22  C   UNL d   1     -43.772  12.609  21.706  0.00  0.00     0.002 C 
BRANCH  22  23
ATOM     23  C   UNL d   1     -43.203  12.730  21.118  0.00  0.00     0.000 C 
ATOM     24  C   UNL d   1     -42.538  13.188  21.274  0.00  0.00     0.000 C 
ENDBRANCH  22  23
ENDBRANCH  21  22
ENDBRANCH  20  21
ENDBRANCH  19  20
ENDBRANCH   1  17
TORSDOF 7
ENDMDL
MODEL 2
REMARK VINA RESULT:      -6.5      1.431      1.714
REMARK  7 active torsions:
REMARK  status: ('A' for Active; 'I' for Inactive)
REMARK    1  A    between atoms: C_3  and  S_1 
REMARK    2  A    between atoms: N_4  and  S_1 
REMARK    3  A    between atoms: C_6  and  C_2 
REMARK       I    between atoms: N_13  and  C_6 
REMARK    4  A    between atoms: C_17  and  N_13 
REMARK    5  A    between atoms: C_18  and  C_17 
REMARK    6  A    between atoms: C_20  and  C_18 
REMARK    7  A    between atoms: C_19  and  C_20 
ROOT
ATOM      1  C   UNL d   1     -46.612  13.455  22.611  0.00  0.00     0.086 A 
ATOM      2  C   UNL d   1     -48.032  13.625  22.708  0.00  0.00     0.104 A 
ATOM      3  C   UNL d   1     -47.372  13.131  22.685  0.00  0.00     0.020 A 
ATOM      4  C   UNL d   1     -46.516  14.271  22.560  0.00  0.00     0.145 A 
ATOM      5  C   UNL d   1     -47.936  14.448  22.657  0.00  0.00     0.015 A 
ATOM      6  C   UNL d   1     -47.185  14.768  22.583  0.00  0.00     0.030 A 
ATOM      7  F   UNL d   1     -45.768  14.600  22.486  0.00  0.00    -0.204 F 
ENDROOT
BRANCH   2   8
ATOM      8  S   UNL d   1     -48.795  13.300  22.783  0.00  0.00     0.271 S 
ATOM      9  O   UNL d   1     -49.012  13.680  22.078  0.00  0.00    -0.200 OA
ATOM     10  O   UNL d   1     -48.568  12.928  23.483  0.00  0.00    -0.200 OA
BRANCH   8  11
ATOM     11  N   UNL d   1     -49.551  12.984  22.849  0.00  0.00    -0.229 N 
ATOM     12  C   UNL d   1     -49.900  12.911  23.591  0.00  0.00     0.092 A 
ATOM     13  C   UNL d   1     -50.658  12.593  23.651  0.00  0.00     0.020 A 
ATOM     14  C   UNL d   1     -51.064  12.351  22.982  0.00  0.00     0.003 A 
ATOM     15  C   UNL d   1     -50.711  12.426  22.239  0.00  0.00     0.020 A 
ATOM     16  C   UNL d   1     -49.950  12.744  22.173  0.00  0.00     0.092 A 
ENDBRANCH   8  11
ENDBRANCH   2   8
BRANCH   1  17
ATOM     17  C   UNL d   1     -45.953  12.956  22.588  0.00  0.00     0.281 C 
ATOM     18  O   UNL d   1     -45.364  13.088  22.020  0.00  0.00    -0.265 OA
ATOM     19  N   UNL d   1     -45.879  12.334  23.121  0.00  0.00    -0.206 NA
BRANCH  19  20
ATOM     20  C   UNL d   1     -45.222  11.834  23.100  0.00  0.00     0.102 C 
BRANCH  20  21
ATOM     21  C   UNL d   1     -45.298  11.038  23.285  0.00  0.00     0.021 C 
BRANCH  21  22
ATOM     22  C   UNL d   1     -44.700  10.657  23.698  0.00  0.00     0.002 C 
BRANCH  22  23
ATOM     23  C   UNL d   1     -44.425   9.919  23.443  0.00  0.00     0.000 C 
ATOM     24  C   UNL d   1     -43.626   9.734  23.499  0.00  0.00     0.000 C 
ENDBRANCH  22  23
ENDBRANCH  21  22
ENDBRANCH  20  21
ENDBRANCH  19  20
ENDBRANCH   1  17
TORSDOF 7
ENDMDL
MODEL 3
REMARK VINA RESULT:      -5.8      7.850      9.440
REMARK  7 active torsions:
REMARK  status: ('A' for Active; 'I' for Inactive)
REMARK    1  A    between atoms: C_3  and  S_1 
REMARK    2  A    between atoms: N_4  and  S_1 
REMARK    3  A    between atoms: C_6  and  C_2 
REMARK       I    between atoms: N_13  and  C_6 
REMARK    4  A    between atoms: C_17  and  N_13 
REMARK    5  A    between atoms: C_18  and  C_17 
REMARK    6  A    between atoms: C_20  and  C_18 
REMARK    7  A    between atoms: C_19  and  C_20 
ROOT
ATOM      1  C   UNL d   1     -40.416  14.817  19.947  0.00  0.00     0.086 A 
ATOM      2  C   UNL d   1     -39.969  14.900  18.588  0.00  0.00     0.104 A 
ATOM      3  C   UNL d   1     -39.975  14.511  19.314  0.00  0.00     0.020 A 
ATOM      4  C   UNL d   1     -40.848  15.511  19.850  0.00  0.00     0.145 A 
ATOM      5  C   UNL d   1     -40.405  15.600  18.489  0.00  0.00     0.015 A 
ATOM      6  C   UNL d   1     -40.840  15.903  19.114  0.00  0.00     0.030 A 
ATOM      7  F   UNL d   1     -41.287  15.821  20.470  0.00  0.00    -0.204 F 
ENDROOT
BRANCH   2   8
ATOM      8  S   UNL d   1     -39.526  14.593  17.952  0.00  0.00     0.271 S 
ATOM      9  O   UNL d   1     -38.941  15.162  18.102  0.00  0.00    -0.200 OA
ATOM     10  O   UNL d   1     -40.115  14.033  17.813  0.00  0.00    -0.200 OA
BRANCH   8  11
ATOM     11  N   UNL d   1     -39.082  14.297  17.327  0.00  0.00    -0.229 N 
ATOM     12  C   UNL d   1     -38.484  13.751  17.474  0.00  0.00     0.092 A 
ATOM     13  C   UNL d   1     -38.042  13.456  16.844  0.00  0.00     0.020 A 
ATOM     14  C   UNL d   1     -38.192  13.702  16.078  0.00  0.00     0.003 A 
ATOM     15  C   UNL d   1     -38.793  14.251  15.934  0.00  0.00     0.020 A 
ATOM     16  C   UNL d   1     -39.240  14.549  16.563  0.00  0.00     0.092 A 
ENDBRANCH   8  11
ENDBRANCH   2   8
BRANCH   1  17
ATOM     17  C   UNL d   1     -40.419  14.423  20.675  0.00  0.00     0.281 C 
ATOM     18  O   UNL d   1     -41.124  14.083  20.948  0.00  0.00    -0.265 OA
ATOM     19  N   UNL d   1     -39.733  14.367  21.124  0.00  0.00    -0.206 NA
BRANCH  19  20
ATOM     20  C   UNL d   1     -39.734  13.973  21.850  0.00  0.00     0.102 C 
BRANCH  20  21
ATOM     21  C   UNL d   1     -39.031  13.842  22.254  0.00  0.00     0.021 C 
BRANCH  21  22
ATOM     22  C   UNL d   1     -39.051  13.536  23.016  0.00  0.00     0.002 C 
BRANCH  22  23
ATOM     23  C   UNL d   1     -38.364  13.529  23.477  0.00  0.00     0.000 C 
ATOM     24  C   UNL d   1     -38.021  12.815  23.697  0.00  0.00     0.000 C 
ENDBRANCH  22  23
ENDBRANCH  21  22
ENDBRANCH  20  21
ENDBRANCH  19  20
ENDBRANCH   1  17
TORSDOF 7
ENDMDL
MODEL 4
REMARK VINA RESULT:      -5.5      8.483      9.907
REMARK  7 active torsions:
REMARK  status: ('A' for Active; 'I' for Inactive)
REMARK    1  A    between atoms: C_3  and  S_1 
REMARK    2  A    between atoms: N_4  and  S_1 
REMARK    3  A    between atoms: C_6  and  C_2 
REMARK       I    between atoms: N_13  and  C_6 
REMARK    4  A    between atoms: C_17  and  N_13 
REMARK    5  A    between atoms: C_18  and  C_17 
REMARK    6  A    between atoms: C_20  and  C_18 
REMARK    7  A    between atoms: C_19  and  C_20 
ROOT
ATOM      1  C   UNL d   1     -39.936  15.213  19.406  0.00  0.00     0.086 A 
ATOM      2  C   UNL d   1     -39.781  14.978  18.000  0.00  0.00     0.104 A 
ATOM      3  C   UNL d   1     -39.470  14.971  18.763  0.00  0.00     0.020 A 
ATOM      4  C   UNL d   1     -40.711  15.459  19.282  0.00  0.00     0.145 A 
ATOM      5  C   UNL d   1     -40.564  15.227  17.873  0.00  0.00     0.015 A 
ATOM      6  C   UNL d   1     -41.024  15.465  18.509  0.00  0.00     0.030 A 
ATOM      7  F   UNL d   1     -41.180  15.699  19.910  0.00  0.00    -0.204 F 
ENDROOT
BRANCH   2   8
ATOM      8  S   UNL d   1     -39.313  14.736  17.355  0.00  0.00     0.271 S 
ATOM      9  O   UNL d   1     -39.672  13.988  17.392  0.00  0.00    -0.200 OA
ATOM     10  O   UNL d   1     -38.964  15.483  17.328  0.00  0.00    -0.200 OA
BRANCH   8  11
ATOM     11  N   UNL d   1     -38.856  14.488  16.718  0.00  0.00    -0.229 N 
ATOM     12  C   UNL d   1     -38.572  13.716  16.697  0.00  0.00     0.092 A 
ATOM     13  C   UNL d   1     -38.113  13.472  16.057  0.00  0.00     0.020 A 
ATOM     14  C   UNL d   1     -37.940  13.989  15.446  0.00  0.00     0.003 A 
ATOM     15  C   UNL d   1     -38.226  14.764  15.471  0.00  0.00     0.020 A 
ATOM     16  C   UNL d   1     -38.687  15.013  16.111  0.00  0.00     0.092 A 
ENDBRANCH   8  11
ENDBRANCH   2   8
BRANCH   1  17
ATOM     17  C   UNL d   1     -39.619  15.204  20.170  0.00  0.00     0.281 C 
ATOM     18  O   UNL d   1     -39.439  15.922  20.541  0.00  0.00    -0.265 OA
ATOM     19  N   UNL d   1     -39.482  14.493  20.559  0.00  0.00    -0.206 NA
BRANCH  19  20
ATOM     20  C   UNL d   1     -39.165  14.482  21.322  0.00  0.00     0.102 C 
BRANCH  20  21
ATOM     21  C   UNL d   1     -38.818  13.800  21.619  0.00  0.00     0.021 C 
BRANCH  21  22
ATOM     22  C   UNL d   1     -38.531  13.792  22.389  0.00  0.00     0.002 C 
BRANCH  22  23
ATOM     23  C   UNL d   1     -38.914  13.343  22.969  0.00  0.00     0.000 C 
ATOM     24  C   UNL d   1     -38.524  13.148  23.665  0.00  0.00     0.000 C 
ENDBRANCH  22  23
ENDBRANCH  21  22
ENDBRANCH  20  21
ENDBRANCH  19  20
ENDBRANCH   1  17
TORSDOF 7
ENDMDL
MODEL 5
REMARK VINA RESULT:      -5.2      5.109      8.799
REMARK  7 active torsions:
REMARK  status: ('A' for Active; 'I' for Inactive)
REMARK    1  A    between atoms: C_3  and  S_1 
REMARK    2  A    between atoms: N_4  and  S_1 
REMARK    3  A    between atoms: C_6  and  C_2 
REMARK       I    between atoms: N_13  and  C_6 
REMARK    4  A    between atoms: C_17  and  N_13 
REMARK    5  A    between atoms: C_18  and  C_17 
REMARK    6  A    between atoms: C_20  and  C_18 
REMARK    7  A    between atoms: C_19  and  C_20 
ROOT
ATOM      1  C   UNL d   1     -40.819  14.584  20.340  0.00  0.00     0.086 A 
ATOM      2  C   UNL d   1     -40.051  14.790  19.146  0.00  0.00     0.104 A 
ATOM      3  C   UNL d   1     -40.420  14.279  19.678  0.00  0.00     0.020 A 
ATOM      4  C   UNL d   1     -40.846  15.397  20.465  0.00  0.00     0.145 A 
ATOM      5  C   UNL d   1     -40.078  15.610  19.272  0.00  0.00     0.015 A 
ATOM      6  C   UNL d   1     -40.472  15.911  19.925  0.00  0.00     0.030 A 
ATOM      7  F   UNL d   1     -41.237  15.707  21.115  0.00  0.00    -0.204 F 
ENDROOT
BRANCH   2   8
ATOM      8  S   UNL d   1     -39.651  14.484  18.482  0.00  0.00     0.271 S 
ATOM      9  O   UNL d   1     -40.374  14.461  18.074  0.00  0.00    -0.200 OA
ATOM     10  O   UNL d   1     -38.940  14.512  18.899  0.00  0.00    -0.200 OA
BRANCH   8  11
ATOM     11  N   UNL d   1     -39.265  14.182  17.822  0.00  0.00    -0.229 N 
ATOM     12  C   UNL d   1     -39.263  14.611  17.120  0.00  0.00     0.092 A 
ATOM     13  C   UNL d   1     -38.875  14.304  16.461  0.00  0.00     0.020 A 
ATOM     14  C   UNL d   1     -38.494  13.580  16.500  0.00  0.00     0.003 A 
ATOM     15  C   UNL d   1     -38.498  13.152  17.207  0.00  0.00     0.020 A 
ATOM     16  C   UNL d   1     -38.886  13.456  17.871  0.00  0.00     0.092 A 
ENDBRANCH   8  11
ENDBRANCH   2   8
BRANCH   1  17
ATOM     17  C   UNL d   1     -41.188  14.068  20.871  0.00  0.00     0.281 C 
ATOM     18  O   UNL d   1     -40.778  13.822  21.547  0.00  0.00    -0.265 OA
ATOM     19  N   UNL d   1     -41.953  13.800  20.732  0.00  0.00    -0.206 NA
BRANCH  19  20
ATOM     20  C   UNL d   1     -42.323  13.285  21.261  0.00  0.00     0.102 C 
BRANCH  20  21
ATOM     21  C   UNL d   1     -43.065  12.978  21.093  0.00  0.00     0.021 C 
BRANCH  21  22
ATOM     22  C   UNL d   1     -43.591  12.825  21.706  0.00  0.00     0.002 C 
BRANCH  22  23
ATOM     23  C   UNL d   1     -44.403  12.935  21.592  0.00  0.00     0.000 C 
ATOM     24  C   UNL d   1     -44.936  12.714  22.177  0.00  0.00     0.000 C 
ENDBRANCH  22  23
ENDBRANCH  21  22
ENDBRANCH  20  21
ENDBRANCH  19  20
ENDBRANCH   1  17
TORSDOF 7
ENDMDL
MODEL 6
REMARK VINA RESULT:      -4.6      1.911      5.204
REMARK  7 active torsions:
REMARK  status: ('A' for Active; 'I' for Inactive)
REMARK    1  A    between atoms: C_3  and  S_1 
REMARK    2  A    between atoms: N_4  and  S_1 
REMARK    3  A    between atoms: C_6  and  C_2 
REMARK       I    between atoms: N_13  and  C_6 
REMARK    4  A    between atoms: C_17  and  N_13 
REMARK    5  A    between atoms: C_18  and  C_17 
REMARK    6  A    between atoms: C_20  and  C_18 
REMARK    7  A    between atoms: C_19  and  C_20 
ROOT
ATOM      1  C   UNL d   1     -47.435  12.819  22.814  0.00  0.00     0.086 A 
ATOM      2  C   UNL d   1     -46.060  12.415  22.753  0.00  0.00     0.104 A 
ATOM      3  C   UNL d   1     -46.672  12.906  22.499  0.00  0.00     0.020 A 
ATOM      4  C   UNL d   1     -47.582  12.241  23.381  0.00  0.00     0.145 A 
ATOM      5  C   UNL d   1     -46.208  11.831  23.325  0.00  0.00     0.015 A 
ATOM      6  C   UNL d   1     -46.961  11.745  23.636  0.00  0.00     0.030 A 
ATOM      7  F   UNL d   1     -48.332  12.147  23.698  0.00  0.00    -0.204 F 
ENDROOT
BRANCH   2   8
ATOM      8  S   UNL d   1     -45.295  12.502  22.436  0.00  0.00     0.271 S 
ATOM      9  O   UNL d   1     -45.298  11.696  22.239  0.00  0.00    -0.200 OA
ATOM     10  O   UNL d   1     -45.303  13.302  22.638  0.00  0.00    -0.200 OA
BRANCH   8  11
ATOM     11  N   UNL d   1     -44.539  12.579  22.122  0.00  0.00    -0.229 N 
ATOM     12  C   UNL d   1     -44.399  13.129  21.526  0.00  0.00     0.092 A 
ATOM     13  C   UNL d   1     -43.640  13.202  21.214  0.00  0.00     0.020 A 
ATOM     14  C   UNL d   1     -43.028  12.734  21.491  0.00  0.00     0.003 A 
ATOM     15  C   UNL d   1     -43.172  12.183  22.090  0.00  0.00     0.020 A 
ATOM     16  C   UNL d   1     -43.932  12.106  22.406  0.00  0.00     0.092 A 
ENDBRANCH   8  11
ENDBRANCH   2   8
BRANCH   1  17
ATOM     17  C   UNL d   1     -48.045  13.314  22.556  0.00  0.00     0.281 C 
ATOM     18  O   UNL d   1     -48.438  13.137  21.848  0.00  0.00    -0.265 OA
ATOM     19  N   UNL d   1     -48.261  13.975  22.994  0.00  0.00    -0.206 NA
BRANCH  19  20
ATOM     20  C   UNL d   1     -48.871  14.471  22.738  0.00  0.00     0.102 C 
BRANCH  20  21
ATOM     21  C   UNL d   1     -49.121  15.098  23.205  0.00  0.00     0.021 C 
BRANCH  21  22
ATOM     22  C   UNL d   1     -49.766  15.548  22.969  0.00  0.00     0.002 C 
BRANCH  22  23
ATOM     23  C   UNL d   1     -50.261  15.892  23.537  0.00  0.00     0.000 C 
ATOM     24  C   UNL d   1     -51.064  15.718  23.545  0.00  0.00     0.000 C 
ENDBRANCH  22  23
ENDBRANCH  21  22
ENDBRANCH  20  21
ENDBRANCH  19  20
ENDBRANCH   1  17
TORSDOF 7
ENDMDL
