MODEL 1
REMARK VINA RESULT:      59.5      0.000      0.000
REMARK  7 active torsions:
REMARK  status: ('A' for Active; 'I' for Inactive)
REMARK    1  A    between atoms: C_4  and  C_1 
REMARK    2  A    between atoms: C_6  and  C_3 
REMARK       I    between atoms: N_13  and  C_6 
REMARK    3  A    between atoms: O_18  and  C_8 
REMARK    4  A    between atoms: O_19  and  C_10 
REMARK    5  A    between atoms: C_20  and  N_13 
REMARK    6  A    between atoms: C_15  and  C_22 
REMARK    7  A    between atoms: C_22  and  C_20 
ROOT
ATOM      1  C   UNL d   1     -54.927-102.008 -40.908  0.00  0.00     0.302 C 
ATOM      2  O   UNL d   1     -54.719-102.701 -41.300  0.00  0.00    -0.263 OA
ATOM      3  N   UNL d   1     -55.139-101.345 -41.341  0.00  0.00    -0.205 NA
ENDROOT
BRANCH   1   4
ATOM      4  C   UNL d   1     -54.922-101.983 -40.083  0.00  0.00     0.158 A 
ATOM      5  O   UNL d   1     -54.878-101.307 -39.617  0.00  0.00    -0.302 OA
ATOM      6  C   UNL d   1     -54.889-101.543 -38.827  0.00  0.00     0.101 A 
ATOM      7  C   UNL d   1     -54.940-102.371 -38.802  0.00  0.00     0.027 A 
ATOM      8  C   UNL d   1     -54.960-102.643 -39.586  0.00  0.00     0.032 A 
BRANCH   6   9
ATOM      9  C   UNL d   1     -54.855-101.045 -38.178  0.00  0.00     0.033 A 
ATOM     10  C   UNL d   1     -54.922-100.226 -38.284  0.00  0.00     0.060 A 
ATOM     11 CL   UNL d   1     -55.021 -99.910 -39.040  0.00  0.00    -0.082 Cl
ATOM     12  C   UNL d   1     -54.887 -99.727 -37.628  0.00  0.00     0.011 A 
ATOM     13  C   UNL d   1     -54.788-100.038 -36.870  0.00  0.00     0.001 A 
ATOM     14  C   UNL d   1     -54.722-100.848 -36.764  0.00  0.00     0.000 A 
ATOM     15  C   UNL d   1     -54.755-101.357 -37.415  0.00  0.00     0.003 A 
ENDBRANCH   6   9
ENDBRANCH   1   4
BRANCH   3  16
ATOM     16  C   UNL d   1     -55.145-101.368 -42.167  0.00  0.00     0.102 C 
BRANCH  16  17
ATOM     17  C   UNL d   1     -54.717-100.826 -42.597  0.00  0.00     0.021 C 
BRANCH  17  18
ATOM     18  C   UNL d   1     -54.727-100.858 -43.422  0.00  0.00     0.004 A 
ATOM     19  C   UNL d   1     -54.753-100.158 -43.864  0.00  0.00     0.026 A 
ATOM     20  C   UNL d   1     -54.763-100.187 -44.680  0.00  0.00     0.116 A 
ATOM     21  C   UNL d   1     -54.747-100.923 -45.064  0.00  0.00     0.116 A 
ATOM     22  C   UNL d   1     -54.721-101.619 -44.624  0.00  0.00     0.026 A 
ATOM     23  C   UNL d   1     -54.711-101.586 -43.803  0.00  0.00     0.002 A 
BRANCH  20  24
ATOM     24  O   UNL d   1     -54.789 -99.487 -45.114  0.00  0.00    -0.326 OA
ATOM     25  C   UNL d   1     -54.961 -98.770 -44.727  0.00  0.00     0.181 C 
ENDBRANCH  20  24
BRANCH  21  26
ATOM     26  O   UNL d   1     -54.757-100.947 -45.899  0.00  0.00    -0.326 OA
ATOM     27  C   UNL d   1     -54.910-100.252 -46.311  0.00  0.00     0.181 C 
ENDBRANCH  21  26
ENDBRANCH  17  18
ENDBRANCH  16  17
ENDBRANCH   3  16
TORSDOF 7
ENDMDL
