MODEL 1
REMARK VINA RESULT:      -4.0      0.000      0.000
REMARK  3 active torsions:
REMARK  status: ('A' for Active; 'I' for Inactive)
REMARK    1  A    between atoms: C_2  and  C_1 
REMARK       I    between atoms: N_3  and  C_2 
REMARK    2  A    between atoms: C_21  and  N_4 
REMARK    3  A    between atoms: C_20  and  C_21 
ROOT
ATOM      1  C   UNL d   1     -41.458-121.873 -52.809  0.00  0.00     0.255 C 
ATOM      2  N   UNL d   1     -41.384-122.412 -52.163  0.00  0.00    -0.271 N 
ATOM      3  N   UNL d   1     -41.236-123.454 -50.886  0.00  0.00    -0.300 N 
ATOM      4  O   UNL d   1     -41.361-121.123 -52.685  0.00  0.00    -0.270 OA
ATOM      5  C   UNL d   1     -41.210-122.138 -51.409  0.00  0.00     0.102 A 
ATOM      6  C   UNL d   1     -41.486-123.221 -52.284  0.00  0.00     0.102 A 
ATOM      7  C   UNL d   1     -41.413-123.754 -51.646  0.00  0.00     0.100 A 
ATOM      8  C   UNL d   1     -41.133-122.638 -50.766  0.00  0.00     0.100 A 
ENDROOT
BRANCH   1   9
ATOM      9  C   UNL d   1     -41.628-122.150 -53.545  0.00  0.00     0.137 A 
ATOM     10  C   UNL d   1     -41.855-121.462 -53.921  0.00  0.00     0.033 A 
ATOM     11  C   UNL d   1     -42.098-121.396 -54.705  0.00  0.00     0.046 A 
ATOM     12  C   UNL d   1     -42.225-121.808 -55.370  0.00  0.00    -0.015 A 
ATOM     13  C   UNL d   1     -42.129-122.010 -55.161  0.00  0.00    -0.022 A 
ATOM     14  C   UNL d   1     -42.064-122.527 -55.236  0.00  0.00     0.027 A 
ATOM     15  C   UNL d   1     -41.840-122.501 -54.462  0.00  0.00    -0.117 A 
ATOM     16  C   UNL d   1     -42.059-123.251 -55.632  0.00  0.00     0.006 A 
ATOM     17  C   UNL d   1     -41.847-122.873 -54.700  0.00  0.00    -0.006 A 
ATOM     18  C   UNL d   1     -41.624-122.862 -53.937  0.00  0.00    -0.007 A 
ENDBRANCH   1   9
BRANCH   3  19
ATOM     19  C   UNL d   1     -41.153-123.814 -50.284  0.00  0.00     0.080 C 
BRANCH  19  20
ATOM     20  C   UNL d   1     -41.727-123.767 -49.702  0.00  0.00     0.020 A 
ATOM     21  C   UNL d   1     -42.533-123.772 -49.894  0.00  0.00     0.028 A 
ATOM     22  C   UNL d   1     -43.117-123.725 -49.306  0.00  0.00     0.119 A 
ATOM     23  O   UNL d   1     -43.923-123.721 -49.370  0.00  0.00    -0.300 OA
ATOM     24  C   UNL d   1     -42.904-123.672 -48.504  0.00  0.00     0.119 A 
ATOM     25  C   UNL d   1     -44.263-123.664 -48.591  0.00  0.00     0.304 A 
ATOM     26  O   UNL d   1     -43.610-123.635 -48.075  0.00  0.00    -0.300 OA
ATOM     27  C   UNL d   1     -42.089-123.666 -48.303  0.00  0.00     0.026 A 
ATOM     28  C   UNL d   1     -41.511-123.713 -48.892  0.00  0.00     0.004 A 
ENDBRANCH  19  20
ENDBRANCH   3  19
TORSDOF 3
ENDMDL
