MODEL 1
REMARK VINA RESULT:      -6.0      0.000      0.000
REMARK  4 active torsions:
REMARK  status: ('A' for Active; 'I' for Inactive)
REMARK    1  A    between atoms: S_4  and  C_8 
REMARK    2  A    between atoms: N_9  and  S_4 
REMARK    3  A    between atoms: C_16  and  N_9 
REMARK    4  A    between atoms: C_12  and  C_16 
ROOT
ATOM      1  C   UNL d   1     -49.751  14.102  23.168  0.00  0.00     0.339 A 
ATOM      2  N   UNL d   1     -49.266  13.442  23.204  0.00  0.00    -0.256 N 
ATOM      3  N   UNL d   1     -49.289  14.755  22.960  0.00  0.00    -0.256 N 
ATOM      4  C   UNL d   1     -48.493  13.690  23.017  0.00  0.00     0.085 A 
ATOM      5  C   UNL d   1     -48.511  14.501  22.867  0.00  0.00     0.085 A 
ATOM      6  C   UNL d   1     -47.772  13.272  22.965  0.00  0.00     0.033 A 
ATOM      7  C   UNL d   1     -47.077  13.669  22.763  0.00  0.00     0.118 A 
ATOM      8  C   UNL d   1     -47.810  14.892  22.665  0.00  0.00     0.020 A 
ATOM      9  O   UNL d   1     -50.575  14.113  23.316  0.00  0.00    -0.245 OA
ATOM     10  C   UNL d   1     -47.097  14.479  22.613  0.00  0.00     0.016 A 
ATOM     11  C   UNL d   1     -49.519  12.672  23.396  0.00  0.00     0.104 C 
ATOM     12  C   UNL d   1     -49.569  15.526  22.865  0.00  0.00     0.104 C 
ENDROOT
BRANCH   7  13
ATOM     13  S   UNL d   1     -46.364  13.254  22.712  0.00  0.00     0.327 S 
ATOM     14  O   UNL d   1     -46.640  12.861  22.039  0.00  0.00    -0.186 OA
ATOM     15  O   UNL d   1     -46.087  13.647  23.384  0.00  0.00    -0.186 OA
BRANCH  13  16
ATOM     16  N   UNL d   1     -45.651  12.840  22.660  0.00  0.00    -0.312 NA
BRANCH  16  17
ATOM     17  C   UNL d   1     -44.938  12.427  22.609  0.00  0.00     0.200 C 
BRANCH  17  18
ATOM     18  C   UNL d   1     -44.859  11.690  22.973  0.00  0.00     0.133 A 
ATOM     19  O   UNL d   1     -45.429  11.314  23.445  0.00  0.00    -0.302 OA
ATOM     20  C   UNL d   1     -45.133  10.594  23.698  0.00  0.00     0.123 A 
ATOM     21  C   UNL d   1     -44.367  10.514  23.382  0.00  0.00     0.029 A 
ATOM     22  C   UNL d   1     -44.206  11.190  22.939  0.00  0.00     0.029 A 
ENDBRANCH  17  18
ENDBRANCH  16  17
ENDBRANCH  13  16
ENDBRANCH   7  13
TORSDOF 4
ENDMDL
MODEL 2
REMARK VINA RESULT:      -5.7      1.163      1.646
REMARK  4 active torsions:
REMARK  status: ('A' for Active; 'I' for Inactive)
REMARK    1  A    between atoms: S_4  and  C_8 
REMARK    2  A    between atoms: N_9  and  S_4 
REMARK    3  A    between atoms: C_16  and  N_9 
REMARK    4  A    between atoms: C_12  and  C_16 
ROOT
ATOM      1  C   UNL d   1     -50.389  12.566  23.476  0.00  0.00     0.339 A 
ATOM      2  N   UNL d   1     -49.622  12.290  23.388  0.00  0.00    -0.256 N 
ATOM      3  N   UNL d   1     -50.397  13.376  23.315  0.00  0.00    -0.256 N 
ATOM      4  C   UNL d   1     -49.148  12.939  23.167  0.00  0.00     0.085 A 
ATOM      5  C   UNL d   1     -49.630  13.607  23.124  0.00  0.00     0.085 A 
ATOM      6  C   UNL d   1     -48.332  13.001  23.001  0.00  0.00     0.033 A 
ATOM      7  C   UNL d   1     -48.006  13.730  22.793  0.00  0.00     0.118 A 
ATOM      8  C   UNL d   1     -49.296  14.336  22.914  0.00  0.00     0.020 A 
ATOM      9  O   UNL d   1     -51.053  12.104  23.694  0.00  0.00    -0.245 OA
ATOM     10  C   UNL d   1     -48.488  14.397  22.750  0.00  0.00     0.016 A 
ATOM     11  C   UNL d   1     -49.381  11.501  23.501  0.00  0.00     0.104 C 
ATOM     12  C   UNL d   1     -51.064  13.861  23.343  0.00  0.00     0.104 C 
ENDROOT
BRANCH   7  13
ATOM     13  S   UNL d   1     -47.198  13.791  22.629  0.00  0.00     0.327 S 
ATOM     14  O   UNL d   1     -47.057  14.024  23.410  0.00  0.00    -0.186 OA
ATOM     15  O   UNL d   1     -47.339  13.558  21.849  0.00  0.00    -0.186 OA
BRANCH  13  16
ATOM     16  N   UNL d   1     -46.391  13.852  22.465  0.00  0.00    -0.312 NA
BRANCH  16  17
ATOM     17  C   UNL d   1     -45.584  13.913  22.301  0.00  0.00     0.200 C 
BRANCH  17  18
ATOM     18  C   UNL d   1     -45.115  13.234  22.271  0.00  0.00     0.133 A 
ATOM     19  O   UNL d   1     -45.121  12.610  22.818  0.00  0.00    -0.302 OA
ATOM     20  C   UNL d   1     -44.575  12.047  22.587  0.00  0.00     0.123 A 
ATOM     21  C   UNL d   1     -44.219  12.318  21.885  0.00  0.00     0.029 A 
ATOM     22  C   UNL d   1     -44.554  13.046  21.697  0.00  0.00     0.029 A 
ENDBRANCH  17  18
ENDBRANCH  16  17
ENDBRANCH  13  16
ENDBRANCH   7  13
TORSDOF 4
ENDMDL
MODEL 3
REMARK VINA RESULT:      -5.6      8.199      9.005
REMARK  4 active torsions:
REMARK  status: ('A' for Active; 'I' for Inactive)
REMARK    1  A    between atoms: S_4  and  C_8 
REMARK    2  A    between atoms: N_9  and  S_4 
REMARK    3  A    between atoms: C_16  and  N_9 
REMARK    4  A    between atoms: C_12  and  C_16 
ROOT
ATOM      1  C   UNL d   1     -38.650  14.555  22.922  0.00  0.00     0.339 A 
ATOM      2  N   UNL d   1     -38.708  14.062  22.269  0.00  0.00    -0.256 N 
ATOM      3  N   UNL d   1     -39.012  15.275  22.739  0.00  0.00    -0.256 N 
ATOM      4  C   UNL d   1     -39.112  14.483  21.674  0.00  0.00     0.085 A 
ATOM      5  C   UNL d   1     -39.297  15.231  21.967  0.00  0.00     0.085 A 
ATOM      6  C   UNL d   1     -39.332  14.272  20.896  0.00  0.00     0.033 A 
ATOM      7  C   UNL d   1     -39.736  14.812  20.421  0.00  0.00     0.118 A 
ATOM      8  C   UNL d   1     -39.703  15.768  21.484  0.00  0.00     0.020 A 
ATOM      9  O   UNL d   1     -38.286  14.362  23.651  0.00  0.00    -0.245 OA
ATOM     10  C   UNL d   1     -39.921  15.559  20.715  0.00  0.00     0.016 A 
ATOM     11  C   UNL d   1     -38.412  13.285  22.229  0.00  0.00     0.104 C 
ATOM     12  C   UNL d   1     -39.071  15.922  23.249  0.00  0.00     0.104 C 
ENDROOT
BRANCH   7  13
ATOM     13  S   UNL d   1     -39.955  14.603  19.651  0.00  0.00     0.327 S 
ATOM     14  O   UNL d   1     -39.199  14.805  19.382  0.00  0.00    -0.186 OA
ATOM     15  O   UNL d   1     -40.709  14.402  19.920  0.00  0.00    -0.186 OA
BRANCH  13  16
ATOM     16  N   UNL d   1     -40.173  14.395  18.882  0.00  0.00    -0.312 NA
BRANCH  16  17
ATOM     17  C   UNL d   1     -40.391  14.187  18.113  0.00  0.00     0.200 C 
BRANCH  17  18
ATOM     18  C   UNL d   1     -40.587  14.772  17.566  0.00  0.00     0.133 A 
ATOM     19  O   UNL d   1     -41.337  15.111  17.457  0.00  0.00    -0.302 OA
ATOM     20  C   UNL d   1     -41.294  15.668  16.860  0.00  0.00     0.123 A 
ATOM     21  C   UNL d   1     -40.509  15.683  16.588  0.00  0.00     0.029 A 
ATOM     22  C   UNL d   1     -40.080  15.131  17.025  0.00  0.00     0.029 A 
ENDBRANCH  17  18
ENDBRANCH  16  17
ENDBRANCH  13  16
ENDBRANCH   7  13
TORSDOF 4
ENDMDL
MODEL 4
REMARK VINA RESULT:      -5.0      7.997      8.821
REMARK  4 active torsions:
REMARK  status: ('A' for Active; 'I' for Inactive)
REMARK    1  A    between atoms: S_4  and  C_8 
REMARK    2  A    between atoms: N_9  and  S_4 
REMARK    3  A    between atoms: C_16  and  N_9 
REMARK    4  A    between atoms: C_12  and  C_16 
ROOT
ATOM      1  C   UNL d   1     -39.980  14.915  16.960  0.00  0.00     0.339 A 
ATOM      2  N   UNL d   1     -39.580  14.600  17.602  0.00  0.00    -0.256 N 
ATOM      3  N   UNL d   1     -40.536  15.460  17.238  0.00  0.00    -0.256 N 
ATOM      4  C   UNL d   1     -39.892  14.956  18.289  0.00  0.00     0.085 A 
ATOM      5  C   UNL d   1     -40.481  15.485  18.060  0.00  0.00     0.085 A 
ATOM      6  C   UNL d   1     -39.708  14.859  19.098  0.00  0.00     0.033 A 
ATOM      7  C   UNL d   1     -40.115  15.293  19.669  0.00  0.00     0.118 A 
ATOM      8  C   UNL d   1     -40.886  15.917  18.640  0.00  0.00     0.020 A 
ATOM      9  O   UNL d   1     -39.849  14.718  16.157  0.00  0.00    -0.245 OA
ATOM     10  C   UNL d   1     -40.704  15.821  19.440  0.00  0.00     0.016 A 
ATOM     11  C   UNL d   1     -38.975  14.030  17.557  0.00  0.00     0.104 C 
ATOM     12  C   UNL d   1     -41.052  15.898  16.766  0.00  0.00     0.104 C 
ENDROOT
BRANCH   7  13
ATOM     13  S   UNL d   1     -39.933  15.197  20.470  0.00  0.00     0.327 S 
ATOM     14  O   UNL d   1     -39.321  15.748  20.397  0.00  0.00    -0.186 OA
ATOM     15  O   UNL d   1     -40.544  14.646  20.543  0.00  0.00    -0.186 OA
BRANCH  13  16
ATOM     16  N   UNL d   1     -39.751  15.101  21.270  0.00  0.00    -0.312 NA
BRANCH  16  17
ATOM     17  C   UNL d   1     -39.569  15.005  22.070  0.00  0.00     0.200 C 
BRANCH  17  18
ATOM     18  C   UNL d   1     -39.044  14.415  22.307  0.00  0.00     0.133 A 
ATOM     19  O   UNL d   1     -39.214  13.605  22.375  0.00  0.00    -0.302 OA
ATOM     20  C   UNL d   1     -38.543  13.211  22.626  0.00  0.00     0.123 A 
ATOM     21  C   UNL d   1     -37.940  13.778  22.717  0.00  0.00     0.029 A 
ATOM     22  C   UNL d   1     -38.254  14.513  22.520  0.00  0.00     0.029 A 
ENDBRANCH  17  18
ENDBRANCH  16  17
ENDBRANCH  13  16
ENDBRANCH   7  13
TORSDOF 4
ENDMDL
MODEL 5
REMARK VINA RESULT:      -4.3      8.430      9.795
REMARK  4 active torsions:
REMARK  status: ('A' for Active; 'I' for Inactive)
REMARK    1  A    between atoms: S_4  and  C_8 
REMARK    2  A    between atoms: N_9  and  S_4 
REMARK    3  A    between atoms: C_16  and  N_9 
REMARK    4  A    between atoms: C_12  and  C_16 
ROOT
ATOM      1  C   UNL d   1     -39.000  14.750  22.290  0.00  0.00     0.339 A 
ATOM      2  N   UNL d   1     -39.338  15.168  21.672  0.00  0.00    -0.256 N 
ATOM      3  N   UNL d   1     -38.564  14.123  21.974  0.00  0.00    -0.256 N 
ATOM      4  C   UNL d   1     -39.109  14.795  20.963  0.00  0.00     0.085 A 
ATOM      5  C   UNL d   1     -38.631  14.150  21.154  0.00  0.00     0.085 A 
ATOM      6  C   UNL d   1     -39.279  14.967  20.164  0.00  0.00     0.033 A 
ATOM      7  C   UNL d   1     -38.970  14.492  19.564  0.00  0.00     0.118 A 
ATOM      8  C   UNL d   1     -38.324  13.678  20.546  0.00  0.00     0.020 A 
ATOM      9  O   UNL d   1     -39.081  14.927  23.104  0.00  0.00    -0.245 OA
ATOM     10  C   UNL d   1     -38.493  13.849  19.755  0.00  0.00     0.016 A 
ATOM     11  C   UNL d   1     -39.821  15.842  21.758  0.00  0.00     0.104 C 
ATOM     12  C   UNL d   1     -38.138  13.569  22.414  0.00  0.00     0.104 C 
ENDROOT
BRANCH   7  13
ATOM     13  S   UNL d   1     -39.139  14.663  18.772  0.00  0.00     0.327 S 
ATOM     14  O   UNL d   1     -39.682  14.039  18.754  0.00  0.00    -0.186 OA
ATOM     15  O   UNL d   1     -38.596  15.286  18.791  0.00  0.00    -0.186 OA
BRANCH  13  16
ATOM     16  N   UNL d   1     -39.307  14.833  17.982  0.00  0.00    -0.312 NA
BRANCH  16  17
ATOM     17  C   UNL d   1     -39.476  15.003  17.191  0.00  0.00     0.200 C 
BRANCH  17  18
ATOM     18  C   UNL d   1     -38.952  14.771  16.597  0.00  0.00     0.133 A 
ATOM     19  O   UNL d   1     -38.330  15.225  16.288  0.00  0.00    -0.302 OA
ATOM     20  C   UNL d   1     -37.946  14.792  15.710  0.00  0.00     0.123 A 
ATOM     21  C   UNL d   1     -38.329  14.056  15.652  0.00  0.00     0.029 A 
ATOM     22  C   UNL d   1     -38.946  14.050  16.199  0.00  0.00     0.029 A 
ENDBRANCH  17  18
ENDBRANCH  16  17
ENDBRANCH  13  16
ENDBRANCH   7  13
TORSDOF 4
ENDMDL
MODEL 6
REMARK VINA RESULT:      -3.9      8.366      9.394
REMARK  4 active torsions:
REMARK  status: ('A' for Active; 'I' for Inactive)
REMARK    1  A    between atoms: S_4  and  C_8 
REMARK    2  A    between atoms: N_9  and  S_4 
REMARK    3  A    between atoms: C_16  and  N_9 
REMARK    4  A    between atoms: C_12  and  C_16 
ROOT
ATOM      1  C   UNL d   1     -40.766  15.745  17.011  0.00  0.00     0.339 A 
ATOM      2  N   UNL d   1     -40.781  15.724  17.831  0.00  0.00    -0.256 N 
ATOM      3  N   UNL d   1     -40.000  15.564  16.758  0.00  0.00    -0.256 N 
ATOM      4  C   UNL d   1     -40.013  15.526  18.089  0.00  0.00     0.085 A 
ATOM      5  C   UNL d   1     -39.535  15.429  17.425  0.00  0.00     0.085 A 
ATOM      6  C   UNL d   1     -39.693  15.424  18.854  0.00  0.00     0.033 A 
ATOM      7  C   UNL d   1     -38.898  15.225  18.945  0.00  0.00     0.118 A 
ATOM      8  C   UNL d   1     -38.737  15.229  17.525  0.00  0.00     0.020 A 
ATOM      9  O   UNL d   1     -41.416  15.921  16.514  0.00  0.00    -0.245 OA
ATOM     10  C   UNL d   1     -38.420  15.128  18.281  0.00  0.00     0.016 A 
ATOM     11  C   UNL d   1     -41.451  15.875  18.301  0.00  0.00     0.104 C 
ATOM     12  C   UNL d   1     -39.754  15.527  15.971  0.00  0.00     0.104 C 
ENDROOT
BRANCH   7  13
ATOM     13  S   UNL d   1     -38.581  15.124  19.702  0.00  0.00     0.327 S 
ATOM     14  O   UNL d   1     -38.843  14.339  19.707  0.00  0.00    -0.186 OA
ATOM     15  O   UNL d   1     -38.320  15.907  19.698  0.00  0.00    -0.186 OA
BRANCH  13  16
ATOM     16  N   UNL d   1     -38.265  15.023  20.459  0.00  0.00    -0.312 NA
BRANCH  16  17
ATOM     17  C   UNL d   1     -37.948  14.921  21.215  0.00  0.00     0.200 C 
BRANCH  17  18
ATOM     18  C   UNL d   1     -38.375  15.165  21.878  0.00  0.00     0.133 A 
ATOM     19  O   UNL d   1     -38.921  14.708  22.304  0.00  0.00    -0.302 OA
ATOM     20  C   UNL d   1     -39.219  15.156  22.921  0.00  0.00     0.123 A 
ATOM     21  C   UNL d   1     -38.857  15.904  22.884  0.00  0.00     0.029 A 
ATOM     22  C   UNL d   1     -38.340  15.903  22.243  0.00  0.00     0.029 A 
ENDBRANCH  17  18
ENDBRANCH  16  17
ENDBRANCH  13  16
ENDBRANCH   7  13
TORSDOF 4
ENDMDL
