MODEL 1
REMARK VINA RESULT:      -7.7      0.000      0.000
REMARK  4 active torsions:
REMARK  status: ('A' for Active; 'I' for Inactive)
REMARK    1  A    between atoms: N_4  and  C_1 
REMARK       I    between atoms: C_10  and  N_4 
REMARK    2  A    between atoms: C_7  and  C_8 
REMARK    3  A    between atoms: O_15  and  C_7 
REMARK    4  A    between atoms: C_17  and  O_15 
ROOT
ATOM      1  C   UNL d   1     -46.187  11.859  23.476  0.00  0.00     0.197 A 
ATOM      2  N   UNL d   1     -45.825  12.601  23.352  0.00  0.00    -0.221 NA
ATOM      3  S   UNL d   1     -46.995  11.948  23.339  0.00  0.00    -0.047 SA
ATOM      4  C   UNL d   1     -47.145  12.735  23.130  0.00  0.00     0.050 A 
ATOM      5  C   UNL d   1     -46.416  13.142  23.138  0.00  0.00     0.090 A 
ATOM      6  C   UNL d   1     -47.808  13.930  22.750  0.00  0.00     0.064 A 
ATOM      7  C   UNL d   1     -47.839  13.135  22.935  0.00  0.00     0.013 A 
ATOM      8  C   UNL d   1     -46.396  13.941  22.951  0.00  0.00     0.020 A 
ATOM      9  C   UNL d   1     -47.079  14.337  22.758  0.00  0.00     0.007 A 
ENDROOT
BRANCH   6  10
ATOM     10  C   UNL d   1     -48.496  14.344  22.552  0.00  0.00     0.300 C 
ATOM     11  O   UNL d   1     -48.859  14.221  21.834  0.00  0.00    -0.259 OA
BRANCH  10  12
ATOM     12  O   UNL d   1     -48.811  14.886  23.098  0.00  0.00    -0.271 OA
BRANCH  12  13
ATOM     13  C   UNL d   1     -49.522  15.276  22.935  0.00  0.00     0.126 C 
ATOM     14  C   UNL d   1     -49.955  15.608  23.539  0.00  0.00     0.029 C 
ENDBRANCH  12  13
ENDBRANCH  10  12
ENDBRANCH   6  10
BRANCH   1  15
ATOM     15  N   UNL d   1     -45.801  11.162  23.698  0.00  0.00    -0.183 NA
ATOM     16  C   UNL d   1     -45.069  10.973  23.368  0.00  0.00     0.281 C 
ATOM     17  O   UNL d   1     -44.719  11.486  22.810  0.00  0.00    -0.265 OA
ATOM     18  C   UNL d   1     -44.689  10.287  23.586  0.00  0.00     0.068 C 
ENDBRANCH   1  15
TORSDOF 4
ENDMDL
MODEL 2
REMARK VINA RESULT:      -7.3      1.963      4.163
REMARK  4 active torsions:
REMARK  status: ('A' for Active; 'I' for Inactive)
REMARK    1  A    between atoms: N_4  and  C_1 
REMARK       I    between atoms: C_10  and  N_4 
REMARK    2  A    between atoms: C_7  and  C_8 
REMARK    3  A    between atoms: O_15  and  C_7 
REMARK    4  A    between atoms: C_17  and  O_15 
ROOT
ATOM      1  C   UNL d   1     -49.055  13.655  22.619  0.00  0.00     0.197 A 
ATOM      2  N   UNL d   1     -48.596  14.339  22.759  0.00  0.00    -0.221 NA
ATOM      3  S   UNL d   1     -48.538  13.019  22.536  0.00  0.00    -0.047 SA
ATOM      4  C   UNL d   1     -47.761  13.293  22.621  0.00  0.00     0.050 A 
ATOM      5  C   UNL d   1     -47.798  14.116  22.760  0.00  0.00     0.090 A 
ATOM      6  C   UNL d   1     -46.345  13.343  22.700  0.00  0.00     0.064 A 
ATOM      7  C   UNL d   1     -47.031  12.912  22.592  0.00  0.00     0.013 A 
ATOM      8  C   UNL d   1     -47.103  14.540  22.867  0.00  0.00     0.020 A 
ATOM      9  C   UNL d   1     -46.382  14.166  22.839  0.00  0.00     0.007 A 
ENDROOT
BRANCH   6  10
ATOM     10  C   UNL d   1     -45.606  12.974  22.673  0.00  0.00     0.300 C 
ATOM     11  O   UNL d   1     -45.398  12.427  23.239  0.00  0.00    -0.259 OA
BRANCH  10  12
ATOM     12  O   UNL d   1     -45.080  13.169  22.060  0.00  0.00    -0.271 OA
BRANCH  12  13
ATOM     13  C   UNL d   1     -44.386  12.733  21.952  0.00  0.00     0.126 C 
ATOM     14  C   UNL d   1     -43.845  12.955  21.386  0.00  0.00     0.029 C 
ENDBRANCH  12  13
ENDBRANCH  10  12
ENDBRANCH   6  10
BRANCH   1  15
ATOM     15  N   UNL d   1     -49.880  13.626  22.574  0.00  0.00    -0.183 NA
ATOM     16  C   UNL d   1     -50.252  13.599  21.838  0.00  0.00     0.281 C 
ATOM     17  O   UNL d   1     -49.794  13.601  21.139  0.00  0.00    -0.265 OA
ATOM     18  C   UNL d   1     -51.064  13.571  21.793  0.00  0.00     0.068 C 
ENDBRANCH   1  15
TORSDOF 4
ENDMDL
MODEL 3
REMARK VINA RESULT:      -6.9      1.652      4.174
REMARK  4 active torsions:
REMARK  status: ('A' for Active; 'I' for Inactive)
REMARK    1  A    between atoms: N_4  and  C_1 
REMARK       I    between atoms: C_10  and  N_4 
REMARK    2  A    between atoms: C_7  and  C_8 
REMARK    3  A    between atoms: O_15  and  C_7 
REMARK    4  A    between atoms: C_17  and  O_15 
ROOT
ATOM      1  C   UNL d   1     -49.009  13.568  22.930  0.00  0.00     0.197 A 
ATOM      2  N   UNL d   1     -48.462  14.199  22.935  0.00  0.00    -0.221 NA
ATOM      3  S   UNL d   1     -48.580  12.864  22.929  0.00  0.00    -0.047 SA
ATOM      4  C   UNL d   1     -47.772  13.043  22.933  0.00  0.00     0.050 A 
ATOM      5  C   UNL d   1     -47.698  13.875  22.936  0.00  0.00     0.090 A 
ATOM      6  C   UNL d   1     -46.359  12.918  22.938  0.00  0.00     0.064 A 
ATOM      7  C   UNL d   1     -47.098  12.569  22.934  0.00  0.00     0.013 A 
ATOM      8  C   UNL d   1     -46.951  14.215  22.940  0.00  0.00     0.020 A 
ATOM      9  C   UNL d   1     -46.285  13.750  22.941  0.00  0.00     0.007 A 
ENDROOT
BRANCH   6  10
ATOM     10  C   UNL d   1     -45.674  12.455  22.938  0.00  0.00     0.300 C 
ATOM     11  O   UNL d   1     -45.003  12.710  22.555  0.00  0.00    -0.259 OA
BRANCH  10  12
ATOM     12  O   UNL d   1     -45.682  11.725  23.337  0.00  0.00    -0.271 OA
BRANCH  12  13
ATOM     13  C   UNL d   1     -45.054  11.195  23.246  0.00  0.00     0.126 C 
ATOM     14  C   UNL d   1     -45.025  10.514  23.691  0.00  0.00     0.029 C 
ENDBRANCH  12  13
ENDBRANCH  10  12
ENDBRANCH   6  10
BRANCH   1  15
ATOM     15  N   UNL d   1     -49.833  13.641  22.928  0.00  0.00    -0.183 NA
ATOM     16  C   UNL d   1     -50.243  13.658  22.213  0.00  0.00     0.281 C 
ATOM     17  O   UNL d   1     -49.826  13.600  21.491  0.00  0.00    -0.265 OA
ATOM     18  C   UNL d   1     -51.054  13.730  22.210  0.00  0.00     0.068 C 
ENDBRANCH   1  15
TORSDOF 4
ENDMDL
MODEL 4
REMARK VINA RESULT:      -6.6      1.671      2.121
REMARK  4 active torsions:
REMARK  status: ('A' for Active; 'I' for Inactive)
REMARK    1  A    between atoms: N_4  and  C_1 
REMARK       I    between atoms: C_10  and  N_4 
REMARK    2  A    between atoms: C_7  and  C_8 
REMARK    3  A    between atoms: O_15  and  C_7 
REMARK    4  A    between atoms: C_17  and  O_15 
ROOT
ATOM      1  C   UNL d   1     -46.005  12.967  22.829  0.00  0.00     0.197 A 
ATOM      2  N   UNL d   1     -46.190  12.303  23.302  0.00  0.00    -0.221 NA
ATOM      3  S   UNL d   1     -46.714  13.295  22.569  0.00  0.00    -0.047 SA
ATOM      4  C   UNL d   1     -47.342  12.848  22.871  0.00  0.00     0.050 A 
ATOM      5  C   UNL d   1     -47.015  12.230  23.327  0.00  0.00     0.090 A 
ATOM      6  C   UNL d   1     -48.647  12.376  23.167  0.00  0.00     0.064 A 
ATOM      7  C   UNL d   1     -48.161  12.916  22.794  0.00  0.00     0.013 A 
ATOM      8  C   UNL d   1     -47.513  11.693  23.698  0.00  0.00     0.020 A 
ATOM      9  C   UNL d   1     -48.320  11.758  23.624  0.00  0.00     0.007 A 
ENDROOT
BRANCH   6  10
ATOM     10  C   UNL d   1     -49.469  12.433  23.099  0.00  0.00     0.300 C 
ATOM     11  O   UNL d   1     -49.885  11.886  22.662  0.00  0.00    -0.259 OA
BRANCH  10  12
ATOM     12  O   UNL d   1     -49.864  13.056  23.483  0.00  0.00    -0.271 OA
BRANCH  12  13
ATOM     13  C   UNL d   1     -50.688  13.112  23.447  0.00  0.00     0.126 C 
ATOM     14  C   UNL d   1     -51.064  13.789  23.698  0.00  0.00     0.029 C 
ENDBRANCH  12  13
ENDBRANCH  10  12
ENDBRANCH   6  10
BRANCH   1  15
ATOM     15  N   UNL d   1     -45.244  13.241  22.657  0.00  0.00    -0.183 NA
ATOM     16  C   UNL d   1     -44.887  13.044  21.940  0.00  0.00     0.281 C 
ATOM     17  O   UNL d   1     -45.295  12.567  21.388  0.00  0.00    -0.265 OA
ATOM     18  C   UNL d   1     -44.138  13.315  21.769  0.00  0.00     0.068 C 
ENDBRANCH   1  15
TORSDOF 4
ENDMDL
MODEL 5
REMARK VINA RESULT:      -5.5      7.733      8.782
REMARK  4 active torsions:
REMARK  status: ('A' for Active; 'I' for Inactive)
REMARK    1  A    between atoms: N_4  and  C_1 
REMARK       I    between atoms: C_10  and  N_4 
REMARK    2  A    between atoms: C_7  and  C_8 
REMARK    3  A    between atoms: O_15  and  C_7 
REMARK    4  A    between atoms: C_17  and  O_15 
ROOT
ATOM      1  C   UNL d   1     -40.351  15.751  18.642  0.00  0.00     0.197 A 
ATOM      2  N   UNL d   1     -40.958  15.914  19.192  0.00  0.00    -0.221 NA
ATOM      3  S   UNL d   1     -39.682  15.523  19.066  0.00  0.00    -0.047 SA
ATOM      4  C   UNL d   1     -39.860  15.540  19.874  0.00  0.00     0.050 A 
ATOM      5  C   UNL d   1     -40.654  15.784  19.952  0.00  0.00     0.090 A 
ATOM      6  C   UNL d   1     -39.751  15.440  21.285  0.00  0.00     0.064 A 
ATOM      7  C   UNL d   1     -39.412  15.369  20.545  0.00  0.00     0.013 A 
ATOM      8  C   UNL d   1     -40.985  15.851  20.701  0.00  0.00     0.020 A 
ATOM      9  C   UNL d   1     -40.546  15.683  21.364  0.00  0.00     0.007 A 
ENDROOT
BRANCH   6  10
ATOM     10  C   UNL d   1     -39.314  15.272  21.966  0.00  0.00     0.300 C 
ATOM     11  O   UNL d   1     -38.981  15.874  22.402  0.00  0.00    -0.259 OA
BRANCH  10  12
ATOM     12  O   UNL d   1     -39.219  14.480  22.200  0.00  0.00    -0.271 OA
BRANCH  12  13
ATOM     13  C   UNL d   1     -38.764  14.292  22.863  0.00  0.00     0.126 C 
ATOM     14  C   UNL d   1     -38.729  13.525  23.134  0.00  0.00     0.029 C 
ENDBRANCH  12  13
ENDBRANCH  10  12
ENDBRANCH   6  10
BRANCH   1  15
ATOM     15  N   UNL d   1     -40.414  15.809  17.819  0.00  0.00    -0.183 NA
ATOM     16  C   UNL d   1     -40.707  15.175  17.381  0.00  0.00     0.281 C 
ATOM     17  O   UNL d   1     -40.940  14.473  17.770  0.00  0.00    -0.265 OA
ATOM     18  C   UNL d   1     -40.770  15.232  16.572  0.00  0.00     0.068 C 
ENDBRANCH   1  15
TORSDOF 4
ENDMDL
MODEL 6
REMARK VINA RESULT:      -5.3      7.990      8.967
REMARK  4 active torsions:
REMARK  status: ('A' for Active; 'I' for Inactive)
REMARK    1  A    between atoms: N_4  and  C_1 
REMARK       I    between atoms: C_10  and  N_4 
REMARK    2  A    between atoms: C_7  and  C_8 
REMARK    3  A    between atoms: O_15  and  C_7 
REMARK    4  A    between atoms: C_17  and  O_15 
ROOT
ATOM      1  C   UNL d   1     -39.636  14.655  17.410  0.00  0.00     0.197 A 
ATOM      2  N   UNL d   1     -40.231  14.162  17.729  0.00  0.00    -0.221 NA
ATOM      3  S   UNL d   1     -39.429  15.204  17.988  0.00  0.00    -0.047 SA
ATOM      4  C   UNL d   1     -39.884  15.064  18.665  0.00  0.00     0.050 A 
ATOM      5  C   UNL d   1     -40.384  14.415  18.503  0.00  0.00     0.090 A 
ATOM      6  C   UNL d   1     -40.434  15.163  19.969  0.00  0.00     0.064 A 
ATOM      7  C   UNL d   1     -39.913  15.435  19.401  0.00  0.00     0.013 A 
ATOM      8  C   UNL d   1     -40.903  14.150  19.081  0.00  0.00     0.020 A 
ATOM      9  C   UNL d   1     -40.933  14.514  19.808  0.00  0.00     0.007 A 
ENDROOT
BRANCH   6  10
ATOM     10  C   UNL d   1     -40.474  15.525  20.712  0.00  0.00     0.300 C 
ATOM     11  O   UNL d   1     -41.146  15.922  20.941  0.00  0.00    -0.259 OA
BRANCH  10  12
ATOM     12  O   UNL d   1     -39.817  15.477  21.219  0.00  0.00    -0.271 OA
BRANCH  12  13
ATOM     13  C   UNL d   1     -39.803  15.909  21.924  0.00  0.00     0.126 C 
ATOM     14  C   UNL d   1     -39.153  15.877  22.412  0.00  0.00     0.029 C 
ENDBRANCH  12  13
ENDBRANCH  10  12
ENDBRANCH   6  10
BRANCH   1  15
ATOM     15  N   UNL d   1     -39.316  14.597  16.650  0.00  0.00    -0.183 NA
ATOM     16  C   UNL d   1     -38.683  14.088  16.505  0.00  0.00     0.281 C 
ATOM     17  O   UNL d   1     -38.367  13.630  17.128  0.00  0.00    -0.265 OA
ATOM     18  C   UNL d   1     -38.368  14.031  15.757  0.00  0.00     0.068 C 
ENDBRANCH   1  15
TORSDOF 4
ENDMDL
