MODEL 1
REMARK VINA RESULT:      15.9      0.000      0.000
REMARK  0 active torsions:
REMARK  status: ('A' for Active; 'I' for Inactive)
ROOT
ATOM      1  C   UNL d   1      43.713 -15.149  37.096  0.00  0.00     0.106 A 
ATOM      2  O   UNL d   1      43.884 -14.443  37.475  0.00  0.00    -0.273 OA
ATOM      3  C   UNL d   1      44.664 -14.163  37.486  0.00  0.00     0.300 A 
ATOM      4  C   UNL d   1      45.084 -15.302  36.736  0.00  0.00     0.007 A 
ATOM      5  C   UNL d   1      44.316 -15.581  36.724  0.00  0.00     0.023 A 
ATOM      6  C   UNL d   1      45.265 -14.593  37.116  0.00  0.00     0.064 A 
ATOM      7  C   UNL d   1      42.938 -15.429  37.084  0.00  0.00     0.062 A 
ATOM      8  C   UNL d   1      44.138 -16.288  36.345  0.00  0.00     0.005 A 
ATOM      9  C   UNL d   1      42.763 -16.143  36.700  0.00  0.00     0.198 A 
ATOM     10  O   UNL d   1      44.845 -13.443  37.872  0.00  0.00    -0.259 OA
ATOM     11  C   UNL d   1      43.364 -16.572  36.330  0.00  0.00     0.042 A 
ATOM     12  C   UNL d   1      45.687 -15.733  36.365  0.00  0.00     0.000 A 
ATOM     13  C   UNL d   1      46.036 -14.311  37.129  0.00  0.00     0.005 A 
ATOM     14  O   UNL d   1      41.981 -16.426  36.688  0.00  0.00    -0.286 OA
ATOM     15  C   UNL d   1      42.350 -15.008  37.446  0.00  0.00     0.005 C 
ATOM     16  C   UNL d   1      46.462 -15.454  36.376  0.00  0.00     0.000 A 
ATOM     17  C   UNL d   1      46.647 -14.733  36.761  0.00  0.00     0.000 A 
ENDROOT
TORSDOF 0
ENDMDL
MODEL 2
REMARK VINA RESULT:      17.0      1.119      3.315
REMARK  0 active torsions:
REMARK  status: ('A' for Active; 'I' for Inactive)
ROOT
ATOM      1  C   UNL d   1      45.166 -15.450  36.854  0.00  0.00     0.106 A 
ATOM      2  O   UNL d   1      45.140 -16.251  36.684  0.00  0.00    -0.273 OA
ATOM      3  C   UNL d   1      44.414 -16.611  36.512  0.00  0.00     0.300 A 
ATOM      4  C   UNL d   1      43.753 -15.358  36.684  0.00  0.00     0.007 A 
ATOM      5  C   UNL d   1      44.468 -15.001  36.854  0.00  0.00     0.023 A 
ATOM      6  C   UNL d   1      43.719 -16.164  36.511  0.00  0.00     0.064 A 
ATOM      7  C   UNL d   1      45.887 -15.091  37.026  0.00  0.00     0.062 A 
ATOM      8  C   UNL d   1      44.499 -14.198  37.025  0.00  0.00     0.005 A 
ATOM      9  C   UNL d   1      45.913 -14.280  37.198  0.00  0.00     0.198 A 
ATOM     10  O   UNL d   1      44.383 -17.428  36.338  0.00  0.00    -0.259 OA
ATOM     11  C   UNL d   1      45.219 -13.833  37.198  0.00  0.00     0.042 A 
ATOM     12  C   UNL d   1      43.056 -14.910  36.683  0.00  0.00     0.000 A 
ATOM     13  C   UNL d   1      43.002 -16.525  36.340  0.00  0.00     0.005 A 
ATOM     14  O   UNL d   1      46.642 -13.917  37.372  0.00  0.00    -0.286 OA
ATOM     15  C   UNL d   1      46.567 -15.528  37.026  0.00  0.00     0.005 C 
ATOM     16  C   UNL d   1      42.334 -15.268  36.512  0.00  0.00     0.000 A 
ATOM     17  C   UNL d   1      42.298 -16.087  36.337  0.00  0.00     0.000 A 
ENDROOT
TORSDOF 0
ENDMDL
MODEL 3
REMARK VINA RESULT:      18.6      1.084      1.738
REMARK  0 active torsions:
REMARK  status: ('A' for Active; 'I' for Inactive)
ROOT
ATOM      1  C   UNL d   1      44.270 -15.673  36.776  0.00  0.00     0.106 A 
ATOM      2  O   UNL d   1      44.921 -16.091  36.508  0.00  0.00    -0.273 OA
ATOM      3  C   UNL d   1      45.681 -15.773  36.602  0.00  0.00     0.300 A 
ATOM      4  C   UNL d   1      45.120 -14.621  37.229  0.00  0.00     0.007 A 
ATOM      5  C   UNL d   1      44.370 -14.933  37.138  0.00  0.00     0.023 A 
ATOM      6  C   UNL d   1      45.780 -15.037  36.963  0.00  0.00     0.064 A 
ATOM      7  C   UNL d   1      43.515 -15.988  36.684  0.00  0.00     0.062 A 
ATOM      8  C   UNL d   1      43.713 -14.517  37.405  0.00  0.00     0.005 A 
ATOM      9  C   UNL d   1      42.856 -15.565  36.954  0.00  0.00     0.198 A 
ATOM     10  O   UNL d   1      46.349 -16.197  36.331  0.00  0.00    -0.259 OA
ATOM     11  C   UNL d   1      42.955 -14.828  37.315  0.00  0.00     0.042 A 
ATOM     12  C   UNL d   1      45.219 -13.882  37.592  0.00  0.00     0.000 A 
ATOM     13  C   UNL d   1      46.534 -14.725  37.053  0.00  0.00     0.005 A 
ATOM     14  O   UNL d   1      42.092 -15.883  36.861  0.00  0.00    -0.286 OA
ATOM     15  C   UNL d   1      43.418 -16.709  36.330  0.00  0.00     0.005 C 
ATOM     16  C   UNL d   1      45.975 -13.566  37.684  0.00  0.00     0.000 A 
ATOM     17  C   UNL d   1      46.647 -13.987  37.414  0.00  0.00     0.000 A 
ENDROOT
TORSDOF 0
ENDMDL
