MODEL 1
REMARK VINA RESULT:      65.2      0.000      0.000
REMARK  10 active torsions:
REMARK  status: ('A' for Active; 'I' for Inactive)
REMARK    1  A    between atoms: N_3  and  C_1 
REMARK    2  A    between atoms: C_16  and  N_2 
REMARK       I    between atoms: C_7  and  N_3 
REMARK    3  A    between atoms: C_18  and  C_7 
REMARK    4  A    between atoms: C_10  and  C_20 
REMARK       I    between atoms: N_11  and  C_10 
REMARK    5  A    between atoms: C_19  and  N_11 
REMARK    6  A    between atoms: S_14  and  C_18 
REMARK    7  A    between atoms: C_20  and  S_14 
REMARK    8  A    between atoms: O_21  and  C_15 
REMARK    9  A    between atoms: C_23  and  C_16 
REMARK   10  A    between atoms: O_22  and  C_23 
ROOT
ATOM      1  C   UNL d   1     -51.106  25.869  33.411  0.00  0.00     0.182 A 
ATOM      2  N   UNL d   1     -51.484  25.129  33.407  0.00  0.00    -0.283 N 
ATOM      3  S   UNL d   1     -50.290  25.737  33.520  0.00  0.00    -0.048 SA
ATOM      4  C   UNL d   1     -50.170  24.916  33.582  0.00  0.00     0.050 A 
ATOM      5  C   UNL d   1     -50.906  24.541  33.512  0.00  0.00     0.072 A 
ATOM      6  C   UNL d   1     -49.478  24.471  33.693  0.00  0.00     0.032 A 
ATOM      7  C   UNL d   1     -50.950  23.721  33.554  0.00  0.00     0.020 A 
ATOM      8  C   UNL d   1     -49.539  23.649  33.732  0.00  0.00     0.095 A 
ATOM      9  C   UNL d   1     -50.275  23.274  33.663  0.00  0.00     0.026 A 
ENDROOT
BRANCH   1  10
ATOM     10  N   UNL d   1     -51.474  26.606  33.324  0.00  0.00    -0.183 NA
ATOM     11  C   UNL d   1     -50.856  27.159  33.371  0.00  0.00     0.287 C 
ATOM     12  O   UNL d   1     -50.074  26.900  33.484  0.00  0.00    -0.265 OA
BRANCH  11  13
ATOM     13  C   UNL d   1     -51.009  27.964  33.307  0.00  0.00     0.098 C 
BRANCH  13  14
ATOM     14  S   UNL d   1     -50.483  28.523  33.627  0.00  0.00    -0.076 SA
BRANCH  14  15
ATOM     15  C   UNL d   1     -49.693  28.317  33.766  0.00  0.00     0.098 C 
BRANCH  15  16
ATOM     16  C   UNL d   1     -49.264  28.685  34.367  0.00  0.00     0.286 C 
ATOM     17  N   UNL d   1     -48.439  28.700  34.336  0.00  0.00    -0.208 NA
ATOM     18  O   UNL d   1     -49.669  29.039  35.001  0.00  0.00    -0.265 OA
BRANCH  17  19
ATOM     19  C   UNL d   1     -48.013  29.073  34.945  0.00  0.00     0.085 A 
ATOM     20  C   UNL d   1     -47.203  29.171  34.872  0.00  0.00     0.019 A 
ATOM     21  C   UNL d   1     -46.783  29.540  35.476  0.00  0.00     0.002 A 
ATOM     22  C   UNL d   1     -47.182  29.811  36.156  0.00  0.00     0.000 A 
ATOM     23  C   UNL d   1     -48.001  29.705  36.216  0.00  0.00     0.002 A 
ATOM     24  C   UNL d   1     -48.421  29.336  35.612  0.00  0.00     0.019 A 
ENDBRANCH  17  19
ENDBRANCH  15  16
ENDBRANCH  14  15
ENDBRANCH  13  14
ENDBRANCH  11  13
ENDBRANCH   1  10
BRANCH   2  25
ATOM     25  C   UNL d   1     -52.290  25.009  33.314  0.00  0.00     0.108 C 
BRANCH  25  26
ATOM     26  C   UNL d   1     -52.715  24.567  33.862  0.00  0.00     0.135 C 
BRANCH  26  27
ATOM     27  O   UNL d   1     -53.344  24.095  33.605  0.00  0.00    -0.325 OA
ATOM     28  C   UNL d   1     -53.424  23.320  33.876  0.00  0.00     0.182 C 
ENDBRANCH  26  27
ENDBRANCH  25  26
ENDBRANCH   2  25
BRANCH   8  29
ATOM     29  O   UNL d   1     -48.854  23.191  33.843  0.00  0.00    -0.328 OA
ATOM     30  C   UNL d   1     -48.212  23.283  33.342  0.00  0.00     0.181 C 
ENDBRANCH   8  29
TORSDOF 10
ENDMDL
