MODEL 1
REMARK VINA RESULT:     132.3      0.000      0.000
REMARK  4 active torsions:
REMARK  status: ('A' for Active; 'I' for Inactive)
REMARK    1  A    between atoms: C_6  and  N_1 
REMARK    2  A    between atoms: C_8  and  C_2 
REMARK    3  A    between atoms: C_16  and  C_5 
REMARK    4  A    between atoms: C_7  and  C_8 
ROOT
ATOM      1  N   UNL d   1     -58.364 -99.412 -43.819  0.00  0.00    -0.251 N 
ATOM      2  C   UNL d   1     -57.224 -99.462 -44.506  0.00  0.00     0.101 A 
ATOM      3  C   UNL d   1     -58.551 -99.450 -44.621  0.00  0.00     0.305 A 
ATOM      4  C   UNL d   1     -57.841 -99.480 -45.049  0.00  0.00     0.256 A 
ATOM      5  C   UNL d   1     -57.544 -99.420 -43.753  0.00  0.00     0.075 A 
ATOM      6  O   UNL d   1     -59.313 -99.456 -44.947  0.00  0.00    -0.263 OA
ATOM      7  O   UNL d   1     -57.783 -99.522 -45.870  0.00  0.00    -0.281 OA
ENDROOT
BRANCH   2   8
ATOM      8  C   UNL d   1     -56.419 -99.482 -44.699  0.00  0.00     0.223 C 
ATOM      9  O   UNL d   1     -56.012 -98.777 -44.835  0.00  0.00    -0.284 OA
BRANCH   8  10
ATOM     10  C   UNL d   1     -56.024-100.197 -44.754  0.00  0.00     0.139 A 
ATOM     11  O   UNL d   1     -55.812-100.686 -44.125  0.00  0.00    -0.304 OA
ATOM     12  C   UNL d   1     -55.424-101.348 -44.428  0.00  0.00     0.100 A 
ATOM     13  C   UNL d   1     -55.098-102.003 -44.063  0.00  0.00     0.025 A 
ATOM     14  C   UNL d   1     -55.399-101.264 -45.242  0.00  0.00     0.025 A 
ATOM     15  C   UNL d   1     -54.741-102.585 -44.519  0.00  0.00     0.002 A 
ATOM     16  C   UNL d   1     -54.712-102.508 -45.343  0.00  0.00     0.000 A 
ATOM     17  C   UNL d   1     -55.042-101.846 -45.698  0.00  0.00     0.002 A 
ATOM     18  C   UNL d   1     -55.767-100.559 -45.448  0.00  0.00     0.030 A 
ENDBRANCH   8  10
ENDBRANCH   2   8
BRANCH   5  19
ATOM     19  C   UNL d   1     -57.109 -99.391 -43.043  0.00  0.00     0.017 A 
ATOM     20  C   UNL d   1     -57.276 -98.799 -42.482  0.00  0.00     0.002 A 
ATOM     21  C   UNL d   1     -56.847 -98.763 -41.773  0.00  0.00     0.000 A 
ATOM     22  C   UNL d   1     -56.245 -99.322 -41.618  0.00  0.00     0.000 A 
ATOM     23  C   UNL d   1     -56.083 -99.915 -42.188  0.00  0.00     0.000 A 
ATOM     24  C   UNL d   1     -56.516 -99.947 -42.899  0.00  0.00     0.002 A 
ENDBRANCH   5  19
BRANCH   1  25
ATOM     25  C   UNL d   1     -58.901 -99.375 -43.202  0.00  0.00     0.182 A 
ATOM     26  N   UNL d   1     -59.015 -99.947 -42.613  0.00  0.00    -0.220 NA
ATOM     27  C   UNL d   1     -59.607 -99.682 -42.110  0.00  0.00     0.108 A 
ATOM     28  C   UNL d   1     -59.864 -98.947 -42.382  0.00  0.00     0.059 A 
ATOM     29  S   UNL d   1     -59.428 -98.757 -43.056  0.00  0.00    -0.048 SA
ENDBRANCH   1  25
TORSDOF 4
ENDMDL
