MODEL 1
REMARK VINA RESULT:      73.5      0.000      0.000
REMARK  4 active torsions:
REMARK  status: ('A' for Active; 'I' for Inactive)
REMARK    1  A    between atoms: N_5  and  C_9 
REMARK    2  A    between atoms: O_11  and  C_8 
REMARK    3  A    between atoms: C_20  and  O_11 
REMARK    4  A    between atoms: C_21  and  C_20 
ROOT
ATOM      1  C   UNL d   1     -57.630 -98.772 -43.686  0.00  0.00     0.009 A 
ATOM      2  C   UNL d   1     -57.123 -98.769 -44.331  0.00  0.00     0.046 A 
ATOM      3  C   UNL d   1     -58.441 -98.769 -43.791  0.00  0.00     0.064 A 
ATOM      4  C   UNL d   1     -58.753 -98.764 -44.553  0.00  0.00     0.300 A 
ATOM      5  C   UNL d   1     -57.423 -98.764 -45.098  0.00  0.00     0.105 A 
ATOM      6  O   UNL d   1     -58.253 -98.762 -45.205  0.00  0.00    -0.273 OA
ATOM      7  C   UNL d   1     -56.299 -98.771 -44.217  0.00  0.00     0.102 A 
ATOM      8  C   UNL d   1     -56.927 -98.761 -45.748  0.00  0.00     0.025 A 
ATOM      9  C   UNL d   1     -55.789 -98.769 -44.878  0.00  0.00     0.025 A 
ATOM     10  O   UNL d   1     -59.579 -98.762 -44.675  0.00  0.00    -0.259 OA
ATOM     11  C   UNL d   1     -56.109 -98.764 -45.636  0.00  0.00     0.004 A 
ATOM     12  C   UNL d   1     -57.317 -98.777 -42.921  0.00  0.00     0.000 A 
ATOM     13  C   UNL d   1     -58.952 -98.772 -43.144  0.00  0.00     0.005 A 
ATOM     14  C   UNL d   1     -55.597 -98.761 -46.293  0.00  0.00     0.000 C 
ATOM     15  C   UNL d   1     -57.814 -98.779 -42.261  0.00  0.00     0.000 A 
ATOM     16  C   UNL d   1     -58.639 -98.777 -42.379  0.00  0.00     0.000 A 
ENDROOT
BRANCH   7  17
ATOM     17  O   UNL d   1     -55.994 -98.776 -43.462  0.00  0.00    -0.305 OA
BRANCH  17  18
ATOM     18  C   UNL d   1     -55.221 -99.054 -43.325  0.00  0.00     0.122 C 
BRANCH  18  19
ATOM     19  C   UNL d   1     -55.110 -99.827 -43.066  0.00  0.00     0.025 A 
ATOM     20  C   UNL d   1     -54.878 -99.969 -42.288  0.00  0.00     0.004 A 
ATOM     21  C   UNL d   1     -54.765-100.734 -42.019  0.00  0.00     0.024 A 
ATOM     22  C   UNL d   1     -54.882-101.367 -42.532  0.00  0.00     0.127 A 
ATOM     23  C   UNL d   1     -55.114-101.240 -43.313  0.00  0.00     0.024 A 
ATOM     24  C   UNL d   1     -55.229-100.457 -43.583  0.00  0.00     0.004 A 
BRANCH  22  25
ATOM     25  N   UNL d   1     -54.770-102.143 -42.272  0.00  0.00    -0.114 N 
ATOM     26  O   UNL d   1     -54.711-102.758 -42.807  0.00  0.00    -0.532 OA
ATOM     27  O   UNL d   1     -54.718-102.292 -41.461  0.00  0.00    -0.532 OA
ENDBRANCH  22  25
ENDBRANCH  18  19
ENDBRANCH  17  18
ENDBRANCH   7  17
TORSDOF 4
ENDMDL
