MODEL 1
REMARK VINA RESULT:      -5.0      0.000      0.000
REMARK  6 active torsions:
REMARK  status: ('A' for Active; 'I' for Inactive)
REMARK    1  A    between atoms: C_2  and  S_1 
REMARK    2  A    between atoms: N_6  and  S_1 
REMARK    3  A    between atoms: C_14  and  N_6 
REMARK    4  A    between atoms: C_8  and  C_13 
REMARK    5  A    between atoms: C_13  and  C_15 
REMARK    6  A    between atoms: C_15  and  C_14 
ROOT
ATOM      1  S   UNL d   1     -41.323-122.439 -51.873  0.00  0.00     0.291 S 
ATOM      2  O   UNL d   1     -41.172-121.645 -51.664  0.00  0.00    -0.198 OA
ATOM      3  O   UNL d   1     -41.472-123.227 -52.085  0.00  0.00    -0.198 OA
ENDROOT
BRANCH   1   4
ATOM      4  C   UNL d   1     -41.522-122.614 -51.084  0.00  0.00     0.135 A 
ATOM      5  S   UNL d   1     -41.123-123.118 -50.577  0.00  0.00    -0.073 SA
ATOM      6  C   UNL d   1     -41.515-123.125 -49.849  0.00  0.00     0.036 A 
ATOM      7  C   UNL d   1     -42.145-122.640 -49.891  0.00  0.00     0.008 A 
ATOM      8  C   UNL d   1     -42.169-122.310 -50.656  0.00  0.00     0.020 A 
ENDBRANCH   1   4
BRANCH   1   9
ATOM      9  N   UNL d   1     -41.123-122.265 -52.669  0.00  0.00    -0.156 NA
BRANCH   9  10
ATOM     10  C   UNL d   1     -41.640-122.443 -53.288  0.00  0.00     0.112 C 
BRANCH  10  11
ATOM     11  C   UNL d   1     -41.547-122.109 -54.029  0.00  0.00     0.028 C 
BRANCH  11  12
ATOM     12  C   UNL d   1     -41.964-122.411 -54.672  0.00  0.00     0.072 C 
BRANCH  12  13
ATOM     13  C   UNL d   1     -42.099-121.955 -55.346  0.00  0.00     0.211 C 
ATOM     14  O   UNL d   1     -41.475-121.578 -55.747  0.00  0.00    -0.644 OA
ATOM     15  O   UNL d   1     -42.863-121.861 -55.640  0.00  0.00    -0.644 OA
ENDBRANCH  12  13
ENDBRANCH  11  12
ENDBRANCH  10  11
ENDBRANCH   9  10
ENDBRANCH   1   9
TORSDOF 6
ENDMDL
MODEL 2
REMARK VINA RESULT:      -4.7      1.517      4.099
REMARK  6 active torsions:
REMARK  status: ('A' for Active; 'I' for Inactive)
REMARK    1  A    between atoms: C_2  and  S_1 
REMARK    2  A    between atoms: N_6  and  S_1 
REMARK    3  A    between atoms: C_14  and  N_6 
REMARK    4  A    between atoms: C_8  and  C_13 
REMARK    5  A    between atoms: C_13  and  C_15 
REMARK    6  A    between atoms: C_15  and  C_14 
ROOT
ATOM      1  S   UNL d   1     -41.497-122.669 -53.460  0.00  0.00     0.291 S 
ATOM      2  O   UNL d   1     -41.873-123.407 -53.562  0.00  0.00    -0.198 OA
ATOM      3  O   UNL d   1     -41.123-121.936 -53.355  0.00  0.00    -0.198 OA
ENDROOT
BRANCH   1   4
ATOM      4  C   UNL d   1     -41.705-122.451 -54.236  0.00  0.00     0.135 A 
ATOM      5  S   UNL d   1     -41.340-122.694 -54.928  0.00  0.00    -0.073 SA
ATOM      6  C   UNL d   1     -41.728-122.342 -55.568  0.00  0.00     0.036 A 
ATOM      7  C   UNL d   1     -42.322-121.888 -55.292  0.00  0.00     0.008 A 
ATOM      8  C   UNL d   1     -42.325-121.942 -54.460  0.00  0.00     0.020 A 
ENDBRANCH   1   4
BRANCH   1   9
ATOM      9  N   UNL d   1     -41.287-122.886 -52.677  0.00  0.00    -0.156 NA
BRANCH   9  10
ATOM     10  C   UNL d   1     -41.557-122.454 -52.027  0.00  0.00     0.112 C 
BRANCH  10  11
ATOM     11  C   UNL d   1     -41.553-122.773 -51.273  0.00  0.00     0.028 C 
BRANCH  11  12
ATOM     12  C   UNL d   1     -41.838-122.332 -50.639  0.00  0.00     0.072 C 
BRANCH  12  13
ATOM     13  C   UNL d   1     -42.184-122.698 -49.985  0.00  0.00     0.211 C 
ATOM     14  O   UNL d   1     -41.721-123.054 -49.393  0.00  0.00    -0.644 OA
ATOM     15  O   UNL d   1     -43.003-122.719 -49.903  0.00  0.00    -0.644 OA
ENDBRANCH  12  13
ENDBRANCH  11  12
ENDBRANCH  10  11
ENDBRANCH   9  10
ENDBRANCH   1   9
TORSDOF 6
ENDMDL
MODEL 3
REMARK VINA RESULT:      -4.0      1.556      4.212
REMARK  6 active torsions:
REMARK  status: ('A' for Active; 'I' for Inactive)
REMARK    1  A    between atoms: C_2  and  S_1 
REMARK    2  A    between atoms: N_6  and  S_1 
REMARK    3  A    between atoms: C_14  and  N_6 
REMARK    4  A    between atoms: C_8  and  C_13 
REMARK    5  A    between atoms: C_13  and  C_15 
REMARK    6  A    between atoms: C_15  and  C_14 
ROOT
ATOM      1  S   UNL d   1     -41.267-122.827 -52.458  0.00  0.00     0.291 S 
ATOM      2  O   UNL d   1     -41.413-123.646 -52.385  0.00  0.00    -0.198 OA
ATOM      3  O   UNL d   1     -41.123-122.013 -52.527  0.00  0.00    -0.198 OA
ENDROOT
BRANCH   1   4
ATOM      4  C   UNL d   1     -41.324-122.886 -53.287  0.00  0.00     0.135 A 
ATOM      5  S   UNL d   1     -41.499-122.282 -53.811  0.00  0.00    -0.073 SA
ATOM      6  C   UNL d   1     -41.496-122.590 -54.579  0.00  0.00     0.036 A 
ATOM      7  C   UNL d   1     -41.324-123.367 -54.544  0.00  0.00     0.008 A 
ATOM      8  C   UNL d   1     -41.212-123.573 -53.744  0.00  0.00     0.020 A 
ENDBRANCH   1   4
BRANCH   1   9
ATOM      9  N   UNL d   1     -41.210-122.765 -51.623  0.00  0.00    -0.156 NA
BRANCH   9  10
ATOM     10  C   UNL d   1     -41.877-122.612 -51.160  0.00  0.00     0.112 C 
BRANCH  10  11
ATOM     11  C   UNL d   1     -41.877-122.755 -50.354  0.00  0.00     0.028 C 
BRANCH  11  12
ATOM     12  C   UNL d   1     -42.536-122.560 -49.902  0.00  0.00     0.072 C 
BRANCH  12  13
ATOM     13  C   UNL d   1     -42.685-122.932 -49.180  0.00  0.00     0.211 C 
ATOM     14  O   UNL d   1     -43.275-123.514 -49.107  0.00  0.00    -0.644 OA
ATOM     15  O   UNL d   1     -42.250-122.733 -48.511  0.00  0.00    -0.644 OA
ENDBRANCH  12  13
ENDBRANCH  11  12
ENDBRANCH  10  11
ENDBRANCH   9  10
ENDBRANCH   1   9
TORSDOF 6
ENDMDL
