MODEL 1
REMARK VINA RESULT:      15.4      0.000      0.000
REMARK  6 active torsions:
REMARK  status: ('A' for Active; 'I' for Inactive)
REMARK    1  A    between atoms: S_5  and  C_2 
REMARK    2  A    between atoms: C_16  and  S_5 
REMARK    3  A    between atoms: N_11  and  C_8 
REMARK    4  A    between atoms: C_18  and  N_11 
REMARK    5  A    between atoms: C_19  and  N_12 
REMARK    6  A    between atoms: C_27  and  C_19 
ROOT
ATOM      1  C   UNL d   1     -41.736-121.401 -53.114  0.00  0.00     0.197 A 
ATOM      2  C   UNL d   1     -41.850-121.121 -53.880  0.00  0.00     0.227 A 
ATOM      3  N   UNL d   1     -41.632-120.751 -52.620  0.00  0.00    -0.192 N 
ATOM      4  N   UNL d   1     -41.714-122.169 -52.803  0.00  0.00    -0.206 NA
ATOM      5  N   UNL d   1     -41.816-120.288 -53.859  0.00  0.00    -0.115 NA
ATOM      6  N   UNL d   1     -41.679-120.064 -53.071  0.00  0.00    -0.058 NA
ATOM      7  C   UNL d   1     -41.588-122.292 -51.995  0.00  0.00     0.166 A 
ATOM      8  C   UNL d   1     -41.483-121.635 -51.502  0.00  0.00     0.054 A 
ATOM      9  C   UNL d   1     -41.504-120.869 -51.808  0.00  0.00     0.089 A 
ATOM     10  C   UNL d   1     -41.399-120.215 -51.314  0.00  0.00     0.020 A 
ATOM     11  C   UNL d   1     -41.356-121.748 -50.692  0.00  0.00     0.016 A 
ATOM     12  C   UNL d   1     -41.251-121.098 -50.197  0.00  0.00     0.058 A 
ATOM     13  C   UNL d   1     -41.273-120.330 -50.508  0.00  0.00     0.013 A 
ATOM     14 CL   UNL d   1     -41.124-121.214 -49.392  0.00  0.00    -0.082 Cl
ENDROOT
BRANCH   7  15
ATOM     15  N   UNL d   1     -41.566-123.056 -51.684  0.00  0.00    -0.227 NA
BRANCH  15  16
ATOM     16  C   UNL d   1     -42.008-123.243 -51.016  0.00  0.00     0.086 A 
ATOM     17  C   UNL d   1     -41.653-123.634 -50.381  0.00  0.00     0.038 A 
ATOM     18  C   UNL d   1     -42.099-123.817 -49.718  0.00  0.00     0.082 A 
ATOM     19  N   UNL d   1     -42.904-123.613 -49.680  0.00  0.00    -0.302 N 
ATOM     20  C   UNL d   1     -43.251-123.223 -50.318  0.00  0.00     0.082 A 
ATOM     21  C   UNL d   1     -42.805-123.039 -50.981  0.00  0.00     0.038 A 
BRANCH  19  22
ATOM     22  C   UNL d   1     -43.348-123.798 -49.014  0.00  0.00     0.080 C 
BRANCH  22  23
ATOM     23  C   UNL d   1     -43.077-123.587 -48.264  0.00  0.00     0.018 A 
ATOM     24  C   UNL d   1     -43.555-123.149 -47.756  0.00  0.00     0.002 A 
ATOM     25  C   UNL d   1     -43.286-122.937 -47.005  0.00  0.00     0.000 A 
ATOM     26  C   UNL d   1     -42.533-123.166 -46.763  0.00  0.00     0.000 A 
ATOM     27  C   UNL d   1     -42.048-123.608 -47.273  0.00  0.00     0.000 A 
ATOM     28  C   UNL d   1     -42.323-123.816 -48.023  0.00  0.00     0.002 A 
ENDBRANCH  22  23
ENDBRANCH  19  22
ENDBRANCH  15  16
ENDBRANCH   7  15
BRANCH   2  29
ATOM     29  S   UNL d   1     -41.978-121.576 -54.562  0.00  0.00     0.231 S 
ATOM     30  O   UNL d   1     -41.190-121.806 -54.589  0.00  0.00    -0.215 OA
ATOM     31  O   UNL d   1     -42.772-121.343 -54.531  0.00  0.00    -0.215 OA
BRANCH  29  32
ATOM     32  C   UNL d   1     -42.160-122.013 -55.237  0.00  0.00     0.090 A 
ATOM     33  C   UNL d   1     -42.922-122.000 -55.536  0.00  0.00     0.011 A 
ATOM     34  C   UNL d   1     -43.105-122.436 -56.212  0.00  0.00     0.001 A 
ATOM     35  C   UNL d   1     -42.516-122.882 -56.580  0.00  0.00     0.000 A 
ATOM     36  C   UNL d   1     -41.746-122.893 -56.276  0.00  0.00     0.001 A 
ATOM     37  C   UNL d   1     -41.574-122.457 -55.604  0.00  0.00     0.011 A 
ENDBRANCH  29  32
ENDBRANCH   2  29
TORSDOF 6
ENDMDL
