MODEL 1
REMARK VINA RESULT:      45.2      0.000      0.000
REMARK  6 active torsions:
REMARK  status: ('A' for Active; 'I' for Inactive)
REMARK    1  A    between atoms: C_2  and  C_1 
REMARK       I    between atoms: N_5  and  C_2 
REMARK    2  A    between atoms: C_13  and  N_5 
REMARK    3  A    between atoms: C_14  and  C_6 
REMARK       I    between atoms: C_8  and  N_9 
REMARK    4  A    between atoms: N_9  and  C_15 
REMARK    5  A    between atoms: S_11  and  C_14 
REMARK    6  A    between atoms: C_16  and  S_11 
ROOT
ATOM      1  C   UNL d   1     -57.061 -98.962 -43.859  0.00  0.00     0.158 A 
ATOM      2  O   UNL d   1     -56.292 -99.174 -43.651  0.00  0.00    -0.302 OA
ATOM      3  C   UNL d   1     -57.067 -98.826 -44.676  0.00  0.00     0.032 A 
ATOM      4  C   UNL d   1     -55.829 -99.171 -44.324  0.00  0.00     0.107 A 
ATOM      5  C   UNL d   1     -56.305 -98.955 -44.964  0.00  0.00     0.027 A 
ENDROOT
BRANCH   1   6
ATOM      6  C   UNL d   1     -57.710 -98.895 -43.354  0.00  0.00     0.302 C 
ATOM      7  N   UNL d   1     -58.471 -98.825 -43.660  0.00  0.00    -0.206 NA
ATOM      8  O   UNL d   1     -57.590 -98.898 -42.542  0.00  0.00    -0.263 OA
BRANCH   7   9
ATOM      9  C   UNL d   1     -58.579 -98.823 -44.485  0.00  0.00     0.085 A 
ATOM     10  C   UNL d   1     -57.929 -98.756 -44.990  0.00  0.00     0.021 A 
ATOM     11  C   UNL d   1     -58.051 -98.755 -45.806  0.00  0.00     0.021 A 
ATOM     12  C   UNL d   1     -58.812 -98.822 -46.112  0.00  0.00     0.085 A 
ATOM     13  C   UNL d   1     -59.459 -98.889 -45.600  0.00  0.00     0.021 A 
ATOM     14  C   UNL d   1     -59.347 -98.890 -44.784  0.00  0.00     0.021 A 
BRANCH  12  15
ATOM     15  N   UNL d   1     -58.931 -98.821 -46.933  0.00  0.00    -0.208 NA
ATOM     16  C   UNL d   1     -59.464 -99.356 -47.268  0.00  0.00     0.279 C 
ATOM     17  O   UNL d   1     -59.875 -99.888 -46.797  0.00  0.00    -0.265 OA
ATOM     18  C   UNL d   1     -59.580 -99.354 -48.081  0.00  0.00     0.068 C 
ENDBRANCH  12  15
ENDBRANCH   7   9
ENDBRANCH   1   6
BRANCH   4  19
ATOM     19  C   UNL d   1     -55.024 -99.350 -44.368  0.00  0.00     0.060 C 
BRANCH  19  20
ATOM     20  S   UNL d   1     -54.763 -99.944 -44.873  0.00  0.00    -0.084 SA
BRANCH  20  21
ATOM     21  C   UNL d   1     -54.842-100.734 -44.665  0.00  0.00     0.029 A 
ATOM     22  C   UNL d   1     -54.856-101.307 -45.259  0.00  0.00     0.006 A 
ATOM     23  C   UNL d   1     -54.934-102.097 -45.051  0.00  0.00     0.001 A 
ATOM     24  C   UNL d   1     -54.998-102.317 -44.260  0.00  0.00     0.000 A 
ATOM     25  C   UNL d   1     -54.984-101.741 -43.666  0.00  0.00     0.001 A 
ATOM     26  C   UNL d   1     -54.905-100.951 -43.875  0.00  0.00     0.006 A 
ENDBRANCH  20  21
ENDBRANCH  19  20
ENDBRANCH   4  19
TORSDOF 6
ENDMDL
MODEL 2
REMARK VINA RESULT:      47.7      1.927      3.119
REMARK  6 active torsions:
REMARK  status: ('A' for Active; 'I' for Inactive)
REMARK    1  A    between atoms: C_2  and  C_1 
REMARK       I    between atoms: N_5  and  C_2 
REMARK    2  A    between atoms: C_13  and  N_5 
REMARK    3  A    between atoms: C_14  and  C_6 
REMARK       I    between atoms: C_8  and  N_9 
REMARK    4  A    between atoms: N_9  and  C_15 
REMARK    5  A    between atoms: S_11  and  C_14 
REMARK    6  A    between atoms: C_16  and  S_11 
ROOT
ATOM      1  C   UNL d   1     -55.405 -99.948 -44.473  0.00  0.00     0.158 A 
ATOM      2  O   UNL d   1     -54.882 -99.984 -43.837  0.00  0.00    -0.302 OA
ATOM      3  C   UNL d   1     -55.971-100.543 -44.362  0.00  0.00     0.032 A 
ATOM      4  C   UNL d   1     -55.117-100.588 -43.340  0.00  0.00     0.107 A 
ATOM      5  C   UNL d   1     -55.792-100.939 -43.661  0.00  0.00     0.027 A 
ENDROOT
BRANCH   1   6
ATOM      6  C   UNL d   1     -55.378 -99.420 -45.108  0.00  0.00     0.302 C 
ATOM      7  N   UNL d   1     -55.974 -98.862 -45.211  0.00  0.00    -0.206 NA
ATOM      8  O   UNL d   1     -54.750 -99.457 -45.636  0.00  0.00    -0.263 OA
BRANCH   7   9
ATOM      9  C   UNL d   1     -56.604 -98.835 -44.669  0.00  0.00     0.085 A 
ATOM     10  C   UNL d   1     -56.455 -98.808 -43.857  0.00  0.00     0.021 A 
ATOM     11  C   UNL d   1     -57.090 -98.782 -43.331  0.00  0.00     0.021 A 
ATOM     12  C   UNL d   1     -57.864 -98.782 -43.614  0.00  0.00     0.085 A 
ATOM     13  C   UNL d   1     -58.006 -98.809 -44.429  0.00  0.00     0.021 A 
ATOM     14  C   UNL d   1     -57.378 -98.836 -44.961  0.00  0.00     0.021 A 
BRANCH  12  15
ATOM     15  N   UNL d   1     -58.500 -98.755 -43.082  0.00  0.00    -0.208 NA
ATOM     16  C   UNL d   1     -59.206 -99.139 -43.273  0.00  0.00     0.279 C 
ATOM     17  O   UNL d   1     -59.284 -99.545 -43.982  0.00  0.00    -0.265 OA
ATOM     18  C   UNL d   1     -59.835 -99.111 -42.745  0.00  0.00     0.068 C 
ENDBRANCH  12  15
ENDBRANCH   7   9
ENDBRANCH   1   6
BRANCH   4  19
ATOM     19  C   UNL d   1     -54.749-100.817 -42.637  0.00  0.00     0.060 C 
BRANCH  19  20
ATOM     20  S   UNL d   1     -55.170-100.801 -41.930  0.00  0.00    -0.084 SA
BRANCH  20  21
ATOM     21  C   UNL d   1     -55.166-101.449 -41.427  0.00  0.00     0.029 A 
ATOM     22  C   UNL d   1     -55.554-101.397 -40.701  0.00  0.00     0.006 A 
ATOM     23  C   UNL d   1     -55.550-102.045 -40.198  0.00  0.00     0.001 A 
ATOM     24  C   UNL d   1     -55.165-102.739 -40.413  0.00  0.00     0.000 A 
ATOM     25  C   UNL d   1     -54.776-102.790 -41.142  0.00  0.00     0.001 A 
ATOM     26  C   UNL d   1     -54.780-102.142 -41.645  0.00  0.00     0.006 A 
ENDBRANCH  20  21
ENDBRANCH  19  20
ENDBRANCH   4  19
TORSDOF 6
ENDMDL
