MODEL 1
REMARK VINA RESULT:      65.4      0.000      0.000
REMARK  3 active torsions:
REMARK  status: ('A' for Active; 'I' for Inactive)
REMARK    1  A    between atoms: C_5  and  C_1 
REMARK    2  A    between atoms: N_11  and  C_9 
REMARK    3  A    between atoms: C_17  and  N_11 
ROOT
ATOM      1  C   UNL d   1      60.736  49.043  51.189  0.00  0.00     0.075 A 
ATOM      2  C   UNL d   1      59.950  49.207  51.025  0.00  0.00     0.004 A 
ATOM      3  C   UNL d   1      59.427  49.372  51.653  0.00  0.00     0.004 A 
ATOM      4  C   UNL d   1      61.014  49.042  51.983  0.00  0.00     0.046 A 
ATOM      5  C   UNL d   1      60.509  49.201  52.593  0.00  0.00     0.196 A 
ATOM      6  C   UNL d   1      59.719  49.366  52.429  0.00  0.00     0.039 A 
ATOM      7  C   UNL d   1      58.635  49.537  51.488  0.00  0.00     0.018 A 
ATOM      8  C   UNL d   1      58.363  49.538  50.695  0.00  0.00     0.081 A 
ATOM      9  C   UNL d   1      59.683  49.208  50.260  0.00  0.00     0.002 A 
ATOM     10  C   UNL d   1      58.891  49.373  50.095  0.00  0.00     0.019 A 
ATOM     11  O   UNL d   1      60.827  49.191  53.396  0.00  0.00    -0.287 OA
ATOM     12  C   UNL d   1      59.187  49.535  53.076  0.00  0.00     0.003 A 
ATOM     13  C   UNL d   1      58.099  49.707  52.134  0.00  0.00     0.002 A 
ATOM     14  C   UNL d   1      58.379  49.701  52.887  0.00  0.00     0.000 A 
ENDROOT
BRANCH   8  15
ATOM     15  N   UNL d   1      57.572  49.702  50.531  0.00  0.00    -0.246 NA
BRANCH  15  16
ATOM     16  C   UNL d   1      57.110  49.157  50.101  0.00  0.00     0.081 A 
ATOM     17  C   UNL d   1      57.015  48.375  50.388  0.00  0.00     0.019 A 
ATOM     18  C   UNL d   1      56.555  47.834  49.958  0.00  0.00     0.002 A 
ATOM     19  C   UNL d   1      56.206  48.053  49.279  0.00  0.00     0.000 A 
ATOM     20  C   UNL d   1      56.285  48.810  48.980  0.00  0.00     0.002 A 
ATOM     21  C   UNL d   1      56.738  49.361  49.393  0.00  0.00     0.019 A 
ENDBRANCH  15  16
ENDBRANCH   8  15
BRANCH   1  22
ATOM     22  C   UNL d   1      61.278  48.872  50.544  0.00  0.00     0.419 C 
ATOM     23  F   UNL d   1      61.797  48.717  49.922  0.00  0.00    -0.166 F 
ATOM     24  F   UNL d   1      61.301  48.069  50.784  0.00  0.00    -0.166 F 
ATOM     25  F   UNL d   1      61.234  49.687  50.327  0.00  0.00    -0.166 F 
ENDBRANCH   1  22
TORSDOF 3
ENDMDL
