MODEL 1
REMARK VINA RESULT:      17.6      0.000      0.000
REMARK  5 active torsions:
REMARK  status: ('A' for Active; 'I' for Inactive)
REMARK    1  A    between atoms: C_8  and  C_1 
REMARK    2  A    between atoms: C_9  and  C_2 
REMARK    3  A    between atoms: S_6  and  C_4 
REMARK    4  A    between atoms: C_11  and  S_6 
REMARK    5  A    between atoms: C_7  and  C_11 
ROOT
ATOM      1  C   UNL d   1      46.087 -18.055  43.983  0.00  0.00     0.107 A 
ATOM      2  C   UNL d   1      46.249 -17.833  43.206  0.00  0.00     0.120 A 
ATOM      3  N   UNL d   1      46.023 -17.365  44.427  0.00  0.00    -0.214 NA
ATOM      4  C   UNL d   1      46.146 -16.730  43.920  0.00  0.00     0.215 A 
ATOM      5  O   UNL d   1      46.285 -17.028  43.166  0.00  0.00    -0.283 OA
ENDROOT
BRANCH   1   6
ATOM      6  C   UNL d   1      45.998 -18.814  44.303  0.00  0.00     0.020 A 
ATOM      7  C   UNL d   1      45.242 -19.181  44.282  0.00  0.00     0.002 A 
ATOM      8  C   UNL d   1      45.157 -19.955  44.610  0.00  0.00     0.000 A 
ATOM      9  C   UNL d   1      45.804 -20.330  44.939  0.00  0.00     0.000 A 
ATOM     10  C   UNL d   1      46.547 -19.960  44.955  0.00  0.00     0.000 A 
ATOM     11  C   UNL d   1      46.646 -19.203  44.638  0.00  0.00     0.002 A 
ENDBRANCH   1   6
BRANCH   2  12
ATOM     12  C   UNL d   1      46.361 -18.324  42.557  0.00  0.00     0.024 A 
ATOM     13  C   UNL d   1      46.302 -18.028  41.788  0.00  0.00     0.002 A 
ATOM     14  C   UNL d   1      46.413 -18.514  41.129  0.00  0.00     0.000 A 
ATOM     15  C   UNL d   1      46.584 -19.302  41.249  0.00  0.00     0.000 A 
ATOM     16  C   UNL d   1      46.644 -19.607  42.012  0.00  0.00     0.000 A 
ATOM     17  C   UNL d   1      46.533 -19.116  42.662  0.00  0.00     0.002 A 
ENDBRANCH   2  12
BRANCH   4  18
ATOM     18  S   UNL d   1      46.127 -15.933  44.157  0.00  0.00    -0.037 SA
BRANCH  18  19
ATOM     19  C   UNL d   1      45.412 -15.614  44.459  0.00  0.00     0.103 C 
BRANCH  19  20
ATOM     20  C   UNL d   1      45.350 -14.813  44.576  0.00  0.00     0.303 C 
ATOM     21  O   UNL d   1      46.025 -14.319  44.488  0.00  0.00    -0.263 OA
ATOM     22  N   UNL d   1      44.621 -14.478  44.782  0.00  0.00    -0.102 N 
ENDBRANCH  19  20
ENDBRANCH  18  19
ENDBRANCH   4  18
TORSDOF 5
ENDMDL
MODEL 2
REMARK VINA RESULT:      20.3      0.570      2.344
REMARK  5 active torsions:
REMARK  status: ('A' for Active; 'I' for Inactive)
REMARK    1  A    between atoms: C_8  and  C_1 
REMARK    2  A    between atoms: C_9  and  C_2 
REMARK    3  A    between atoms: S_6  and  C_4 
REMARK    4  A    between atoms: C_11  and  S_6 
REMARK    5  A    between atoms: C_7  and  C_11 
ROOT
ATOM      1  C   UNL d   1      46.106 -17.649  43.459  0.00  0.00     0.107 A 
ATOM      2  C   UNL d   1      45.966 -17.956  44.210  0.00  0.00     0.120 A 
ATOM      3  N   UNL d   1      46.046 -16.830  43.513  0.00  0.00    -0.214 NA
ATOM      4  C   UNL d   1      45.869 -16.644  44.294  0.00  0.00     0.215 A 
ATOM      5  O   UNL d   1      45.821 -17.347  44.720  0.00  0.00    -0.283 OA
ENDROOT
BRANCH   1   6
ATOM      6  C   UNL d   1      46.280 -18.048  42.754  0.00  0.00     0.020 A 
ATOM      7  C   UNL d   1      46.283 -18.888  42.749  0.00  0.00     0.002 A 
ATOM      8  C   UNL d   1      46.461 -19.289  42.027  0.00  0.00     0.000 A 
ATOM      9  C   UNL d   1      46.624 -18.858  41.352  0.00  0.00     0.000 A 
ATOM     10  C   UNL d   1      46.618 -18.028  41.367  0.00  0.00     0.000 A 
ATOM     11  C   UNL d   1      46.447 -17.621  42.065  0.00  0.00     0.002 A 
ENDBRANCH   1   6
BRANCH   2  12
ATOM     12  C   UNL d   1      45.965 -18.746  44.438  0.00  0.00     0.024 A 
ATOM     13  C   UNL d   1      45.277 -19.102  44.724  0.00  0.00     0.002 A 
ATOM     14  C   UNL d   1      45.267 -19.896  44.955  0.00  0.00     0.000 A 
ATOM     15  C   UNL d   1      45.955 -20.329  44.896  0.00  0.00     0.000 A 
ATOM     16  C   UNL d   1      46.646 -19.982  44.611  0.00  0.00     0.000 A 
ATOM     17  C   UNL d   1      46.646 -19.192  44.384  0.00  0.00     0.002 A 
ENDBRANCH   2  12
BRANCH   4  18
ATOM     18  S   UNL d   1      45.762 -15.870  44.577  0.00  0.00    -0.037 SA
BRANCH  18  19
ATOM     19  C   UNL d   1      45.574 -15.259  44.033  0.00  0.00     0.103 C 
BRANCH  19  20
ATOM     20  C   UNL d   1      45.422 -14.511  44.310  0.00  0.00     0.303 C 
ATOM     21  O   UNL d   1      46.054 -14.017  44.563  0.00  0.00    -0.263 OA
ATOM     22  N   UNL d   1      44.644 -14.230  44.344  0.00  0.00    -0.102 N 
ENDBRANCH  19  20
ENDBRANCH  18  19
ENDBRANCH   4  18
TORSDOF 5
ENDMDL
