MODEL 1
REMARK VINA RESULT:      -2.3      0.000      0.000
REMARK  8 active torsions:
REMARK  status: ('A' for Active; 'I' for Inactive)
REMARK    1  A    between atoms: C_2  and  P_1 
REMARK    2  A    between atoms: O_5  and  P_1 
REMARK    3  A    between atoms: O_6  and  P_1 
REMARK    4  A    between atoms: N_3  and  C_2 
REMARK       I    between atoms: C_4  and  N_3 
REMARK    5  A    between atoms: C_9  and  C_4 
REMARK    6  A    between atoms: C_12  and  O_5 
REMARK    7  A    between atoms: C_11  and  O_6 
REMARK    8  A    between atoms: C_10  and  C_9 
ROOT
ATOM      1  C   UNL d   1      32.593  18.093 -23.621  0.00  0.00     0.165 C 
ATOM      2  C   UNL d   1      32.899  18.542 -24.241  0.00  0.00     0.029 C 
ENDROOT
BRANCH   1   3
ATOM      3  P   UNL d   1      32.350  17.313 -23.746  0.00  0.00     0.392 P 
ATOM      4  O   UNL d   1      32.814  17.071 -23.076  0.00  0.00    -0.251 OA
BRANCH   3   5
ATOM      5  O   UNL d   1      32.107  16.508 -23.865  0.00  0.00    -0.265 OA
BRANCH   5   6
ATOM      6  C   UNL d   1      32.625  15.890 -23.691  0.00  0.00     0.103 C 
ATOM      7  C   UNL d   1      32.587  15.516 -22.963  0.00  0.00     0.027 C 
ATOM      8  C   UNL d   1      33.186  15.635 -24.237  0.00  0.00     0.027 C 
ENDBRANCH   5   6
ENDBRANCH   3   5
BRANCH   3   9
ATOM      9  O   UNL d   1      31.901  17.557 -24.396  0.00  0.00    -0.265 OA
BRANCH   9  10
ATOM     10  C   UNL d   1      31.106  17.351 -24.447  0.00  0.00     0.103 C 
ATOM     11  C   UNL d   1      30.832  16.946 -25.097  0.00  0.00     0.027 C 
ATOM     12  C   UNL d   1      30.600  17.551 -23.856  0.00  0.00     0.027 C 
ENDBRANCH   9  10
ENDBRANCH   3   9
ENDBRANCH   1   3
BRANCH   1  13
ATOM     13  N   UNL d   1      32.530  18.428 -22.871  0.00  0.00    -0.200 NA
ATOM     14  C   UNL d   1      32.855  19.183 -22.728  0.00  0.00     0.280 C 
ATOM     15  O   UNL d   1      33.238  19.595 -23.333  0.00  0.00    -0.265 OA
BRANCH  14  16
ATOM     16  C   UNL d   1      32.783  19.515 -21.954  0.00  0.00     0.062 C 
BRANCH  16  17
ATOM     17  C   UNL d   1      32.792  20.366 -21.885  0.00  0.00     0.005 A 
ATOM     18  C   UNL d   1      32.530  20.709 -21.171  0.00  0.00     0.000 A 
ATOM     19  C   UNL d   1      32.528  21.537 -21.076  0.00  0.00     0.000 A 
ATOM     20  C   UNL d   1      32.790  22.011 -21.698  0.00  0.00     0.000 A 
ATOM     21  C   UNL d   1      33.053  21.654 -22.414  0.00  0.00     0.000 A 
ATOM     22  C   UNL d   1      33.054  20.838 -22.507  0.00  0.00     0.000 A 
ENDBRANCH  16  17
ENDBRANCH  14  16
ENDBRANCH   1  13
TORSDOF 8
ENDMDL
MODEL 2
REMARK VINA RESULT:      -2.0      1.669      4.471
REMARK  8 active torsions:
REMARK  status: ('A' for Active; 'I' for Inactive)
REMARK    1  A    between atoms: C_2  and  P_1 
REMARK    2  A    between atoms: O_5  and  P_1 
REMARK    3  A    between atoms: O_6  and  P_1 
REMARK    4  A    between atoms: N_3  and  C_2 
REMARK       I    between atoms: C_4  and  N_3 
REMARK    5  A    between atoms: C_9  and  C_4 
REMARK    6  A    between atoms: C_12  and  O_5 
REMARK    7  A    between atoms: C_11  and  O_6 
REMARK    8  A    between atoms: C_10  and  C_9 
ROOT
ATOM      1  C   UNL d   1      31.737  17.638 -24.389  0.00  0.00     0.165 C 
ATOM      2  C   UNL d   1      31.912  17.088 -24.978  0.00  0.00     0.029 C 
ENDROOT
BRANCH   1   3
ATOM      3  P   UNL d   1      32.341  18.068 -24.023  0.00  0.00     0.392 P 
ATOM      4  O   UNL d   1      31.818  18.736 -23.965  0.00  0.00    -0.251 OA
BRANCH   3   5
ATOM      5  O   UNL d   1      32.954  18.520 -23.646  0.00  0.00    -0.265 OA
BRANCH   5   6
ATOM      6  C   UNL d   1      32.998  19.336 -23.762  0.00  0.00     0.103 C 
ATOM      7  C   UNL d   1      32.799  19.847 -23.155  0.00  0.00     0.027 C 
ATOM      8  C   UNL d   1      33.240  19.653 -24.482  0.00  0.00     0.027 C 
ENDBRANCH   5   6
ENDBRANCH   3   5
BRANCH   3   9
ATOM      9  O   UNL d   1      32.844  17.415 -24.083  0.00  0.00    -0.265 OA
BRANCH   9  10
ATOM     10  C   UNL d   1      33.103  17.030 -23.403  0.00  0.00     0.103 C 
ATOM     11  C   UNL d   1      33.220  17.452 -22.718  0.00  0.00     0.027 C 
ATOM     12  C   UNL d   1      33.240  16.239 -23.416  0.00  0.00     0.027 C 
ENDBRANCH   9  10
ENDBRANCH   3   9
ENDBRANCH   1   3
BRANCH   1  13
ATOM     13  N   UNL d   1      30.954  17.759 -24.165  0.00  0.00    -0.200 NA
ATOM     14  C   UNL d   1      30.350  17.307 -24.522  0.00  0.00     0.280 C 
ATOM     15  O   UNL d   1      30.534  16.742 -25.096  0.00  0.00    -0.265 OA
BRANCH  14  16
ATOM     16  C   UNL d   1      29.550  17.440 -24.284  0.00  0.00     0.062 C 
BRANCH  16  17
ATOM     17  C   UNL d   1      29.099  16.768 -24.013  0.00  0.00     0.005 A 
ATOM     18  C   UNL d   1      28.518  16.449 -24.518  0.00  0.00     0.000 A 
ATOM     19  C   UNL d   1      28.063  15.793 -24.279  0.00  0.00     0.000 A 
ATOM     20  C   UNL d   1      28.197  15.465 -23.534  0.00  0.00     0.000 A 
ATOM     21  C   UNL d   1      28.787  15.795 -23.031  0.00  0.00     0.000 A 
ATOM     22  C   UNL d   1      29.234  16.441 -23.269  0.00  0.00     0.000 A 
ENDBRANCH  16  17
ENDBRANCH  14  16
ENDBRANCH   1  13
TORSDOF 8
ENDMDL
MODEL 3
REMARK VINA RESULT:      -0.6      1.413      4.728
REMARK  8 active torsions:
REMARK  status: ('A' for Active; 'I' for Inactive)
REMARK    1  A    between atoms: C_2  and  P_1 
REMARK    2  A    between atoms: O_5  and  P_1 
REMARK    3  A    between atoms: O_6  and  P_1 
REMARK    4  A    between atoms: N_3  and  C_2 
REMARK       I    between atoms: C_4  and  N_3 
REMARK    5  A    between atoms: C_9  and  C_4 
REMARK    6  A    between atoms: C_12  and  O_5 
REMARK    7  A    between atoms: C_11  and  O_6 
REMARK    8  A    between atoms: C_10  and  C_9 
ROOT
ATOM      1  C   UNL d   1      33.097  20.119 -22.376  0.00  0.00     0.165 C 
ATOM      2  C   UNL d   1      33.232  19.668 -21.698  0.00  0.00     0.029 C 
ENDROOT
BRANCH   1   3
ATOM      3  P   UNL d   1      33.051  20.943 -22.331  0.00  0.00     0.392 P 
ATOM      4  O   UNL d   1      32.934  20.972 -23.173  0.00  0.00    -0.251 OA
BRANCH   3   5
ATOM      5  O   UNL d   1      33.003  21.790 -22.298  0.00  0.00    -0.265 OA
BRANCH   5   6
ATOM      6  C   UNL d   1      33.157  22.240 -22.972  0.00  0.00     0.103 C 
ATOM      7  C   UNL d   1      33.230  23.054 -22.913  0.00  0.00     0.027 C 
ATOM      8  C   UNL d   1      33.241  21.889 -23.711  0.00  0.00     0.027 C 
ENDBRANCH   5   6
ENDBRANCH   3   5
BRANCH   3   9
ATOM      9  O   UNL d   1      33.166  20.905 -21.513  0.00  0.00    -0.265 OA
BRANCH   9  10
ATOM     10  C   UNL d   1      32.735  21.398 -21.014  0.00  0.00     0.103 C 
ATOM     11  C   UNL d   1      33.101  22.024 -20.647  0.00  0.00     0.027 C 
ATOM     12  C   UNL d   1      31.954  21.261 -20.890  0.00  0.00     0.027 C 
ENDBRANCH   9  10
ENDBRANCH   3   9
ENDBRANCH   1   3
BRANCH   1  13
ATOM     13  N   UNL d   1      33.007  19.741 -23.102  0.00  0.00    -0.200 NA
ATOM     14  C   UNL d   1      32.982  18.908 -23.133  0.00  0.00     0.280 C 
ATOM     15  O   UNL d   1      33.047  18.462 -22.440  0.00  0.00    -0.265 OA
BRANCH  14  16
ATOM     16  C   UNL d   1      32.890  18.532 -23.884  0.00  0.00     0.062 C 
BRANCH  16  17
ATOM     17  C   UNL d   1      32.424  17.817 -23.917  0.00  0.00     0.005 A 
ATOM     18  C   UNL d   1      31.619  17.877 -24.125  0.00  0.00     0.000 A 
ATOM     19  C   UNL d   1      31.141  17.196 -24.165  0.00  0.00     0.000 A 
ATOM     20  C   UNL d   1      31.477  16.463 -23.995  0.00  0.00     0.000 A 
ATOM     21  C   UNL d   1      32.291  16.413 -23.785  0.00  0.00     0.000 A 
ATOM     22  C   UNL d   1      32.761  17.085 -23.747  0.00  0.00     0.000 A 
ENDBRANCH  16  17
ENDBRANCH  14  16
ENDBRANCH   1  13
TORSDOF 8
ENDMDL
MODEL 4
REMARK VINA RESULT:      -0.1      2.161      5.082
REMARK  8 active torsions:
REMARK  status: ('A' for Active; 'I' for Inactive)
REMARK    1  A    between atoms: C_2  and  P_1 
REMARK    2  A    between atoms: O_5  and  P_1 
REMARK    3  A    between atoms: O_6  and  P_1 
REMARK    4  A    between atoms: N_3  and  C_2 
REMARK       I    between atoms: C_4  and  N_3 
REMARK    5  A    between atoms: C_9  and  C_4 
REMARK    6  A    between atoms: C_12  and  O_5 
REMARK    7  A    between atoms: C_11  and  O_6 
REMARK    8  A    between atoms: C_10  and  C_9 
ROOT
ATOM      1  C   UNL d   1      32.483  21.206 -21.518  0.00  0.00     0.165 C 
ATOM      2  C   UNL d   1      31.816  20.855 -21.183  0.00  0.00     0.029 C 
ENDROOT
BRANCH   1   3
ATOM      3  P   UNL d   1      32.694  21.981 -21.321  0.00  0.00     0.392 P 
ATOM      4  O   UNL d   1      32.367  21.862 -20.545  0.00  0.00    -0.251 OA
BRANCH   3   5
ATOM      5  O   UNL d   1      32.905  22.775 -21.107  0.00  0.00    -0.265 OA
BRANCH   5   6
ATOM      6  C   UNL d   1      32.870  23.015 -20.318  0.00  0.00     0.103 C 
ATOM      7  C   UNL d   1      33.239  22.570 -19.738  0.00  0.00     0.027 C 
ATOM      8  C   UNL d   1      32.470  23.699 -20.096  0.00  0.00     0.027 C 
ENDBRANCH   5   6
ENDBRANCH   3   5
BRANCH   3   9
ATOM      9  O   UNL d   1      33.008  22.088 -22.078  0.00  0.00    -0.265 OA
BRANCH   9  10
ATOM     10  C   UNL d   1      32.752  22.715 -22.545  0.00  0.00     0.103 C 
ATOM     11  C   UNL d   1      33.222  22.992 -23.147  0.00  0.00     0.027 C 
ATOM     12  C   UNL d   1      32.036  23.053 -22.406  0.00  0.00     0.027 C 
ENDBRANCH   9  10
ENDBRANCH   3   9
ENDBRANCH   1   3
BRANCH   1  13
ATOM     13  N   UNL d   1      32.941  20.779 -22.053  0.00  0.00    -0.200 NA
ATOM     14  C   UNL d   1      32.763  19.978 -22.200  0.00  0.00     0.280 C 
ATOM     15  O   UNL d   1      32.131  19.612 -21.813  0.00  0.00    -0.265 OA
BRANCH  14  16
ATOM     16  C   UNL d   1      33.241  19.551 -22.751  0.00  0.00     0.062 C 
BRANCH  16  17
ATOM     17  C   UNL d   1      32.845  19.145 -23.389  0.00  0.00     0.005 A 
ATOM     18  C   UNL d   1      32.529  18.387 -23.243  0.00  0.00     0.000 A 
ATOM     19  C   UNL d   1      32.138  17.969 -23.848  0.00  0.00     0.000 A 
ATOM     20  C   UNL d   1      32.068  18.316 -24.593  0.00  0.00     0.000 A 
ATOM     21  C   UNL d   1      32.391  19.082 -24.730  0.00  0.00     0.000 A 
ATOM     22  C   UNL d   1      32.776  19.493 -24.133  0.00  0.00     0.000 A 
ENDBRANCH  16  17
ENDBRANCH  14  16
ENDBRANCH   1  13
TORSDOF 8
ENDMDL
MODEL 5
REMARK VINA RESULT:       0.3      1.100      2.246
REMARK  8 active torsions:
REMARK  status: ('A' for Active; 'I' for Inactive)
REMARK    1  A    between atoms: C_2  and  P_1 
REMARK    2  A    between atoms: O_5  and  P_1 
REMARK    3  A    between atoms: O_6  and  P_1 
REMARK    4  A    between atoms: N_3  and  C_2 
REMARK       I    between atoms: C_4  and  N_3 
REMARK    5  A    between atoms: C_9  and  C_4 
REMARK    6  A    between atoms: C_12  and  O_5 
REMARK    7  A    between atoms: C_11  and  O_6 
REMARK    8  A    between atoms: C_10  and  C_9 
ROOT
ATOM      1  C   UNL d   1      32.905  19.217 -22.664  0.00  0.00     0.165 C 
ATOM      2  C   UNL d   1      33.232  18.926 -21.965  0.00  0.00     0.029 C 
ENDROOT
BRANCH   1   3
ATOM      3  P   UNL d   1      32.678  18.701 -23.269  0.00  0.00     0.392 P 
ATOM      4  O   UNL d   1      32.349  19.360 -23.694  0.00  0.00    -0.251 OA
BRANCH   3   5
ATOM      5  O   UNL d   1      32.440  18.181 -23.896  0.00  0.00    -0.265 OA
BRANCH   5   6
ATOM      6  C   UNL d   1      32.112  18.490 -24.587  0.00  0.00     0.103 C 
ATOM      7  C   UNL d   1      32.568  18.948 -25.089  0.00  0.00     0.027 C 
ATOM      8  C   UNL d   1      31.327  18.346 -24.789  0.00  0.00     0.027 C 
ENDBRANCH   5   6
ENDBRANCH   3   5
BRANCH   3   9
ATOM      9  O   UNL d   1      33.000  18.066 -22.848  0.00  0.00    -0.265 OA
BRANCH   9  10
ATOM     10  C   UNL d   1      32.751  17.298 -23.009  0.00  0.00     0.103 C 
ATOM     11  C   UNL d   1      32.017  17.050 -22.765  0.00  0.00     0.027 C 
ATOM     12  C   UNL d   1      33.235  16.794 -23.405  0.00  0.00     0.027 C 
ENDBRANCH   9  10
ENDBRANCH   3   9
ENDBRANCH   1   3
BRANCH   1  13
ATOM     13  N   UNL d   1      32.805  20.029 -22.757  0.00  0.00    -0.200 NA
ATOM     14  C   UNL d   1      32.934  20.537 -22.108  0.00  0.00     0.280 C 
ATOM     15  O   UNL d   1      33.160  20.230 -21.375  0.00  0.00    -0.265 OA
BRANCH  14  16
ATOM     16  C   UNL d   1      32.827  21.368 -22.217  0.00  0.00     0.062 C 
BRANCH  16  17
ATOM     17  C   UNL d   1      32.572  21.828 -21.544  0.00  0.00     0.005 A 
ATOM     18  C   UNL d   1      32.888  22.593 -21.442  0.00  0.00     0.000 A 
ATOM     19  C   UNL d   1      32.657  23.064 -20.795  0.00  0.00     0.000 A 
ATOM     20  C   UNL d   1      32.111  22.760 -20.257  0.00  0.00     0.000 A 
ATOM     21  C   UNL d   1      31.798  21.986 -20.368  0.00  0.00     0.000 A 
ATOM     22  C   UNL d   1      32.027  21.524 -21.007  0.00  0.00     0.000 A 
ENDBRANCH  16  17
ENDBRANCH  14  16
ENDBRANCH   1  13
TORSDOF 8
ENDMDL
MODEL 6
REMARK VINA RESULT:       0.6      2.493      3.824
REMARK  8 active torsions:
REMARK  status: ('A' for Active; 'I' for Inactive)
REMARK    1  A    between atoms: C_2  and  P_1 
REMARK    2  A    between atoms: O_5  and  P_1 
REMARK    3  A    between atoms: O_6  and  P_1 
REMARK    4  A    between atoms: N_3  and  C_2 
REMARK       I    between atoms: C_4  and  N_3 
REMARK    5  A    between atoms: C_9  and  C_4 
REMARK    6  A    between atoms: C_12  and  O_5 
REMARK    7  A    between atoms: C_11  and  O_6 
REMARK    8  A    between atoms: C_10  and  C_9 
ROOT
ATOM      1  C   UNL d   1      29.554  16.985 -24.107  0.00  0.00     0.165 C 
ATOM      2  C   UNL d   1      29.234  17.737 -24.000  0.00  0.00     0.029 C 
ENDROOT
BRANCH   1   3
ATOM      3  P   UNL d   1      29.084  16.310 -24.020  0.00  0.00     0.392 P 
ATOM      4  O   UNL d   1      28.436  16.728 -24.380  0.00  0.00    -0.251 OA
BRANCH   3   5
ATOM      5  O   UNL d   1      28.591  15.624 -23.936  0.00  0.00    -0.265 OA
BRANCH   5   6
ATOM      6  C   UNL d   1      27.841  15.609 -24.280  0.00  0.00     0.103 C 
ATOM      7  C   UNL d   1      27.763  15.496 -25.087  0.00  0.00     0.027 C 
ATOM      8  C   UNL d   1      27.160  15.704 -23.828  0.00  0.00     0.027 C 
ENDBRANCH   5   6
ENDBRANCH   3   5
BRANCH   3   9
ATOM      9  O   UNL d   1      29.719  15.912 -23.671  0.00  0.00    -0.265 OA
BRANCH   9  10
ATOM     10  C   UNL d   1      29.663  15.652 -22.892  0.00  0.00     0.103 C 
ATOM     11  C   UNL d   1      30.332  15.596 -22.434  0.00  0.00     0.027 C 
ATOM     12  C   UNL d   1      28.948  15.454 -22.584  0.00  0.00     0.027 C 
ENDBRANCH   9  10
ENDBRANCH   3   9
ENDBRANCH   1   3
BRANCH   1  13
ATOM     13  N   UNL d   1      30.351  16.907 -24.301  0.00  0.00    -0.200 NA
ATOM     14  C   UNL d   1      30.731  17.513 -24.731  0.00  0.00     0.280 C 
ATOM     15  O   UNL d   1      30.312  18.187 -24.962  0.00  0.00    -0.265 OA
BRANCH  14  16
ATOM     16  C   UNL d   1      31.548  17.421 -24.925  0.00  0.00     0.062 C 
BRANCH  16  17
ATOM     17  C   UNL d   1      32.095  18.005 -24.627  0.00  0.00     0.005 A 
ATOM     18  C   UNL d   1      32.383  17.919 -23.848  0.00  0.00     0.000 A 
ATOM     19  C   UNL d   1      32.918  18.475 -23.532  0.00  0.00     0.000 A 
ATOM     20  C   UNL d   1      33.157  19.110 -24.000  0.00  0.00     0.000 A 
ATOM     21  C   UNL d   1      32.860  19.187 -24.785  0.00  0.00     0.000 A 
ATOM     22  C   UNL d   1      32.333  18.639 -25.095  0.00  0.00     0.000 A 
ENDBRANCH  16  17
ENDBRANCH  14  16
ENDBRANCH   1  13
TORSDOF 8
ENDMDL
MODEL 7
REMARK VINA RESULT:       0.7      1.230      2.383
REMARK  8 active torsions:
REMARK  status: ('A' for Active; 'I' for Inactive)
REMARK    1  A    between atoms: C_2  and  P_1 
REMARK    2  A    between atoms: O_5  and  P_1 
REMARK    3  A    between atoms: O_6  and  P_1 
REMARK    4  A    between atoms: N_3  and  C_2 
REMARK       I    between atoms: C_4  and  N_3 
REMARK    5  A    between atoms: C_9  and  C_4 
REMARK    6  A    between atoms: C_12  and  O_5 
REMARK    7  A    between atoms: C_11  and  O_6 
REMARK    8  A    between atoms: C_10  and  C_9 
ROOT
ATOM      1  C   UNL d   1      31.487  17.274 -24.046  0.00  0.00     0.165 C 
ATOM      2  C   UNL d   1      31.759  16.625 -23.615  0.00  0.00     0.029 C 
ENDROOT
BRANCH   1   3
ATOM      3  P   UNL d   1      30.776  17.233 -24.465  0.00  0.00     0.392 P 
ATOM      4  O   UNL d   1      30.513  17.938 -24.069  0.00  0.00    -0.251 OA
BRANCH   3   5
ATOM      5  O   UNL d   1      30.041  17.201 -24.889  0.00  0.00    -0.265 OA
BRANCH   5   6
ATOM      6  C   UNL d   1      29.445  17.747 -24.727  0.00  0.00     0.103 C 
ATOM      7  C   UNL d   1      28.845  17.556 -24.204  0.00  0.00     0.027 C 
ATOM      8  C   UNL d   1      29.438  18.490 -25.081  0.00  0.00     0.027 C 
ENDBRANCH   5   6
ENDBRANCH   3   5
BRANCH   3   9
ATOM      9  O   UNL d   1      31.039  16.547 -24.845  0.00  0.00    -0.265 OA
BRANCH   9  10
ATOM     10  C   UNL d   1      30.732  15.814 -24.630  0.00  0.00     0.103 C 
ATOM     11  C   UNL d   1      30.172  15.455 -25.097  0.00  0.00     0.027 C 
ATOM     12  C   UNL d   1      30.987  15.453 -23.959  0.00  0.00     0.027 C 
ENDBRANCH   9  10
ENDBRANCH   3   9
ENDBRANCH   1   3
BRANCH   1  13
ATOM     13  N   UNL d   1      31.931  17.968 -24.057  0.00  0.00    -0.200 NA
ATOM     14  C   UNL d   1      32.686  17.979 -23.702  0.00  0.00     0.280 C 
ATOM     15  O   UNL d   1      32.989  17.301 -23.341  0.00  0.00    -0.265 OA
BRANCH  14  16
ATOM     16  C   UNL d   1      33.131  18.697 -23.721  0.00  0.00     0.062 C 
BRANCH  16  17
ATOM     17  C   UNL d   1      33.076  19.217 -23.045  0.00  0.00     0.005 A 
ATOM     18  C   UNL d   1      33.237  18.904 -22.289  0.00  0.00     0.000 A 
ATOM     19  C   UNL d   1      33.191  19.388 -21.612  0.00  0.00     0.000 A 
ATOM     20  C   UNL d   1      32.984  20.181 -21.703  0.00  0.00     0.000 A 
ATOM     21  C   UNL d   1      32.824  20.487 -22.471  0.00  0.00     0.000 A 
ATOM     22  C   UNL d   1      32.869  20.009 -23.137  0.00  0.00     0.000 A 
ENDBRANCH  16  17
ENDBRANCH  14  16
ENDBRANCH   1  13
TORSDOF 8
ENDMDL
