MODEL 1
REMARK VINA RESULT:      -3.0      0.000      0.000
REMARK  6 active torsions:
REMARK  status: ('A' for Active; 'I' for Inactive)
REMARK    1  A    between atoms: C_6  and  C_2 
REMARK    2  A    between atoms: C_7  and  C_6 
REMARK    3  A    between atoms: C_8  and  C_15 
REMARK       I    between atoms: N_9  and  C_8 
REMARK    4  A    between atoms: C_16  and  N_9 
REMARK    5  A    between atoms: O_13  and  C_12 
REMARK    6  A    between atoms: C_15  and  O_13 
ROOT
ATOM      1  C   UNL d   1      33.160  21.081 -22.030  0.00  0.00     0.023 A 
ATOM      2  C   UNL d   1      33.188  20.360 -22.428  0.00  0.00     0.100 A 
ATOM      3  C   UNL d   1      33.154  21.103 -21.210  0.00  0.00     0.002 A 
ATOM      4  C   UNL d   1      33.211  19.654 -22.002  0.00  0.00     0.025 A 
ATOM      5  C   UNL d   1      33.176  20.399 -20.775  0.00  0.00     0.000 A 
ATOM      6  C   UNL d   1      33.205  19.675 -21.177  0.00  0.00     0.002 A 
ENDROOT
BRANCH   2   7
ATOM      7  O   UNL d   1      33.195  20.339 -23.255  0.00  0.00    -0.300 OA
BRANCH   7   8
ATOM      8  C   UNL d   1      33.052  19.619 -23.645  0.00  0.00     0.185 C 
BRANCH   8   9
ATOM      9  C   UNL d   1      32.996  19.604 -24.474  0.00  0.00     0.304 C 
ATOM     10  N   UNL d   1      32.778  18.902 -24.856  0.00  0.00    -0.206 NA
ATOM     11  O   UNL d   1      33.159  20.284 -24.912  0.00  0.00    -0.263 OA
BRANCH  10  12
ATOM     12  C   UNL d   1      32.616  18.223 -24.418  0.00  0.00     0.085 A 
ATOM     13  C   UNL d   1      33.227  17.681 -24.259  0.00  0.00     0.019 A 
ATOM     14  C   UNL d   1      33.071  16.999 -23.822  0.00  0.00     0.002 A 
ATOM     15  C   UNL d   1      32.303  16.854 -23.540  0.00  0.00     0.000 A 
ATOM     16  C   UNL d   1      31.699  17.398 -23.702  0.00  0.00     0.002 A 
ATOM     17  C   UNL d   1      31.860  18.079 -24.140  0.00  0.00     0.019 A 
ENDBRANCH  10  12
ENDBRANCH   8   9
ENDBRANCH   7   8
ENDBRANCH   2   7
BRANCH   1  18
ATOM     18  C   UNL d   1      33.137  21.792 -22.455  0.00  0.00     0.013 C 
BRANCH  18  19
ATOM     19  C   UNL d   1      32.729  22.444 -22.160  0.00  0.00     0.092 A 
ATOM     20  C   UNL d   1      32.521  23.117 -22.578  0.00  0.00     0.288 A 
ATOM     21  N   UNL d   1      32.121  23.624 -22.070  0.00  0.00    -0.163 NA
ATOM     22  O   UNL d   1      32.686  23.263 -23.374  0.00  0.00    -0.265 OA
ATOM     23  C   UNL d   1      32.080  23.260 -21.327  0.00  0.00     0.313 A 
ATOM     24  S   UNL d   1      32.457  22.526 -21.383  0.00  0.00    -0.021 SA
ATOM     25  O   UNL d   1      31.723  23.574 -20.646  0.00  0.00    -0.258 OA
ENDBRANCH  18  19
ENDBRANCH   1  18
TORSDOF 6
ENDMDL
MODEL 2
REMARK VINA RESULT:      -2.4      3.850      5.933
REMARK  6 active torsions:
REMARK  status: ('A' for Active; 'I' for Inactive)
REMARK    1  A    between atoms: C_6  and  C_2 
REMARK    2  A    between atoms: C_7  and  C_6 
REMARK    3  A    between atoms: C_8  and  C_15 
REMARK       I    between atoms: N_9  and  C_8 
REMARK    4  A    between atoms: C_16  and  N_9 
REMARK    5  A    between atoms: O_13  and  C_12 
REMARK    6  A    between atoms: C_15  and  O_13 
ROOT
ATOM      1  C   UNL d   1      29.426  16.915 -24.326  0.00  0.00     0.023 A 
ATOM      2  C   UNL d   1      30.146  17.182 -24.626  0.00  0.00     0.100 A 
ATOM      3  C   UNL d   1      28.758  17.389 -24.366  0.00  0.00     0.002 A 
ATOM      4  C   UNL d   1      30.199  17.930 -24.970  0.00  0.00     0.025 A 
ATOM      5  C   UNL d   1      28.802  18.142 -24.709  0.00  0.00     0.000 A 
ATOM      6  C   UNL d   1      29.528  18.408 -25.011  0.00  0.00     0.002 A 
ENDROOT
BRANCH   2   7
ATOM      7  O   UNL d   1      30.819  16.702 -24.585  0.00  0.00    -0.300 OA
BRANCH   7   8
ATOM      8  C   UNL d   1      31.530  17.022 -24.296  0.00  0.00     0.185 C 
BRANCH   8   9
ATOM      9  C   UNL d   1      32.160  16.516 -24.100  0.00  0.00     0.304 C 
ATOM     10  N   UNL d   1      32.880  16.839 -23.849  0.00  0.00    -0.206 NA
ATOM     11  O   UNL d   1      32.065  15.698 -24.155  0.00  0.00    -0.263 OA
BRANCH  10  12
ATOM     12  C   UNL d   1      32.973  17.656 -23.794  0.00  0.00     0.085 A 
ATOM     13  C   UNL d   1      33.146  18.097 -24.477  0.00  0.00     0.019 A 
ATOM     14  C   UNL d   1      33.241  18.916 -24.428  0.00  0.00     0.002 A 
ATOM     15  C   UNL d   1      33.163  19.298 -23.695  0.00  0.00     0.000 A 
ATOM     16  C   UNL d   1      32.991  18.852 -23.017  0.00  0.00     0.002 A 
ATOM     17  C   UNL d   1      32.897  18.034 -23.072  0.00  0.00     0.019 A 
ENDBRANCH  10  12
ENDBRANCH   8   9
ENDBRANCH   7   8
ENDBRANCH   2   7
BRANCH   1  18
ATOM     18  C   UNL d   1      29.370  16.165 -23.981  0.00  0.00     0.013 C 
BRANCH  18  19
ATOM     19  C   UNL d   1      28.663  15.909 -23.643  0.00  0.00     0.092 A 
ATOM     20  C   UNL d   1      28.556  15.654 -22.872  0.00  0.00     0.288 A 
ATOM     21  N   UNL d   1      27.765  15.453 -22.774  0.00  0.00    -0.163 NA
ATOM     22  O   UNL d   1      29.142  15.607 -22.292  0.00  0.00    -0.265 OA
ATOM     23  C   UNL d   1      27.377  15.585 -23.494  0.00  0.00     0.313 A 
ATOM     24  S   UNL d   1      27.935  15.868 -24.034  0.00  0.00    -0.021 SA
ATOM     25  O   UNL d   1      26.571  15.455 -23.647  0.00  0.00    -0.258 OA
ENDBRANCH  18  19
ENDBRANCH   1  18
TORSDOF 6
ENDMDL
MODEL 3
REMARK VINA RESULT:      -2.2      2.938      5.183
REMARK  6 active torsions:
REMARK  status: ('A' for Active; 'I' for Inactive)
REMARK    1  A    between atoms: C_6  and  C_2 
REMARK    2  A    between atoms: C_7  and  C_6 
REMARK    3  A    between atoms: C_8  and  C_15 
REMARK       I    between atoms: N_9  and  C_8 
REMARK    4  A    between atoms: C_16  and  N_9 
REMARK    5  A    between atoms: O_13  and  C_12 
REMARK    6  A    between atoms: C_15  and  O_13 
ROOT
ATOM      1  C   UNL d   1      30.738  16.662 -24.007  0.00  0.00     0.023 A 
ATOM      2  C   UNL d   1      31.484  16.994 -23.898  0.00  0.00     0.100 A 
ATOM      3  C   UNL d   1      30.579  15.902 -23.744  0.00  0.00     0.002 A 
ATOM      4  C   UNL d   1      32.078  16.562 -23.521  0.00  0.00     0.025 A 
ATOM      5  C   UNL d   1      31.168  15.461 -23.365  0.00  0.00     0.000 A 
ATOM      6  C   UNL d   1      31.919  15.797 -23.256  0.00  0.00     0.002 A 
ENDROOT
BRANCH   2   7
ATOM      7  O   UNL d   1      31.644  17.762 -24.164  0.00  0.00    -0.300 OA
BRANCH   7   8
ATOM      8  C   UNL d   1      32.271  18.188 -23.825  0.00  0.00     0.185 C 
BRANCH   8   9
ATOM      9  C   UNL d   1      32.772  18.640 -24.310  0.00  0.00     0.304 C 
ATOM     10  N   UNL d   1      33.147  19.310 -23.999  0.00  0.00    -0.206 NA
ATOM     11  O   UNL d   1      32.894  18.420 -25.096  0.00  0.00    -0.263 OA
BRANCH  10  12
ATOM     12  C   UNL d   1      33.025  19.529 -23.214  0.00  0.00     0.085 A 
ATOM     13  C   UNL d   1      32.679  20.265 -23.042  0.00  0.00     0.019 A 
ATOM     14  C   UNL d   1      32.555  20.490 -22.258  0.00  0.00     0.002 A 
ATOM     15  C   UNL d   1      32.775  19.980 -21.640  0.00  0.00     0.000 A 
ATOM     16  C   UNL d   1      33.118  19.246 -21.819  0.00  0.00     0.002 A 
ATOM     17  C   UNL d   1      33.241  19.027 -22.605  0.00  0.00     0.019 A 
ENDBRANCH  10  12
ENDBRANCH   8   9
ENDBRANCH   7   8
ENDBRANCH   2   7
BRANCH   1  18
ATOM     18  C   UNL d   1      30.141  17.094 -24.385  0.00  0.00     0.013 C 
BRANCH  18  19
ATOM     19  C   UNL d   1      29.348  16.963 -24.202  0.00  0.00     0.092 A 
ATOM     20  C   UNL d   1      28.731  17.492 -24.303  0.00  0.00     0.288 A 
ATOM     21  N   UNL d   1      28.037  17.132 -24.049  0.00  0.00    -0.163 NA
ATOM     22  O   UNL d   1      28.794  18.257 -24.608  0.00  0.00    -0.265 OA
ATOM     23  C   UNL d   1      28.227  16.369 -23.786  0.00  0.00     0.313 A 
ATOM     24  S   UNL d   1      29.042  16.264 -23.882  0.00  0.00    -0.021 SA
ATOM     25  O   UNL d   1      27.695  15.809 -23.482  0.00  0.00    -0.258 OA
ENDBRANCH  18  19
ENDBRANCH   1  18
TORSDOF 6
ENDMDL
MODEL 4
REMARK VINA RESULT:      -1.3      2.600      4.227
REMARK  6 active torsions:
REMARK  status: ('A' for Active; 'I' for Inactive)
REMARK    1  A    between atoms: C_6  and  C_2 
REMARK    2  A    between atoms: C_7  and  C_6 
REMARK    3  A    between atoms: C_8  and  C_15 
REMARK       I    between atoms: N_9  and  C_8 
REMARK    4  A    between atoms: C_16  and  N_9 
REMARK    5  A    between atoms: O_13  and  C_12 
REMARK    6  A    between atoms: C_15  and  O_13 
ROOT
ATOM      1  C   UNL d   1      32.498  17.264 -23.494  0.00  0.00     0.023 A 
ATOM      2  C   UNL d   1      31.970  16.650 -23.653  0.00  0.00     0.100 A 
ATOM      3  C   UNL d   1      33.047  17.193 -22.889  0.00  0.00     0.002 A 
ATOM      4  C   UNL d   1      31.992  15.959 -23.203  0.00  0.00     0.025 A 
ATOM      5  C   UNL d   1      33.076  16.503 -22.432  0.00  0.00     0.000 A 
ATOM      6  C   UNL d   1      32.544  15.887 -22.594  0.00  0.00     0.002 A 
ENDROOT
BRANCH   2   7
ATOM      7  O   UNL d   1      31.416  16.724 -24.264  0.00  0.00    -0.300 OA
BRANCH   7   8
ATOM      8  C   UNL d   1      30.627  16.505 -24.125  0.00  0.00     0.185 C 
BRANCH   8   9
ATOM      9  C   UNL d   1      30.264  15.939 -24.615  0.00  0.00     0.304 C 
ATOM     10  N   UNL d   1      29.439  15.869 -24.616  0.00  0.00    -0.206 NA
ATOM     11  O   UNL d   1      30.726  15.453 -25.096  0.00  0.00    -0.263 OA
BRANCH  10  12
ATOM     12  C   UNL d   1      28.979  16.355 -24.135  0.00  0.00     0.085 A 
ATOM     13  C   UNL d   1      28.479  16.014 -23.564  0.00  0.00     0.019 A 
ATOM     14  C   UNL d   1      28.016  16.496 -23.080  0.00  0.00     0.002 A 
ATOM     15  C   UNL d   1      28.049  17.322 -23.163  0.00  0.00     0.000 A 
ATOM     16  C   UNL d   1      28.550  17.655 -23.734  0.00  0.00     0.002 A 
ATOM     17  C   UNL d   1      29.011  17.169 -24.216  0.00  0.00     0.019 A 
ENDBRANCH  10  12
ENDBRANCH   8   9
ENDBRANCH   7   8
ENDBRANCH   2   7
BRANCH   1  18
ATOM     18  C   UNL d   1      32.478  17.958 -23.944  0.00  0.00     0.013 C 
BRANCH  18  19
ATOM     19  C   UNL d   1      32.735  18.673 -23.625  0.00  0.00     0.092 A 
ATOM     20  C   UNL d   1      33.029  19.314 -24.041  0.00  0.00     0.288 A 
ATOM     21  N   UNL d   1      33.219  19.907 -23.504  0.00  0.00    -0.163 NA
ATOM     22  O   UNL d   1      33.121  19.359 -24.861  0.00  0.00    -0.265 OA
ATOM     23  C   UNL d   1      33.039  19.629 -22.744  0.00  0.00     0.313 A 
ATOM     24  S   UNL d   1      32.739  18.862 -22.819  0.00  0.00    -0.021 SA
ATOM     25  O   UNL d   1      33.142  20.046 -22.033  0.00  0.00    -0.258 OA
ENDBRANCH  18  19
ENDBRANCH   1  18
TORSDOF 6
ENDMDL
MODEL 5
REMARK VINA RESULT:      -0.6      3.630      5.366
REMARK  6 active torsions:
REMARK  status: ('A' for Active; 'I' for Inactive)
REMARK    1  A    between atoms: C_6  and  C_2 
REMARK    2  A    between atoms: C_7  and  C_6 
REMARK    3  A    between atoms: C_8  and  C_15 
REMARK       I    between atoms: N_9  and  C_8 
REMARK    4  A    between atoms: C_16  and  N_9 
REMARK    5  A    between atoms: O_13  and  C_12 
REMARK    6  A    between atoms: C_15  and  O_13 
ROOT
ATOM      1  C   UNL d   1      29.951  16.039 -23.981  0.00  0.00     0.023 A 
ATOM      2  C   UNL d   1      30.695  15.772 -23.747  0.00  0.00     0.100 A 
ATOM      3  C   UNL d   1      29.319  16.015 -23.459  0.00  0.00     0.002 A 
ATOM      4  C   UNL d   1      30.809  15.478 -22.985  0.00  0.00     0.025 A 
ATOM      5  C   UNL d   1      29.424  15.722 -22.692  0.00  0.00     0.000 A 
ATOM      6  C   UNL d   1      30.173  15.453 -22.459  0.00  0.00     0.002 A 
ENDROOT
BRANCH   2   7
ATOM      7  O   UNL d   1      31.332  15.797 -24.275  0.00  0.00    -0.300 OA
BRANCH   7   8
ATOM      8  C   UNL d   1      32.008  16.238 -24.076  0.00  0.00     0.185 C 
BRANCH   8   9
ATOM      9  C   UNL d   1      32.697  16.166 -24.536  0.00  0.00     0.304 C 
ATOM     10  N   UNL d   1      33.241  16.790 -24.557  0.00  0.00    -0.206 NA
ATOM     11  O   UNL d   1      32.835  15.476 -24.968  0.00  0.00    -0.263 OA
BRANCH  10  12
ATOM     12  C   UNL d   1      33.102  17.478 -24.126  0.00  0.00     0.085 A 
ATOM     13  C   UNL d   1      32.828  18.159 -24.516  0.00  0.00     0.019 A 
ATOM     14  C   UNL d   1      32.688  18.852 -24.089  0.00  0.00     0.002 A 
ATOM     15  C   UNL d   1      32.820  18.867 -23.269  0.00  0.00     0.000 A 
ATOM     16  C   UNL d   1      33.094  18.185 -22.887  0.00  0.00     0.002 A 
ATOM     17  C   UNL d   1      33.233  17.495 -23.318  0.00  0.00     0.019 A 
ENDBRANCH  10  12
ENDBRANCH   8   9
ENDBRANCH   7   8
ENDBRANCH   2   7
BRANCH   1  18
ATOM     18  C   UNL d   1      29.835  16.335 -24.745  0.00  0.00     0.013 C 
BRANCH  18  19
ATOM     19  C   UNL d   1      29.369  17.003 -24.870  0.00  0.00     0.092 A 
ATOM     20  C   UNL d   1      28.560  17.016 -25.000  0.00  0.00     0.288 A 
ATOM     21  N   UNL d   1      28.325  17.797 -25.097  0.00  0.00    -0.163 NA
ATOM     22  O   UNL d   1      28.065  16.356 -25.029  0.00  0.00    -0.265 OA
ATOM     23  C   UNL d   1      28.998  18.276 -25.026  0.00  0.00     0.313 A 
ATOM     24  S   UNL d   1      29.646  17.783 -24.885  0.00  0.00    -0.021 SA
ATOM     25  O   UNL d   1      29.018  19.104 -25.085  0.00  0.00    -0.258 OA
ENDBRANCH  18  19
ENDBRANCH   1  18
TORSDOF 6
ENDMDL
