MODEL 1
REMARK VINA RESULT:     118.1      0.000      0.000
REMARK  4 active torsions:
REMARK  status: ('A' for Active; 'I' for Inactive)
REMARK    1  A    between atoms: N_7  and  C_1 
REMARK    2  A    between atoms: C_11  and  C_2 
REMARK       I    between atoms: C_8  and  N_7 
REMARK    3  A    between atoms: C_13  and  C_8 
REMARK    4  A    between atoms: N_9  and  C_13 
ROOT
ATOM      1  C   UNL d   1      60.207  49.225  51.417  0.00  0.00     0.142 A 
ATOM      2  C   UNL d   1      59.393  49.244  51.491  0.00  0.00     0.024 A 
ATOM      3  C   UNL d   1      60.678  49.360  52.080  0.00  0.00     0.297 A 
ATOM      4  C   UNL d   1      59.034  49.393  52.215  0.00  0.00     0.020 A 
ATOM      5  N   UNL d   1      60.335  49.512  52.819  0.00  0.00    -0.207 NA
ATOM      6  C   UNL d   1      59.506  49.527  52.879  0.00  0.00     0.085 A 
ATOM      7  C   UNL d   1      58.224  49.411  52.287  0.00  0.00     0.008 A 
ATOM      8  O   UNL d   1      61.510  49.344  52.019  0.00  0.00    -0.264 OA
ATOM      9  C   UNL d   1      59.166  49.679  53.615  0.00  0.00     0.020 A 
ATOM     10  C   UNL d   1      57.869  49.560  53.009  0.00  0.00     0.035 A 
ATOM     11  C   UNL d   1      58.340  49.694  53.672  0.00  0.00     0.008 A 
ATOM     12 BR   UNL d   1      57.034  49.581  53.097  0.00  0.00    -0.049 Br
ENDROOT
BRANCH   1  13
ATOM     13  N   UNL d   1      60.579  49.074  50.683  0.00  0.00    -0.202 NA
ATOM     14  C   UNL d   1      61.280  48.606  50.674  0.00  0.00     0.297 C 
ATOM     15  O   UNL d   1      61.505  48.378  51.246  0.00  0.00    -0.264 OA
BRANCH  14  16
ATOM     16  C   UNL d   1      61.644  48.457  49.954  0.00  0.00     0.144 C 
BRANCH  16  17
ATOM     17  N   UNL d   1      61.891  47.678  49.783  0.00  0.00    -0.295 N 
ATOM     18  C   UNL d   1      61.935  47.428  49.003  0.00  0.00     0.107 A 
ATOM     19  C   UNL d   1      62.184  46.641  48.830  0.00  0.00     0.142 A 
ATOM     20  O   UNL d   1      62.383  46.128  49.441  0.00  0.00    -0.300 OA
ATOM     21  C   UNL d   1      62.333  46.400  50.247  0.00  0.00     0.142 A 
ATOM     22  C   UNL d   1      62.089  47.168  50.402  0.00  0.00     0.107 A 
ENDBRANCH  16  17
ENDBRANCH  14  16
ENDBRANCH   1  13
BRANCH   2  23
ATOM     23  C   UNL d   1      58.911  49.107  50.813  0.00  0.00     0.002 A 
ATOM     24  C   UNL d   1      58.922  49.641  50.189  0.00  0.00     0.000 A 
ATOM     25  C   UNL d   1      58.453  49.507  49.529  0.00  0.00     0.000 A 
ATOM     26  C   UNL d   1      57.960  48.836  49.473  0.00  0.00     0.000 A 
ATOM     27  C   UNL d   1      57.963  48.303  50.120  0.00  0.00     0.000 A 
ATOM     28  C   UNL d   1      58.432  48.437  50.780  0.00  0.00     0.000 A 
ENDBRANCH   2  23
TORSDOF 4
ENDMDL
MODEL 2
REMARK VINA RESULT:     118.9      2.424      4.558
REMARK  4 active torsions:
REMARK  status: ('A' for Active; 'I' for Inactive)
REMARK    1  A    between atoms: N_7  and  C_1 
REMARK    2  A    between atoms: C_11  and  C_2 
REMARK       I    between atoms: C_8  and  N_7 
REMARK    3  A    between atoms: C_13  and  C_8 
REMARK    4  A    between atoms: N_9  and  C_13 
ROOT
ATOM      1  C   UNL d   1      59.811  47.431  51.120  0.00  0.00     0.142 A 
ATOM      2  C   UNL d   1      60.545  47.467  50.761  0.00  0.00     0.024 A 
ATOM      3  C   UNL d   1      59.453  46.697  51.237  0.00  0.00     0.297 A 
ATOM      4  C   UNL d   1      60.933  46.787  50.515  0.00  0.00     0.020 A 
ATOM      5  N   UNL d   1      59.828  46.000  50.995  0.00  0.00    -0.207 NA
ATOM      6  C   UNL d   1      60.574  46.053  50.632  0.00  0.00     0.085 A 
ATOM      7  C   UNL d   1      61.663  46.825  50.158  0.00  0.00     0.008 A 
ATOM      8  O   UNL d   1      58.704  46.645  51.602  0.00  0.00    -0.264 OA
ATOM      9  C   UNL d   1      60.946  45.357  50.391  0.00  0.00     0.020 A 
ATOM     10  C   UNL d   1      62.048  46.146  49.913  0.00  0.00     0.035 A 
ATOM     11  C   UNL d   1      61.689  45.412  50.030  0.00  0.00     0.008 A 
ATOM     12 BR   UNL d   1      62.801  46.171  49.543  0.00  0.00    -0.049 Br
ENDROOT
BRANCH   1  13
ATOM     13  N   UNL d   1      59.410  48.119  51.374  0.00  0.00    -0.202 NA
ATOM     14  C   UNL d   1      58.670  48.311  51.019  0.00  0.00     0.297 C 
ATOM     15  O   UNL d   1      58.438  47.909  50.555  0.00  0.00    -0.264 OA
BRANCH  14  16
ATOM     16  C   UNL d   1      58.277  48.986  51.268  0.00  0.00     0.144 C 
BRANCH  16  17
ATOM     17  N   UNL d   1      57.586  49.222  50.861  0.00  0.00    -0.295 N 
ATOM     18  C   UNL d   1      57.605  49.314  50.047  0.00  0.00     0.107 A 
ATOM     19  C   UNL d   1      56.908  49.551  49.637  0.00  0.00     0.142 A 
ATOM     20  O   UNL d   1      56.212  49.690  50.053  0.00  0.00    -0.300 OA
ATOM     21  C   UNL d   1      56.206  49.591  50.899  0.00  0.00     0.142 A 
ATOM     22  C   UNL d   1      56.891  49.359  51.286  0.00  0.00     0.107 A 
ENDBRANCH  16  17
ENDBRANCH  14  16
ENDBRANCH   1  13
BRANCH   2  23
ATOM     23  C   UNL d   1      60.911  48.217  50.642  0.00  0.00     0.002 A 
ATOM     24  C   UNL d   1      61.208  48.634  51.284  0.00  0.00     0.000 A 
ATOM     25  C   UNL d   1      61.565  49.364  51.168  0.00  0.00     0.000 A 
ATOM     26  C   UNL d   1      61.635  49.698  50.406  0.00  0.00     0.000 A 
ATOM     27  C   UNL d   1      61.326  49.257  49.764  0.00  0.00     0.000 A 
ATOM     28  C   UNL d   1      60.970  48.527  49.880  0.00  0.00     0.000 A 
ENDBRANCH   2  23
TORSDOF 4
ENDMDL
MODEL 3
REMARK VINA RESULT:     119.4      2.247      4.389
REMARK  4 active torsions:
REMARK  status: ('A' for Active; 'I' for Inactive)
REMARK    1  A    between atoms: N_7  and  C_1 
REMARK    2  A    between atoms: C_11  and  C_2 
REMARK       I    between atoms: C_8  and  N_7 
REMARK    3  A    between atoms: C_13  and  C_8 
REMARK    4  A    between atoms: N_9  and  C_13 
ROOT
ATOM      1  C   UNL d   1      60.832  48.353  50.718  0.00  0.00     0.142 A 
ATOM      2  C   UNL d   1      60.935  47.545  50.658  0.00  0.00     0.024 A 
ATOM      3  C   UNL d   1      61.328  48.858  50.295  0.00  0.00     0.297 A 
ATOM      4  C   UNL d   1      61.525  47.225  50.184  0.00  0.00     0.020 A 
ATOM      5  N   UNL d   1      61.928  48.555  49.812  0.00  0.00    -0.207 NA
ATOM      6  C   UNL d   1      62.021  47.730  49.761  0.00  0.00     0.085 A 
ATOM      7  C   UNL d   1      61.626  46.419  50.125  0.00  0.00     0.008 A 
ATOM      8  O   UNL d   1      61.234  49.686  50.347  0.00  0.00    -0.264 OA
ATOM      9  C   UNL d   1      62.619  47.429  49.279  0.00  0.00     0.020 A 
ATOM     10  C   UNL d   1      62.213  46.103  49.652  0.00  0.00     0.035 A 
ATOM     11  C   UNL d   1      62.710  46.608  49.229  0.00  0.00     0.008 A 
ATOM     12 BR   UNL d   1      62.329  45.274  49.583  0.00  0.00    -0.049 Br
ENDROOT
BRANCH   1  13
ATOM     13  N   UNL d   1      60.234  48.687  51.198  0.00  0.00    -0.202 NA
ATOM     14  C   UNL d   1      59.746  49.294  50.876  0.00  0.00     0.297 C 
ATOM     15  O   UNL d   1      59.857  49.480  50.257  0.00  0.00    -0.264 OA
BRANCH  14  16
ATOM     16  C   UNL d   1      59.160  49.620  51.347  0.00  0.00     0.144 C 
BRANCH  16  17
ATOM     17  N   UNL d   1      58.373  49.624  51.065  0.00  0.00    -0.295 N 
ATOM     18  C   UNL d   1      58.231  49.606  50.258  0.00  0.00     0.107 A 
ATOM     19  C   UNL d   1      57.438  49.610  49.974  0.00  0.00     0.142 A 
ATOM     20  O   UNL d   1      56.810  49.631  50.505  0.00  0.00    -0.300 OA
ATOM     21  C   UNL d   1      56.971  49.649  51.341  0.00  0.00     0.142 A 
ATOM     22  C   UNL d   1      57.749  49.645  51.605  0.00  0.00     0.107 A 
ENDBRANCH  16  17
ENDBRANCH  14  16
ENDBRANCH   1  13
BRANCH   2  23
ATOM     23  C   UNL d   1      60.428  47.028  51.090  0.00  0.00     0.002 A 
ATOM     24  C   UNL d   1      59.729  46.764  50.751  0.00  0.00     0.000 A 
ATOM     25  C   UNL d   1      59.234  46.261  51.171  0.00  0.00     0.000 A 
ATOM     26  C   UNL d   1      59.426  46.009  51.944  0.00  0.00     0.000 A 
ATOM     27  C   UNL d   1      60.143  46.290  52.273  0.00  0.00     0.000 A 
ATOM     28  C   UNL d   1      60.637  46.793  51.852  0.00  0.00     0.000 A 
ENDBRANCH   2  23
TORSDOF 4
ENDMDL
MODEL 4
REMARK VINA RESULT:     120.1      2.200      4.581
REMARK  4 active torsions:
REMARK  status: ('A' for Active; 'I' for Inactive)
REMARK    1  A    between atoms: N_7  and  C_1 
REMARK    2  A    between atoms: C_11  and  C_2 
REMARK       I    between atoms: C_8  and  N_7 
REMARK    3  A    between atoms: C_13  and  C_8 
REMARK    4  A    between atoms: N_9  and  C_13 
ROOT
ATOM      1  C   UNL d   1      61.413  47.580  50.381  0.00  0.00     0.142 A 
ATOM      2  C   UNL d   1      61.297  46.770  50.398  0.00  0.00     0.024 A 
ATOM      3  C   UNL d   1      61.949  47.901  49.843  0.00  0.00     0.297 A 
ATOM      4  C   UNL d   1      61.704  46.271  49.890  0.00  0.00     0.020 A 
ATOM      5  N   UNL d   1      62.370  47.414  49.322  0.00  0.00    -0.207 NA
ATOM      6  C   UNL d   1      62.241  46.593  49.352  0.00  0.00     0.085 A 
ATOM      7  C   UNL d   1      61.588  45.465  49.908  0.00  0.00     0.008 A 
ATOM      8  O   UNL d   1      62.078  48.725  49.815  0.00  0.00    -0.264 OA
ATOM      9  C   UNL d   1      62.660  46.109  48.832  0.00  0.00     0.020 A 
ATOM     10  C   UNL d   1      61.994  44.970  49.400  0.00  0.00     0.035 A 
ATOM     11  C   UNL d   1      62.531  45.291  48.862  0.00  0.00     0.008 A 
ATOM     12 BR   UNL d   1      61.883  44.138  49.409  0.00  0.00    -0.049 Br
ENDROOT
BRANCH   1  13
ATOM     13  N   UNL d   1      61.002  48.094  50.896  0.00  0.00    -0.202 NA
ATOM     14  C   UNL d   1      60.882  48.894  50.658  0.00  0.00     0.297 C 
ATOM     15  O   UNL d   1      61.118  49.080  50.075  0.00  0.00    -0.264 OA
BRANCH  14  16
ATOM     16  C   UNL d   1      60.479  49.399  51.163  0.00  0.00     0.144 C 
BRANCH  16  17
ATOM     17  N   UNL d   1      59.656  49.502  51.056  0.00  0.00    -0.295 N 
ATOM     18  C   UNL d   1      59.158  49.501  51.707  0.00  0.00     0.107 A 
ATOM     19  C   UNL d   1      58.329  49.604  51.599  0.00  0.00     0.142 A 
ATOM     20  O   UNL d   1      58.021  49.706  50.843  0.00  0.00    -0.300 OA
ATOM     21  C   UNL d   1      58.549  49.706  50.174  0.00  0.00     0.142 A 
ATOM     22  C   UNL d   1      59.355  49.603  50.293  0.00  0.00     0.107 A 
ENDBRANCH  16  17
ENDBRANCH  14  16
ENDBRANCH   1  13
BRANCH   2  23
ATOM     23  C   UNL d   1      60.749  46.442  50.948  0.00  0.00     0.002 A 
ATOM     24  C   UNL d   1      60.987  46.284  51.718  0.00  0.00     0.000 A 
ATOM     25  C   UNL d   1      60.453  45.964  52.253  0.00  0.00     0.000 A 
ATOM     26  C   UNL d   1      59.666  45.792  52.034  0.00  0.00     0.000 A 
ATOM     27  C   UNL d   1      59.443  45.960  51.244  0.00  0.00     0.000 A 
ATOM     28  C   UNL d   1      59.976  46.280  50.709  0.00  0.00     0.000 A 
ENDBRANCH   2  23
TORSDOF 4
ENDMDL
