MODEL 1
REMARK VINA RESULT:      19.0      0.000      0.000
REMARK  4 active torsions:
REMARK  status: ('A' for Active; 'I' for Inactive)
REMARK    1  A    between atoms: N_3  and  C_1 
REMARK       I    between atoms: C_5  and  N_3 
REMARK    2  A    between atoms: C_7  and  C_5 
REMARK    3  A    between atoms: C_9  and  C_12 
REMARK    4  A    between atoms: O_18  and  C_9 
ROOT
ATOM      1  C   UNL d   1      13.331  12.254  -3.808  0.00  0.00     0.197 A 
ATOM      2  N   UNL d   1      12.937  11.850  -3.192  0.00  0.00    -0.221 NA
ATOM      3  S   UNL d   1      13.960  12.668  -3.475  0.00  0.00    -0.047 SA
ATOM      4  C   UNL d   1      13.968  12.531  -2.659  0.00  0.00     0.050 A 
ATOM      5  C   UNL d   1      13.331  12.022  -2.483  0.00  0.00     0.090 A 
ATOM      6  C   UNL d   1      14.326  12.559  -1.286  0.00  0.00     0.064 A 
ATOM      7  C   UNL d   1      14.464  12.797  -2.056  0.00  0.00     0.013 A 
ATOM      8  C   UNL d   1      13.202  11.788  -1.706  0.00  0.00     0.020 A 
ATOM      9  C   UNL d   1      13.689  12.049  -1.110  0.00  0.00     0.007 A 
ENDROOT
BRANCH   1  10
ATOM     10  N   UNL d   1      13.122  12.238  -4.608  0.00  0.00    -0.183 NA
ATOM     11  C   UNL d   1      12.976  12.943  -5.011  0.00  0.00     0.281 C 
ATOM     12  O   UNL d   1      12.769  12.927  -5.807  0.00  0.00    -0.265 OA
BRANCH  11  13
ATOM     13  C   UNL d   1      13.038  13.664  -4.615  0.00  0.00     0.058 A 
ATOM     14  C   UNL d   1      13.403  14.397  -4.516  0.00  0.00     0.005 A 
ATOM     15  C   UNL d   1      12.779  14.178  -4.027  0.00  0.00     0.005 A 
ENDBRANCH  11  13
ENDBRANCH   1  10
BRANCH   6  16
ATOM     16  C   UNL d   1      14.815  12.818  -0.672  0.00  0.00     0.296 C 
ATOM     17  O   UNL d   1      14.970  12.333  -0.032  0.00  0.00    -0.259 OA
BRANCH  16  18
ATOM     18  O   UNL d   1      15.146  13.579  -0.713  0.00  0.00    -0.296 OA
ATOM     19  C   UNL d   1      15.281  14.000  -0.022  0.00  0.00     0.185 C 
ENDBRANCH  16  18
ENDBRANCH   6  16
TORSDOF 4
ENDMDL
