MODEL 1
REMARK VINA RESULT:      42.9      0.000      0.000
REMARK  10 active torsions:
REMARK  status: ('A' for Active; 'I' for Inactive)
REMARK    1  A    between atoms: C_5  and  C_1 
REMARK    2  A    between atoms: C_8  and  N_2 
REMARK    3  A    between atoms: C_9  and  C_5 
REMARK    4  A    between atoms: C_7  and  C_8 
REMARK       I    between atoms: N_13  and  C_7 
REMARK       I    between atoms: N_19  and  C_9 
REMARK    5  A    between atoms: N_11  and  C_21 
REMARK    6  A    between atoms: C_24  and  N_13 
REMARK    7  A    between atoms: C_25  and  N_13 
REMARK    8  A    between atoms: C_26  and  N_19 
REMARK    9  A    between atoms: C_21  and  C_23 
REMARK   10  A    between atoms: C_23  and  C_26 
ROOT
ATOM      1  C   UNL d   1      13.583  13.891  -3.550  0.00  0.00     0.063 A 
ATOM      2  N   UNL d   1      13.577  12.805  -2.764  0.00  0.00    -0.300 N 
ATOM      3  C   UNL d   1      13.727  13.616  -2.772  0.00  0.00     0.084 A 
ATOM      4  C   UNL d   1      13.346  13.247  -4.008  0.00  0.00     0.021 A 
ATOM      5  C   UNL d   1      13.344  12.572  -3.516  0.00  0.00     0.064 A 
ATOM      6  C   UNL d   1      13.135  13.180  -4.795  0.00  0.00     0.002 A 
ATOM      7  C   UNL d   1      13.127  11.841  -3.833  0.00  0.00     0.018 A 
ATOM      8  C   UNL d   1      12.917  12.446  -5.113  0.00  0.00     0.000 A 
ATOM      9  C   UNL d   1      12.915  11.780  -4.626  0.00  0.00     0.002 A 
ENDROOT
BRANCH   1  10
ATOM     10  C   UNL d   1      13.664  14.669  -3.805  0.00  0.00     0.254 C 
ATOM     11  O   UNL d   1      13.252  14.922  -4.476  0.00  0.00    -0.281 OA
BRANCH  10  12
ATOM     12  C   UNL d   1      14.151  15.195  -3.399  0.00  0.00     0.318 C 
ATOM     13  O   UNL d   1      14.315  15.062  -2.604  0.00  0.00    -0.262 OA
ATOM     14  N   UNL d   1      14.468  15.847  -3.792  0.00  0.00    -0.204 NA
BRANCH  14  15
ATOM     15  C   UNL d   1      14.298  15.971  -4.584  0.00  0.00     0.104 C 
BRANCH  15  16
ATOM     16  C   UNL d   1      14.567  16.656  -4.950  0.00  0.00     0.040 C 
BRANCH  16  17
ATOM     17  C   UNL d   1      14.207  16.915  -5.653  0.00  0.00     0.083 C 
BRANCH  17  18
ATOM     18  N   UNL d   1      14.143  17.729  -5.814  0.00  0.00    -0.285 N 
ATOM     19  C   UNL d   1      14.555  18.327  -5.423  0.00  0.00     0.183 A 
ATOM     20  N   UNL d   1      14.318  19.049  -5.766  0.00  0.00    -0.222 NA
ATOM     21  C   UNL d   1      13.761  18.889  -6.367  0.00  0.00     0.120 A 
ATOM     22  C   UNL d   1      13.659  18.065  -6.389  0.00  0.00     0.102 A 
ENDBRANCH  17  18
ENDBRANCH  16  17
ENDBRANCH  15  16
ENDBRANCH  14  15
ENDBRANCH  10  12
ENDBRANCH   1  10
BRANCH   2  23
ATOM     23  C   UNL d   1      13.650  12.311  -2.108  0.00  0.00     0.142 C 
BRANCH  23  24
ATOM     24  C   UNL d   1      14.364  12.257  -1.709  0.00  0.00     0.282 C 
ATOM     25  N   UNL d   1      14.385  12.306  -0.886  0.00  0.00    -0.271 N 
ATOM     26  O   UNL d   1      15.066  12.153  -2.134  0.00  0.00    -0.265 OA
BRANCH  25  27
ATOM     27  C   UNL d   1      13.687  12.409  -0.461  0.00  0.00     0.083 C 
ATOM     28  C   UNL d   1      13.361  11.779  -0.047  0.00  0.00     0.021 C 
ENDBRANCH  25  27
BRANCH  25  29
ATOM     29  C   UNL d   1      15.108  12.251  -0.488  0.00  0.00     0.083 C 
ATOM     30  C   UNL d   1      15.803  12.127  -0.914  0.00  0.00     0.021 C 
ENDBRANCH  25  29
ENDBRANCH  23  24
ENDBRANCH   2  23
TORSDOF 10
ENDMDL
