MODEL 1
REMARK VINA RESULT:      88.5      0.000      0.000
REMARK  7 active torsions:
REMARK  status: ('A' for Active; 'I' for Inactive)
REMARK    1  A    between atoms: C_20  and  N_1 
REMARK       I    between atoms: C_6  and  N_7 
REMARK    2  A    between atoms: C_10  and  C_6 
REMARK    3  A    between atoms: N_7  and  C_24 
REMARK    4  A    between atoms: C_9  and  N_7 
REMARK    5  A    between atoms: O_29  and  C_11 
REMARK    6  A    between atoms: C_23  and  C_20 
REMARK    7  A    between atoms: C_24  and  C_23 
ROOT
ATOM      1  C   UNL d   1      44.326 -15.812  38.231  0.00  0.00     0.085 C 
ENDROOT
BRANCH   1   2
ATOM      2  N   UNL d   1      44.079 -15.524  37.508  0.00  0.00    -0.271 N 
ATOM      3  C   UNL d   1      44.587 -15.039  37.070  0.00  0.00     0.271 C 
ATOM      4  O   UNL d   1      44.340 -14.748  36.343  0.00  0.00    -0.266 OA
BRANCH   3   5
ATOM      5  C   UNL d   1      45.335 -14.851  37.363  0.00  0.00     0.086 A 
ATOM      6  S   UNL d   1      45.543 -14.198  37.826  0.00  0.00    -0.082 SA
ATOM      7  C   UNL d   1      46.326 -14.235  37.984  0.00  0.00     0.036 A 
ATOM      8  C   UNL d   1      46.640 -14.890  37.641  0.00  0.00     0.008 A 
ATOM      9  C   UNL d   1      46.013 -15.296  37.237  0.00  0.00     0.012 A 
ENDBRANCH   3   5
BRANCH   2  10
ATOM     10  C   UNL d   1      43.335 -15.711  37.217  0.00  0.00     0.089 A 
ATOM     11  C   UNL d   1      42.657 -15.328  37.510  0.00  0.00     0.110 A 
ATOM     12  C   UNL d   1      41.917 -15.514  37.220  0.00  0.00     0.026 A 
ATOM     13  C   UNL d   1      41.832 -16.089  36.628  0.00  0.00     0.002 A 
ATOM     14  C   UNL d   1      42.500 -16.463  36.341  0.00  0.00     0.002 A 
ATOM     15  C   UNL d   1      41.084 -16.277  36.335  0.00  0.00     0.000 C 
ATOM     16  C   UNL d   1      43.240 -16.277  36.631  0.00  0.00     0.020 A 
BRANCH  11  17
ATOM     17  O   UNL d   1      42.731 -14.763  38.091  0.00  0.00    -0.327 OA
ATOM     18  C   UNL d   1      42.206 -14.138  38.121  0.00  0.00     0.181 C 
ENDBRANCH  11  17
ENDBRANCH   2  10
ENDBRANCH   1   2
BRANCH   1  19
ATOM     19  C   UNL d   1      44.607 -16.608  38.297  0.00  0.00     0.038 C 
BRANCH  19  20
ATOM     20  C   UNL d   1      44.189 -17.170  38.745  0.00  0.00     0.088 C 
BRANCH  20  21
ATOM     21  N   UNL d   1      44.563 -17.536  39.419  0.00  0.00    -0.240 N 
ATOM     22  C   UNL d   1      44.257 -17.425  40.178  0.00  0.00     0.267 A 
ATOM     23  C   UNL d   1      44.613 -17.775  40.837  0.00  0.00     0.057 A 
ATOM     24  O   UNL d   1      43.564 -16.941  40.296  0.00  0.00    -0.267 OA
ATOM     25  C   UNL d   1      44.314 -17.666  41.579  0.00  0.00     0.005 A 
ATOM     26  C   UNL d   1      45.290 -18.246  40.714  0.00  0.00     0.009 A 
ATOM     27  C   UNL d   1      44.676 -18.021  42.238  0.00  0.00     0.000 A 
ATOM     28  C   UNL d   1      45.342 -18.484  42.114  0.00  0.00     0.000 A 
ATOM     29  C   UNL d   1      45.641 -18.593  41.372  0.00  0.00     0.000 A 
ATOM     30  C   UNL d   1      46.315 -19.062  41.247  0.00  0.00     0.000 A 
ATOM     31  C   UNL d   1      46.621 -19.173  40.489  0.00  0.00     0.000 A 
ATOM     32  C   UNL d   1      46.260 -18.819  39.836  0.00  0.00     0.005 A 
ATOM     33  C   UNL d   1      45.595 -18.357  39.956  0.00  0.00     0.057 A 
ATOM     34  C   UNL d   1      45.231 -18.001  39.301  0.00  0.00     0.267 A 
ATOM     35  O   UNL d   1      45.542 -18.114  38.531  0.00  0.00    -0.267 OA
ENDBRANCH  20  21
ENDBRANCH  19  20
ENDBRANCH   1  19
TORSDOF 7
ENDMDL
