MODEL 1
REMARK VINA RESULT:      -5.4      0.000      0.000
REMARK  6 active torsions:
REMARK  status: ('A' for Active; 'I' for Inactive)
REMARK    1  A    between atoms: C_11  and  N_3 
REMARK    2  A    between atoms: C_10  and  C_7 
REMARK       I    between atoms: N_19  and  C_10 
REMARK    3  A    between atoms: C_21  and  C_11 
REMARK    4  A    between atoms: N_15  and  C_23 
REMARK    5  A    between atoms: C_22  and  N_19 
REMARK    6  A    between atoms: C_23  and  C_22 
ROOT
ATOM      1  C   UNL d   1     -48.414  13.941  23.170  0.00  0.00     0.154 A 
ATOM      2  C   UNL d   1     -48.135  14.627  22.807  0.00  0.00     0.093 A 
ATOM      3  N   UNL d   1     -47.768  13.437  23.285  0.00  0.00    -0.286 N 
ATOM      4  N   UNL d   1     -49.214  13.864  23.349  0.00  0.00    -0.210 NA
ATOM      5  C   UNL d   1     -48.656  15.236  22.622  0.00  0.00     0.269 A 
ATOM      6  N   UNL d   1     -49.456  15.160  22.799  0.00  0.00    -0.258 N 
ATOM      7  C   UNL d   1     -47.097  13.807  22.995  0.00  0.00     0.124 A 
ATOM      8  C   UNL d   1     -49.736  14.474  23.163  0.00  0.00     0.152 A 
ATOM      9  C   UNL d   1     -47.319  14.542  22.699  0.00  0.00     0.030 A 
ATOM     10  C   UNL d   1     -49.977  15.770  22.614  0.00  0.00     0.084 A 
ATOM     11  O   UNL d   1     -48.377  15.922  22.258  0.00  0.00    -0.266 OA
ATOM     12  C   UNL d   1     -50.536  14.398  23.341  0.00  0.00     0.038 A 
ATOM     13  C   UNL d   1     -50.781  15.696  22.792  0.00  0.00     0.019 A 
ATOM     14  C   UNL d   1     -51.060  15.010  23.156  0.00  0.00     0.005 A 
ENDROOT
BRANCH   7  15
ATOM     15  C   UNL d   1     -46.334  13.491  23.003  0.00  0.00     0.295 C 
ATOM     16  O   UNL d   1     -46.016  13.183  23.696  0.00  0.00    -0.264 OA
ATOM     17  N   UNL d   1     -45.890  13.487  22.302  0.00  0.00    -0.204 NA
BRANCH  17  18
ATOM     18  C   UNL d   1     -45.123  13.171  22.302  0.00  0.00     0.121 C 
BRANCH  18  19
ATOM     19  C   UNL d   1     -44.718  13.072  21.592  0.00  0.00     0.101 C 
BRANCH  19  20
ATOM     20  N   UNL d   1     -43.917  12.877  21.598  0.00  0.00    -0.298 N 
ATOM     21  C   UNL d   1     -43.667  12.165  21.942  0.00  0.00     0.107 A 
ATOM     22  C   UNL d   1     -42.857  11.968  21.948  0.00  0.00     0.142 A 
ATOM     23  O   UNL d   1     -42.305  12.486  21.609  0.00  0.00    -0.300 OA
ATOM     24  C   UNL d   1     -42.555  13.193  21.267  0.00  0.00     0.142 A 
ATOM     25  C   UNL d   1     -43.365  13.389  21.262  0.00  0.00     0.107 A 
ENDBRANCH  19  20
ENDBRANCH  18  19
ENDBRANCH  17  18
ENDBRANCH   7  15
BRANCH   3  26
ATOM     26  C   UNL d   1     -47.803  12.689  23.633  0.00  0.00     0.082 C 
BRANCH  26  27
ATOM     27  C   UNL d   1     -48.222  12.080  23.272  0.00  0.00     0.018 A 
ATOM     28  C   UNL d   1     -48.811  11.681  23.683  0.00  0.00     0.002 A 
ATOM     29  C   UNL d   1     -49.226  11.078  23.327  0.00  0.00     0.000 A 
ATOM     30  C   UNL d   1     -49.060  10.861  22.548  0.00  0.00     0.000 A 
ATOM     31  C   UNL d   1     -48.474  11.253  22.130  0.00  0.00     0.000 A 
ATOM     32  C   UNL d   1     -48.056  11.862  22.492  0.00  0.00     0.002 A 
ENDBRANCH  26  27
ENDBRANCH   3  26
TORSDOF 6
ENDMDL
MODEL 2
REMARK VINA RESULT:      -4.4      3.851      8.645
REMARK  6 active torsions:
REMARK  status: ('A' for Active; 'I' for Inactive)
REMARK    1  A    between atoms: C_11  and  N_3 
REMARK    2  A    between atoms: C_10  and  C_7 
REMARK       I    between atoms: N_19  and  C_10 
REMARK    3  A    between atoms: C_21  and  C_11 
REMARK    4  A    between atoms: N_15  and  C_23 
REMARK    5  A    between atoms: C_22  and  N_19 
REMARK    6  A    between atoms: C_23  and  C_22 
ROOT
ATOM      1  C   UNL d   1     -39.990  14.872  19.592  0.00  0.00     0.154 A 
ATOM      2  C   UNL d   1     -40.427  14.484  19.009  0.00  0.00     0.093 A 
ATOM      3  N   UNL d   1     -40.424  14.835  20.294  0.00  0.00    -0.286 N 
ATOM      4  N   UNL d   1     -39.260  15.205  19.408  0.00  0.00    -0.210 NA
ATOM      5  C   UNL d   1     -40.133  14.430  18.242  0.00  0.00     0.269 A 
ATOM      6  N   UNL d   1     -39.403  14.763  18.057  0.00  0.00    -0.258 N 
ATOM      7  C   UNL d   1     -41.122  14.430  20.149  0.00  0.00     0.124 A 
ATOM      8  C   UNL d   1     -38.966  15.150  18.640  0.00  0.00     0.152 A 
ATOM      9  C   UNL d   1     -41.127  14.211  19.355  0.00  0.00     0.030 A 
ATOM     10  C   UNL d   1     -39.109  14.708  17.291  0.00  0.00     0.084 A 
ATOM     11  O   UNL d   1     -40.570  14.042  17.659  0.00  0.00    -0.266 OA
ATOM     12  C   UNL d   1     -38.236  15.483  18.457  0.00  0.00     0.038 A 
ATOM     13  C   UNL d   1     -38.376  15.042  17.103  0.00  0.00     0.019 A 
ATOM     14  C   UNL d   1     -37.940  15.429  17.687  0.00  0.00     0.005 A 
ENDROOT
BRANCH   7  15
ATOM     15  C   UNL d   1     -41.710  14.273  20.705  0.00  0.00     0.295 C 
ATOM     16  O   UNL d   1     -41.932  14.845  21.253  0.00  0.00    -0.264 OA
ATOM     17  N   UNL d   1     -42.078  13.528  20.706  0.00  0.00    -0.204 NA
BRANCH  17  18
ATOM     18  C   UNL d   1     -42.671  13.362  21.263  0.00  0.00     0.121 C 
BRANCH  18  19
ATOM     19  C   UNL d   1     -43.148  12.699  21.172  0.00  0.00     0.101 C 
BRANCH  19  20
ATOM     20  N   UNL d   1     -43.764  12.556  21.701  0.00  0.00    -0.298 N 
ATOM     21  C   UNL d   1     -43.695  11.947  22.261  0.00  0.00     0.107 A 
ATOM     22  C   UNL d   1     -44.317  11.803  22.796  0.00  0.00     0.142 A 
ATOM     23  O   UNL d   1     -45.002  12.271  22.766  0.00  0.00    -0.300 OA
ATOM     24  C   UNL d   1     -45.068  12.874  22.210  0.00  0.00     0.142 A 
ATOM     25  C   UNL d   1     -44.446  13.018  21.675  0.00  0.00     0.107 A 
ENDBRANCH  19  20
ENDBRANCH  18  19
ENDBRANCH  17  18
ENDBRANCH   7  15
BRANCH   3  26
ATOM     26  C   UNL d   1     -40.187  15.156  21.018  0.00  0.00     0.082 C 
BRANCH  26  27
ATOM     27  C   UNL d   1     -39.566  14.820  21.440  0.00  0.00     0.018 A 
ATOM     28  C   UNL d   1     -38.993  15.298  21.785  0.00  0.00     0.002 A 
ATOM     29  C   UNL d   1     -38.378  14.967  22.202  0.00  0.00     0.000 A 
ATOM     30  C   UNL d   1     -38.322  14.147  22.284  0.00  0.00     0.000 A 
ATOM     31  C   UNL d   1     -38.889  13.663  21.943  0.00  0.00     0.000 A 
ATOM     32  C   UNL d   1     -39.510  14.000  21.521  0.00  0.00     0.002 A 
ENDBRANCH  26  27
ENDBRANCH   3  26
TORSDOF 6
ENDMDL
MODEL 3
REMARK VINA RESULT:      -4.4      1.139      2.653
REMARK  6 active torsions:
REMARK  status: ('A' for Active; 'I' for Inactive)
REMARK    1  A    between atoms: C_11  and  N_3 
REMARK    2  A    between atoms: C_10  and  C_7 
REMARK       I    between atoms: N_19  and  C_10 
REMARK    3  A    between atoms: C_21  and  C_11 
REMARK    4  A    between atoms: N_15  and  C_23 
REMARK    5  A    between atoms: C_22  and  N_19 
REMARK    6  A    between atoms: C_23  and  C_22 
ROOT
ATOM      1  C   UNL d   1     -48.327  12.919  23.362  0.00  0.00     0.154 A 
ATOM      2  C   UNL d   1     -48.113  12.125  23.299  0.00  0.00     0.093 A 
ATOM      3  N   UNL d   1     -47.638  13.370  23.288  0.00  0.00    -0.286 N 
ATOM      4  N   UNL d   1     -49.115  13.127  23.477  0.00  0.00    -0.210 NA
ATOM      5  C   UNL d   1     -48.687  11.538  23.351  0.00  0.00     0.269 A 
ATOM      6  N   UNL d   1     -49.476  11.745  23.467  0.00  0.00    -0.258 N 
ATOM      7  C   UNL d   1     -47.004  12.862  23.181  0.00  0.00     0.124 A 
ATOM      8  C   UNL d   1     -49.690  12.539  23.530  0.00  0.00     0.152 A 
ATOM      9  C   UNL d   1     -47.293  12.091  23.187  0.00  0.00     0.030 A 
ATOM     10  C   UNL d   1     -50.050  11.158  23.519  0.00  0.00     0.084 A 
ATOM     11  O   UNL d   1     -48.473  10.744  23.289  0.00  0.00    -0.266 OA
ATOM     12  C   UNL d   1     -50.478  12.747  23.645  0.00  0.00     0.038 A 
ATOM     13  C   UNL d   1     -50.843  11.363  23.635  0.00  0.00     0.019 A 
ATOM     14  C   UNL d   1     -51.057  12.158  23.698  0.00  0.00     0.005 A 
ENDROOT
BRANCH   7  15
ATOM     15  C   UNL d   1     -46.217  13.090  23.084  0.00  0.00     0.295 C 
ATOM     16  O   UNL d   1     -45.867  13.619  23.607  0.00  0.00    -0.264 OA
ATOM     17  N   UNL d   1     -45.780  12.778  22.450  0.00  0.00    -0.204 NA
BRANCH  17  18
ATOM     18  C   UNL d   1     -44.988  13.003  22.347  0.00  0.00     0.121 C 
BRANCH  18  19
ATOM     19  C   UNL d   1     -44.627  12.913  21.613  0.00  0.00     0.101 C 
BRANCH  19  20
ATOM     20  N   UNL d   1     -43.804  12.933  21.552  0.00  0.00    -0.298 N 
ATOM     21  C   UNL d   1     -43.431  13.595  21.217  0.00  0.00     0.107 A 
ATOM     22  C   UNL d   1     -42.601  13.615  21.156  0.00  0.00     0.142 A 
ATOM     23  O   UNL d   1     -42.151  12.974  21.430  0.00  0.00    -0.300 OA
ATOM     24  C   UNL d   1     -42.524  12.319  21.762  0.00  0.00     0.142 A 
ATOM     25  C   UNL d   1     -43.354  12.299  21.823  0.00  0.00     0.107 A 
ENDBRANCH  19  20
ENDBRANCH  18  19
ENDBRANCH  17  18
ENDBRANCH   7  15
BRANCH   3  26
ATOM     26  C   UNL d   1     -47.603  14.196  23.318  0.00  0.00     0.082 C 
BRANCH  26  27
ATOM     27  C   UNL d   1     -48.015  14.651  22.770  0.00  0.00     0.018 A 
ATOM     28  C   UNL d   1     -48.574  15.198  23.022  0.00  0.00     0.002 A 
ATOM     29  C   UNL d   1     -48.982  15.649  22.482  0.00  0.00     0.000 A 
ATOM     30  C   UNL d   1     -48.838  15.562  21.673  0.00  0.00     0.000 A 
ATOM     31  C   UNL d   1     -48.283  15.019  21.413  0.00  0.00     0.000 A 
ATOM     32  C   UNL d   1     -47.871  14.564  21.961  0.00  0.00     0.002 A 
ENDBRANCH  26  27
ENDBRANCH   3  26
TORSDOF 6
ENDMDL
MODEL 4
REMARK VINA RESULT:      -2.7      1.311      1.557
REMARK  6 active torsions:
REMARK  status: ('A' for Active; 'I' for Inactive)
REMARK    1  A    between atoms: C_11  and  N_3 
REMARK    2  A    between atoms: C_10  and  C_7 
REMARK       I    between atoms: N_19  and  C_10 
REMARK    3  A    between atoms: C_21  and  C_11 
REMARK    4  A    between atoms: N_15  and  C_23 
REMARK    5  A    between atoms: C_22  and  N_19 
REMARK    6  A    between atoms: C_23  and  C_22 
ROOT
ATOM      1  C   UNL d   1     -48.107  13.178  22.837  0.00  0.00     0.154 A 
ATOM      2  C   UNL d   1     -48.171  13.621  22.144  0.00  0.00     0.093 A 
ATOM      3  N   UNL d   1     -47.306  13.142  23.038  0.00  0.00    -0.286 N 
ATOM      4  N   UNL d   1     -48.781  12.868  23.193  0.00  0.00    -0.210 NA
ATOM      5  C   UNL d   1     -48.909  13.753  21.807  0.00  0.00     0.269 A 
ATOM      6  N   UNL d   1     -49.585  13.443  22.161  0.00  0.00    -0.258 N 
ATOM      7  C   UNL d   1     -46.878  13.558  22.476  0.00  0.00     0.124 A 
ATOM      8  C   UNL d   1     -49.521  13.001  22.854  0.00  0.00     0.152 A 
ATOM      9  C   UNL d   1     -47.409  13.856  21.921  0.00  0.00     0.030 A 
ATOM     10  C   UNL d   1     -50.323  13.576  21.824  0.00  0.00     0.084 A 
ATOM     11  O   UNL d   1     -48.973  14.196  21.113  0.00  0.00    -0.266 OA
ATOM     12  C   UNL d   1     -50.195  12.690  23.210  0.00  0.00     0.038 A 
ATOM     13  C   UNL d   1     -51.002  13.265  22.179  0.00  0.00     0.019 A 
ATOM     14  C   UNL d   1     -50.938  12.822  22.872  0.00  0.00     0.005 A 
ENDROOT
BRANCH   7  15
ATOM     15  C   UNL d   1     -46.059  13.656  22.473  0.00  0.00     0.295 C 
ATOM     16  O   UNL d   1     -45.674  13.984  23.122  0.00  0.00    -0.264 OA
ATOM     17  N   UNL d   1     -45.625  13.421  21.805  0.00  0.00    -0.204 NA
BRANCH  17  18
ATOM     18  C   UNL d   1     -44.801  13.517  21.794  0.00  0.00     0.121 C 
BRANCH  18  19
ATOM     19  C   UNL d   1     -44.344  13.096  21.254  0.00  0.00     0.101 C 
BRANCH  19  20
ATOM     20  N   UNL d   1     -43.556  12.922  21.427  0.00  0.00    -0.298 N 
ATOM     21  C   UNL d   1     -42.949  13.383  21.098  0.00  0.00     0.107 A 
ATOM     22  C   UNL d   1     -42.154  13.207  21.273  0.00  0.00     0.142 A 
ATOM     23  O   UNL d   1     -41.973  12.571  21.774  0.00  0.00    -0.300 OA
ATOM     24  C   UNL d   1     -42.577  12.115  22.099  0.00  0.00     0.142 A 
ATOM     25  C   UNL d   1     -43.372  12.291  21.925  0.00  0.00     0.107 A 
ENDBRANCH  19  20
ENDBRANCH  18  19
ENDBRANCH  17  18
ENDBRANCH   7  15
BRANCH   3  26
ATOM     26  C   UNL d   1     -46.996  12.751  23.697  0.00  0.00     0.082 C 
BRANCH  26  27
ATOM     27  C   UNL d   1     -46.920  11.931  23.697  0.00  0.00     0.018 A 
ATOM     28  C   UNL d   1     -47.588  11.453  23.698  0.00  0.00     0.002 A 
ATOM     29  C   UNL d   1     -47.515  10.642  23.698  0.00  0.00     0.000 A 
ATOM     30  C   UNL d   1     -46.767  10.292  23.698  0.00  0.00     0.000 A 
ATOM     31  C   UNL d   1     -46.095  10.761  23.697  0.00  0.00     0.000 A 
ATOM     32  C   UNL d   1     -46.172  11.580  23.697  0.00  0.00     0.002 A 
ENDBRANCH  26  27
ENDBRANCH   3  26
TORSDOF 6
ENDMDL
