MODEL 1
REMARK VINA RESULT:      22.0      0.000      0.000
REMARK  3 active torsions:
REMARK  status: ('A' for Active; 'I' for Inactive)
REMARK    1  A    between atoms: N_9  and  C_2 
REMARK    2  A    between atoms: C_11  and  N_9 
REMARK    3  A    between atoms: O_14  and  C_13 
ROOT
ATOM      1  C   UNL d   1      57.365  49.522  50.207  0.00  0.00     0.154 A 
ATOM      2  C   UNL d   1      58.091  49.630  50.574  0.00  0.00     0.185 A 
ATOM      3  C   UNL d   1      56.679  49.444  50.659  0.00  0.00     0.186 A 
ATOM      4  N   UNL d   1      57.154  49.469  49.411  0.00  0.00    -0.218 NA
ATOM      5  N   UNL d   1      56.046  49.344  50.142  0.00  0.00    -0.203 NA
ATOM      6  N   UNL d   1      58.135  49.661  51.398  0.00  0.00    -0.203 NA
ATOM      7  N   UNL d   1      56.720  49.475  51.479  0.00  0.00    -0.203 NA
ATOM      8  C   UNL d   1      56.334  49.359  49.378  0.00  0.00     0.201 A 
ATOM      9  C   UNL d   1      57.449  49.583  51.850  0.00  0.00     0.202 A 
ENDROOT
BRANCH   2  10
ATOM     10  N   UNL d   1      58.776  49.707  50.122  0.00  0.00    -0.225 NA
BRANCH  10  11
ATOM     11  C   UNL d   1      59.514  49.681  50.482  0.00  0.00     0.085 A 
ATOM     12  C   UNL d   1      59.568  49.649  51.305  0.00  0.00     0.043 A 
ATOM     13  C   UNL d   1      60.308  49.622  51.670  0.00  0.00     0.096 A 
ATOM     14  C   UNL d   1      60.994  49.627  51.211  0.00  0.00     0.024 A 
ATOM     15  C   UNL d   1      60.934  49.659  50.381  0.00  0.00     0.004 A 
ATOM     16  C   UNL d   1      60.200  49.686  50.024  0.00  0.00     0.019 A 
BRANCH  13  17
ATOM     17  O   UNL d   1      60.361  49.589  52.499  0.00  0.00    -0.328 OA
ATOM     18  C   UNL d   1      61.095  49.666  52.870  0.00  0.00     0.181 C 
ENDBRANCH  13  17
ENDBRANCH  10  11
ENDBRANCH   2  10
TORSDOF 3
ENDMDL
MODEL 2
REMARK VINA RESULT:      23.2      1.680      3.788
REMARK  3 active torsions:
REMARK  status: ('A' for Active; 'I' for Inactive)
REMARK    1  A    between atoms: N_9  and  C_2 
REMARK    2  A    between atoms: C_11  and  N_9 
REMARK    3  A    between atoms: O_14  and  C_13 
ROOT
ATOM      1  C   UNL d   1      60.169  49.592  51.324  0.00  0.00     0.154 A 
ATOM      2  C   UNL d   1      59.592  49.656  50.744  0.00  0.00     0.185 A 
ATOM      3  C   UNL d   1      60.965  49.540  51.112  0.00  0.00     0.186 A 
ATOM      4  N   UNL d   1      60.121  49.567  52.147  0.00  0.00    -0.218 NA
ATOM      5  N   UNL d   1      61.407  49.483  51.805  0.00  0.00    -0.203 NA
ATOM      6  N   UNL d   1      59.807  49.668  49.948  0.00  0.00    -0.203 NA
ATOM      7  N   UNL d   1      61.183  49.552  50.320  0.00  0.00    -0.203 NA
ATOM      8  C   UNL d   1      60.892  49.499  52.439  0.00  0.00     0.201 A 
ATOM      9  C   UNL d   1      60.603  49.616  49.736  0.00  0.00     0.202 A 
ENDROOT
BRANCH   2  10
ATOM     10  N   UNL d   1      58.796  49.708  50.956  0.00  0.00    -0.225 NA
BRANCH  10  11
ATOM     11  C   UNL d   1      58.210  49.565  50.398  0.00  0.00     0.085 A 
ATOM     12  C   UNL d   1      57.474  49.278  50.640  0.00  0.00     0.043 A 
ATOM     13  C   UNL d   1      56.884  49.134  50.082  0.00  0.00     0.096 A 
ATOM     14  C   UNL d   1      57.028  49.277  49.282  0.00  0.00     0.024 A 
ATOM     15  C   UNL d   1      57.772  49.566  49.043  0.00  0.00     0.004 A 
ATOM     16  C   UNL d   1      58.355  49.708  49.599  0.00  0.00     0.019 A 
BRANCH  13  17
ATOM     17  O   UNL d   1      56.143  48.845  50.326  0.00  0.00    -0.328 OA
ATOM     18  C   UNL d   1      56.037  48.583  51.101  0.00  0.00     0.181 C 
ENDBRANCH  13  17
ENDBRANCH  10  11
ENDBRANCH   2  10
TORSDOF 3
ENDMDL
