MODEL 1
REMARK VINA RESULT:      12.8      0.000      0.000
REMARK  4 active torsions:
REMARK  status: ('A' for Active; 'I' for Inactive)
REMARK    1  A    between atoms: C_4  and  C_3 
REMARK    2  A    between atoms: C_5  and  C_4 
REMARK    3  A    between atoms: C_9  and  C_5 
REMARK    4  A    between atoms: C_13  and  C_9 
ROOT
ATOM      1  N   UNL d   1      44.627 -14.898  44.943  0.00  0.00    -0.234 NA
ATOM      2  C   UNL d   1      44.924 -15.664  44.859  0.00  0.00     0.138 A 
ATOM      3  C   UNL d   1      45.721 -15.779  44.678  0.00  0.00     0.029 A 
ATOM      4  C   UNL d   1      45.126 -14.248  44.848  0.00  0.00     0.082 A 
ATOM      5  C   UNL d   1      45.924 -14.363  44.667  0.00  0.00     0.018 A 
ATOM      6  C   UNL d   1      46.168 -15.121  44.594  0.00  0.00     0.004 A 
ATOM      7  C   UNL d   1      46.370 -13.707  44.583  0.00  0.00     0.002 A 
ATOM      8  C   UNL d   1      44.829 -13.484  44.932  0.00  0.00     0.019 A 
ATOM      9 CL   UNL d   1      44.425 -16.313  44.954  0.00  0.00    -0.061 Cl
ATOM     10  C   UNL d   1      46.126 -12.950  44.656  0.00  0.00     0.000 A 
ATOM     11  C   UNL d   1      45.328 -12.834  44.837  0.00  0.00     0.002 A 
ATOM     12  C   UNL d   1      46.569 -12.319  44.572  0.00  0.00     0.000 C 
ENDROOT
BRANCH   3  13
ATOM     13  C   UNL d   1      45.966 -16.536  44.605  0.00  0.00     0.006 C 
BRANCH  13  14
ATOM     14  C   UNL d   1      46.319 -17.161  44.198  0.00  0.00     0.042 C 
BRANCH  14  15
ATOM     15  C   UNL d   1      46.261 -17.976  44.224  0.00  0.00     0.196 C 
ATOM     16  O   UNL d   1      46.094 -18.356  44.939  0.00  0.00    -0.287 OA
BRANCH  15  17
ATOM     17  C   UNL d   1      46.366 -18.425  43.552  0.00  0.00     0.039 A 
ATOM     18  C   UNL d   1      46.306 -18.088  42.803  0.00  0.00     0.003 A 
ATOM     19  C   UNL d   1      46.416 -18.560  42.136  0.00  0.00     0.000 A 
ATOM     20  C   UNL d   1      46.586 -19.367  42.207  0.00  0.00     0.000 A 
ATOM     21  C   UNL d   1      46.646 -19.704  42.948  0.00  0.00     0.000 A 
ATOM     22  C   UNL d   1      46.535 -19.230  43.622  0.00  0.00     0.003 A 
ENDBRANCH  15  17
ENDBRANCH  14  15
ENDBRANCH  13  14
ENDBRANCH   3  13
TORSDOF 4
ENDMDL
