MODEL 1
REMARK VINA RESULT:       0.6      0.000      0.000
REMARK  9 active torsions:
REMARK  status: ('A' for Active; 'I' for Inactive)
REMARK    1  A    between atoms: C_6  and  N_1 
REMARK    2  A    between atoms: C_2  and  O_5 
REMARK    3  A    between atoms: C_8  and  C_3 
REMARK    4  A    between atoms: C_4  and  C_9 
REMARK    5  A    between atoms: O_5  and  C_4 
REMARK    6  A    between atoms: C_7  and  C_8 
REMARK    7  A    between atoms: C_13  and  C_7 
REMARK    8  A    between atoms: C_10  and  C_13 
REMARK    9  A    between atoms: O_25  and  C_23 
ROOT
ATOM      1  C   UNL d   1     -41.450-121.785 -51.883  0.00  0.00     0.108 A 
ATOM      2  C   UNL d   1     -41.405-121.967 -51.078  0.00  0.00     0.062 A 
ATOM      3  C   UNL d   1     -41.355-120.996 -52.135  0.00  0.00     0.049 A 
ATOM      4  C   UNL d   1     -41.265-121.360 -50.524  0.00  0.00     0.007 A 
ATOM      5  C   UNL d   1     -41.216-120.399 -51.583  0.00  0.00     0.096 A 
ATOM      6  C   UNL d   1     -41.171-120.581 -50.778  0.00  0.00     0.024 A 
ENDROOT
BRANCH   1   7
ATOM      7  O   UNL d   1     -41.588-122.381 -52.439  0.00  0.00    -0.273 OA
BRANCH   7   8
ATOM      8  C   UNL d   1     -42.138-122.257 -53.045  0.00  0.00     0.300 C 
ATOM      9  O   UNL d   1     -42.845-121.866 -52.892  0.00  0.00    -0.259 OA
BRANCH   8  10
ATOM     10  C   UNL d   1     -41.971-122.530 -53.805  0.00  0.00     0.065 A 
ATOM     11  C   UNL d   1     -42.054-122.017 -54.443  0.00  0.00     0.029 A 
ATOM     12  C   UNL d   1     -41.889-122.286 -55.200  0.00  0.00     0.127 A 
ATOM     13  C   UNL d   1     -41.642-123.067 -55.319  0.00  0.00     0.024 A 
ATOM     14  C   UNL d   1     -41.564-123.569 -54.677  0.00  0.00     0.002 A 
ATOM     15  C   UNL d   1     -41.728-123.302 -53.921  0.00  0.00     0.005 A 
BRANCH  12  16
ATOM     16  N   UNL d   1     -41.970-121.774 -55.844  0.00  0.00    -0.114 N 
ATOM     17  O   UNL d   1     -41.334-121.307 -56.080  0.00  0.00    -0.532 OA
ATOM     18  O   UNL d   1     -42.696-121.727 -56.255  0.00  0.00    -0.532 OA
ENDBRANCH  12  16
ENDBRANCH   8  10
ENDBRANCH   7   8
ENDBRANCH   1   7
BRANCH   2  19
ATOM     19  C   UNL d   1     -41.499-122.750 -50.825  0.00  0.00     0.198 C 
ATOM     20  O   UNL d   1     -41.124-123.363 -51.232  0.00  0.00    -0.286 OA
BRANCH  19  21
ATOM     21  C   UNL d   1     -41.967-122.916 -50.167  0.00  0.00     0.043 C 
BRANCH  21  22
ATOM     22  C   UNL d   1     -41.725-123.491 -49.626  0.00  0.00     0.010 C 
BRANCH  22  23
ATOM     23  C   UNL d   1     -42.107-123.555 -48.897  0.00  0.00     0.030 A 
ATOM     24  S   UNL d   1     -41.753-123.530 -48.150  0.00  0.00    -0.086 SA
ATOM     25  C   UNL d   1     -42.340-123.615 -47.576  0.00  0.00     0.035 A 
ATOM     26  C   UNL d   1     -43.065-123.693 -47.963  0.00  0.00     0.007 A 
ATOM     27  C   UNL d   1     -42.923-123.656 -48.779  0.00  0.00     0.007 A 
ENDBRANCH  22  23
ENDBRANCH  21  22
ENDBRANCH  19  21
ENDBRANCH   2  19
BRANCH   5  28
ATOM     28  O   UNL d   1     -41.123-119.619 -51.837  0.00  0.00    -0.328 OA
ATOM     29  C   UNL d   1     -41.546-119.345 -52.494  0.00  0.00     0.181 C 
ENDBRANCH   5  28
TORSDOF 9
ENDMDL
