MODEL 1
REMARK VINA RESULT:      51.3      0.000      0.000
REMARK  6 active torsions:
REMARK  status: ('A' for Active; 'I' for Inactive)
REMARK    1  A    between atoms: C_6  and  N_2 
REMARK    2  A    between atoms: C_7  and  C_3 
REMARK    3  A    between atoms: C_10  and  C_6 
REMARK    4  A    between atoms: C_15  and  C_7 
REMARK    5  A    between atoms: O_8  and  C_10 
REMARK    6  A    between atoms: C_9  and  O_8 
ROOT
ATOM      1  N   UNL d   1     -55.268-102.771 -42.394  0.00  0.00    -0.227 NA
ATOM      2  N   UNL d   1     -54.882-101.565 -42.824  0.00  0.00    -0.287 N 
ATOM      3  C   UNL d   1     -55.116-102.326 -43.086  0.00  0.00     0.148 A 
ATOM      4  C   UNL d   1     -54.892-101.552 -42.005  0.00  0.00     0.083 A 
ATOM      5  C   UNL d   1     -55.141-102.329 -41.727  0.00  0.00     0.099 A 
ATOM      6  C   UNL d   1     -54.714-100.956 -41.479  0.00  0.00     0.019 A 
ATOM      7  C   UNL d   1     -55.184-102.419 -40.899  0.00  0.00     0.021 A 
ATOM      8  C   UNL d   1     -54.779-101.118 -40.688  0.00  0.00     0.002 A 
ATOM      9  C   UNL d   1     -55.013-101.846 -40.428  0.00  0.00     0.002 A 
ENDROOT
BRANCH   2  10
ATOM     10  C   UNL d   1     -54.712-101.057 -43.417  0.00  0.00     0.108 C 
BRANCH  10  11
ATOM     11  C   UNL d   1     -54.727-100.245 -43.318  0.00  0.00     0.142 C 
BRANCH  11  12
ATOM     12  O   UNL d   1     -54.815 -99.721 -43.938  0.00  0.00    -0.304 OA
BRANCH  12  13
ATOM     13  C   UNL d   1     -55.541 -99.403 -44.164  0.00  0.00     0.100 A 
ATOM     14  C   UNL d   1     -56.134 -99.192 -43.631  0.00  0.00     0.025 A 
ATOM     15  C   UNL d   1     -56.858 -98.874 -43.858  0.00  0.00     0.002 A 
ATOM     16  C   UNL d   1     -57.002 -98.760 -44.670  0.00  0.00     0.000 A 
ATOM     17  C   UNL d   1     -56.416 -98.966 -45.232  0.00  0.00     0.002 A 
ATOM     18  C   UNL d   1     -55.684 -99.288 -44.977  0.00  0.00     0.025 A 
ENDBRANCH  12  13
ENDBRANCH  11  12
ENDBRANCH  10  11
ENDBRANCH   2  10
BRANCH   3  19
ATOM     19  C   UNL d   1     -55.053-102.169 -43.875  0.00  0.00     0.037 C 
BRANCH  19  20
ATOM     20  C   UNL d   1     -54.817-102.778 -44.399  0.00  0.00     0.003 C 
ATOM     21  C   UNL d   1     -54.905-102.686 -45.224  0.00  0.00     0.000 C 
ENDBRANCH  19  20
ENDBRANCH   3  19
TORSDOF 6
ENDMDL
MODEL 2
REMARK VINA RESULT:      53.7      1.801      3.195
REMARK  6 active torsions:
REMARK  status: ('A' for Active; 'I' for Inactive)
REMARK    1  A    between atoms: C_6  and  N_2 
REMARK    2  A    between atoms: C_7  and  C_3 
REMARK    3  A    between atoms: C_10  and  C_6 
REMARK    4  A    between atoms: C_15  and  C_7 
REMARK    5  A    between atoms: O_8  and  C_10 
REMARK    6  A    between atoms: C_9  and  O_8 
ROOT
ATOM      1  N   UNL d   1     -55.314-100.820 -43.366  0.00  0.00    -0.227 NA
ATOM      2  N   UNL d   1     -55.414-100.067 -44.466  0.00  0.00    -0.287 N 
ATOM      3  C   UNL d   1     -55.507-100.051 -43.634  0.00  0.00     0.148 A 
ATOM      4  C   UNL d   1     -55.174-100.817 -44.692  0.00  0.00     0.083 A 
ATOM      5  C   UNL d   1     -55.109-101.303 -43.983  0.00  0.00     0.099 A 
ATOM      6  C   UNL d   1     -55.007-101.124 -45.427  0.00  0.00     0.019 A 
ATOM      7  C   UNL d   1     -54.868-102.091 -44.108  0.00  0.00     0.021 A 
ATOM      8  C   UNL d   1     -54.779-101.900 -45.471  0.00  0.00     0.002 A 
ATOM      9  C   UNL d   1     -54.718-102.355 -44.806  0.00  0.00     0.002 A 
ENDROOT
BRANCH   2  10
ATOM     10  C   UNL d   1     -55.577 -99.370 -44.822  0.00  0.00     0.108 C 
BRANCH  10  11
ATOM     11  C   UNL d   1     -56.324 -99.036 -44.812  0.00  0.00     0.142 C 
BRANCH  11  12
ATOM     12  O   UNL d   1     -56.704 -98.770 -45.485  0.00  0.00    -0.304 OA
BRANCH  12  13
ATOM     13  C   UNL d   1     -57.523 -98.778 -45.576  0.00  0.00     0.100 A 
ATOM     14  C   UNL d   1     -57.902 -98.763 -46.309  0.00  0.00     0.025 A 
ATOM     15  C   UNL d   1     -58.719 -98.771 -46.400  0.00  0.00     0.002 A 
ATOM     16  C   UNL d   1     -59.191 -98.796 -45.714  0.00  0.00     0.000 A 
ATOM     17  C   UNL d   1     -58.832 -98.812 -44.958  0.00  0.00     0.002 A 
ATOM     18  C   UNL d   1     -57.995 -98.803 -44.891  0.00  0.00     0.025 A 
ENDBRANCH  12  13
ENDBRANCH  11  12
ENDBRANCH  10  11
ENDBRANCH   2  10
BRANCH   3  19
ATOM     19  C   UNL d   1     -55.735 -99.278 -43.586  0.00  0.00     0.037 C 
BRANCH  19  20
ATOM     20  C   UNL d   1     -55.655 -98.868 -42.860  0.00  0.00     0.003 C 
ATOM     21  C   UNL d   1     -56.309 -98.776 -42.351  0.00  0.00     0.000 C 
ENDBRANCH  19  20
ENDBRANCH   3  19
TORSDOF 6
ENDMDL
