MODEL 1
REMARK VINA RESULT:      21.5      0.000      0.000
REMARK  1 active torsions:
REMARK  status: ('A' for Active; 'I' for Inactive)
REMARK    1  A    between atoms: C_10  and  C_4 
ROOT
ATOM      1  C   UNL d   1      46.302 -17.729  42.932  0.00  0.00     0.111 A 
ATOM      2  C   UNL d   1      46.475 -19.043  43.500  0.00  0.00     0.062 A 
ATOM      3  C   UNL d   1      46.244 -17.408  43.670  0.00  0.00     0.213 A 
ATOM      4  C   UNL d   1      46.421 -18.568  42.832  0.00  0.00     0.018 A 
ATOM      5  C   UNL d   1      46.413 -18.697  44.276  0.00  0.00     0.105 A 
ATOM      6  O   UNL d   1      46.303 -17.920  44.363  0.00  0.00    -0.287 OA
ATOM      7  C   UNL d   1      46.248 -17.257  42.267  0.00  0.00     0.105 C 
ATOM      8  C   UNL d   1      46.590 -19.856  43.439  0.00  0.00     0.198 A 
ATOM      9  N   UNL d   1      46.193 -16.776  41.589  0.00  0.00    -0.191 NA
ATOM     10  N   UNL d   1      46.125 -16.575  43.785  0.00  0.00    -0.120 N 
ATOM     11  O   UNL d   1      46.645 -20.151  42.673  0.00  0.00    -0.286 OA
ATOM     12  C   UNL d   1      46.467 -19.178  44.954  0.00  0.00     0.025 A 
ATOM     13  C   UNL d   1      46.644 -20.328  44.103  0.00  0.00     0.042 A 
ATOM     14  C   UNL d   1      46.585 -20.011  44.864  0.00  0.00     0.005 A 
ENDROOT
BRANCH   4  15
ATOM     15  C   UNL d   1      46.482 -18.911  42.098  0.00  0.00     0.001 A 
ATOM     16  C   UNL d   1      46.585 -18.451  41.415  0.00  0.00     0.000 A 
ATOM     17  C   UNL d   1      46.646 -18.809  40.675  0.00  0.00     0.000 A 
ATOM     18  C   UNL d   1      46.607 -19.627  40.596  0.00  0.00     0.000 A 
ATOM     19  C   UNL d   1      46.504 -20.088  41.278  0.00  0.00     0.000 A 
ATOM     20  C   UNL d   1      46.443 -19.729  42.019  0.00  0.00     0.000 A 
ENDBRANCH   4  15
TORSDOF 1
ENDMDL
MODEL 2
REMARK VINA RESULT:      24.4      0.872      2.615
REMARK  1 active torsions:
REMARK  status: ('A' for Active; 'I' for Inactive)
REMARK    1  A    between atoms: C_10  and  C_4 
ROOT
ATOM      1  C   UNL d   1      46.364 -18.309  42.355  0.00  0.00     0.111 A 
ATOM      2  C   UNL d   1      46.362 -18.902  43.669  0.00  0.00     0.062 A 
ATOM      3  C   UNL d   1      46.542 -19.022  42.024  0.00  0.00     0.213 A 
ATOM      4  C   UNL d   1      46.268 -18.234  43.199  0.00  0.00     0.018 A 
ATOM      5  C   UNL d   1      46.551 -19.652  43.312  0.00  0.00     0.105 A 
ATOM      6  O   UNL d   1      46.638 -19.715  42.530  0.00  0.00    -0.287 OA
ATOM      7  C   UNL d   1      46.270 -17.645  41.888  0.00  0.00     0.105 C 
ATOM      8  C   UNL d   1      46.277 -18.864  44.487  0.00  0.00     0.198 A 
ATOM      9  N   UNL d   1      46.176 -16.968  41.412  0.00  0.00    -0.191 NA
ATOM     10  N   UNL d   1      46.640 -19.112  41.185  0.00  0.00    -0.120 N 
ATOM     11  O   UNL d   1      46.095 -18.122  44.792  0.00  0.00    -0.286 OA
ATOM     12  C   UNL d   1      46.646 -20.329  43.788  0.00  0.00     0.025 A 
ATOM     13  C   UNL d   1      46.370 -19.528  44.954  0.00  0.00     0.042 A 
ATOM     14  C   UNL d   1      46.553 -20.264  44.627  0.00  0.00     0.005 A 
ENDROOT
BRANCH   4  15
ATOM     15  C   UNL d   1      46.088 -17.524  43.553  0.00  0.00     0.001 A 
ATOM     16  C   UNL d   1      45.404 -17.435  44.014  0.00  0.00     0.000 A 
ATOM     17  C   UNL d   1      45.231 -16.710  44.368  0.00  0.00     0.000 A 
ATOM     18  C   UNL d   1      45.729 -16.063  44.273  0.00  0.00     0.000 A 
ATOM     19  C   UNL d   1      46.414 -16.152  43.812  0.00  0.00     0.000 A 
ATOM     20  C   UNL d   1      46.586 -16.877  43.458  0.00  0.00     0.000 A 
ENDBRANCH   4  15
TORSDOF 1
ENDMDL
