MODEL 1
REMARK VINA RESULT:      93.7      0.000      0.000
REMARK  6 active torsions:
REMARK  status: ('A' for Active; 'I' for Inactive)
REMARK    1  A    between atoms: S_6  and  N_1 
REMARK    2  A    between atoms: C_2  and  C_4 
REMARK    3  A    between atoms: C_12  and  C_3 
REMARK    4  A    between atoms: C_17  and  N_8 
REMARK    5  A    between atoms: C_16  and  C_10 
REMARK    6  A    between atoms: O_27  and  C_24 
ROOT
ATOM      1  N   UNL d   1      44.518 -17.371  37.779  0.00  0.00    -0.155 N 
ATOM      2  C   UNL d   1      44.474 -16.603  38.080  0.00  0.00     0.099 A 
ATOM      3  N   UNL d   1      44.906 -17.821  38.343  0.00  0.00    -0.156 NA
ATOM      4  C   UNL d   1      45.102 -17.338  38.989  0.00  0.00     0.103 A 
ATOM      5  C   UNL d   1      44.822 -16.584  38.801  0.00  0.00     0.041 A 
ENDROOT
BRANCH   2   6
ATOM      6  C   UNL d   1      44.102 -15.965  37.646  0.00  0.00     0.058 A 
ATOM      7  C   UNL d   1      44.485 -15.381  37.247  0.00  0.00     0.110 A 
ATOM      8  N   UNL d   1      43.870 -14.906  36.924  0.00  0.00    -0.165 NA
ATOM      9  N   UNL d   1      43.136 -15.222  37.142  0.00  0.00    -0.228 N 
ATOM     10  C   UNL d   1      43.281 -15.889  37.596  0.00  0.00     0.103 A 
BRANCH   7  11
ATOM     11  C   UNL d   1      45.292 -15.263  37.164  0.00  0.00     0.049 A 
ATOM     12  S   UNL d   1      45.930 -15.386  37.047  0.00  0.00    -0.085 SA
ATOM     13  C   UNL d   1      46.326 -14.657  37.165  0.00  0.00     0.035 A 
ATOM     14  C   UNL d   1      45.882 -14.029  37.375  0.00  0.00     0.007 A 
ATOM     15  C   UNL d   1      45.186 -14.363  37.391  0.00  0.00     0.009 A 
ENDBRANCH   7  11
BRANCH   9  16
ATOM     16  C   UNL d   1      42.404 -14.914  36.934  0.00  0.00     0.083 A 
ATOM     17  C   UNL d   1      41.877 -15.354  36.493  0.00  0.00     0.019 A 
ATOM     18  C   UNL d   1      41.199 -14.996  36.332  0.00  0.00     0.002 A 
ATOM     19  C   UNL d   1      40.918 -14.242  36.531  0.00  0.00     0.000 A 
ATOM     20  C   UNL d   1      41.486 -13.820  36.983  0.00  0.00     0.002 A 
ATOM     21  C   UNL d   1      42.219 -14.131  37.191  0.00  0.00     0.019 A 
ENDBRANCH   9  16
ENDBRANCH   2   6
BRANCH   1  22
ATOM     22  S   UNL d   1      44.235 -17.658  37.055  0.00  0.00     0.266 S 
ATOM     23  O   UNL d   1      43.458 -17.521  37.305  0.00  0.00    -0.203 OA
ATOM     24  O   UNL d   1      45.009 -17.794  36.807  0.00  0.00    -0.203 OA
ATOM     25  C   UNL d   1      43.951 -17.944  36.330  0.00  0.00     0.165 C 
ENDBRANCH   1  22
BRANCH   4  26
ATOM     26  C   UNL d   1      45.493 -17.549  39.682  0.00  0.00     0.020 A 
ATOM     27  C   UNL d   1      46.283 -17.353  39.823  0.00  0.00     0.004 A 
ATOM     28  C   UNL d   1      46.646 -17.576  40.522  0.00  0.00     0.024 A 
ATOM     29  C   UNL d   1      46.218 -18.000  41.087  0.00  0.00     0.094 A 
ATOM     30  C   UNL d   1      45.428 -18.196  40.945  0.00  0.00     0.024 A 
ATOM     31  C   UNL d   1      45.090 -17.976  40.269  0.00  0.00     0.004 A 
BRANCH  29  32
ATOM     32  O   UNL d   1      46.606 -18.222  41.799  0.00  0.00    -0.328 OA
ATOM     33  C   UNL d   1      46.197 -18.629  42.380  0.00  0.00     0.181 C 
ENDBRANCH  29  32
ENDBRANCH   4  26
TORSDOF 6
ENDMDL
