MODEL 1
REMARK VINA RESULT:      -2.3      0.000      0.000
REMARK  3 active torsions:
REMARK  status: ('A' for Active; 'I' for Inactive)
REMARK    1  A    between atoms: N_3  and  C_1 
REMARK    2  A    between atoms: O_4  and  C_2 
REMARK    3  A    between atoms: C_7  and  O_4 
ROOT
ATOM      1  C   UNL d   1      59.881  -2.194  29.086  0.00  0.00     0.205 A 
ATOM      2  C   UNL d   1      59.247  -1.688  29.089  0.00  0.00     0.209 A 
ATOM      3  N   UNL d   1      58.499  -1.987  29.001  0.00  0.00    -0.198 NA
ATOM      4  C   UNL d   1      59.770  -3.008  28.994  0.00  0.00     0.211 A 
ATOM      5  N   UNL d   1      59.023  -3.306  28.905  0.00  0.00    -0.202 NA
ATOM      6  C   UNL d   1      58.390  -2.810  28.907  0.00  0.00     0.202 A 
ATOM      7  N   UNL d   1      60.411  -3.531  28.989  0.00  0.00    -0.125 N 
ENDROOT
BRANCH   2   8
ATOM      8  O   UNL d   1      59.333  -0.854  29.182  0.00  0.00    -0.288 OA
BRANCH   8   9
ATOM      9  C   UNL d   1      58.717  -0.420  29.526  0.00  0.00     0.102 A 
ATOM     10  C   UNL d   1      58.436   0.252  29.157  0.00  0.00     0.023 A 
ATOM     11  C   UNL d   1      57.820   0.682  29.505  0.00  0.00     0.002 A 
ATOM     12  C   UNL d   1      58.738   0.519  28.457  0.00  0.00     0.002 C 
ATOM     13  C   UNL d   1      57.489   0.436  30.220  0.00  0.00     0.000 A 
ATOM     14  C   UNL d   1      57.777  -0.244  30.588  0.00  0.00     0.002 A 
ATOM     15  C   UNL d   1      58.403  -0.689  30.245  0.00  0.00     0.025 A 
ATOM     16  C   UNL d   1      57.445  -0.509  31.327  0.00  0.00     0.000 C 
ENDBRANCH   8   9
ENDBRANCH   2   8
BRANCH   1  17
ATOM     17  N   UNL d   1      60.640  -1.893  29.176  0.00  0.00    -0.107 N 
ATOM     18  O   UNL d   1      61.042  -1.637  28.535  0.00  0.00    -0.531 OA
ATOM     19  O   UNL d   1      60.973  -1.861  29.920  0.00  0.00    -0.531 OA
ENDBRANCH   1  17
TORSDOF 3
ENDMDL
MODEL 2
REMARK VINA RESULT:      -2.2      3.179      4.427
REMARK  3 active torsions:
REMARK  status: ('A' for Active; 'I' for Inactive)
REMARK    1  A    between atoms: N_3  and  C_1 
REMARK    2  A    between atoms: O_4  and  C_2 
REMARK    3  A    between atoms: C_7  and  O_4 
ROOT
ATOM      1  C   UNL d   1      56.257  -0.350  32.704  0.00  0.00     0.205 A 
ATOM      2  C   UNL d   1      56.866  -0.284  32.173  0.00  0.00     0.209 A 
ATOM      3  N   UNL d   1      57.086  -0.930  31.736  0.00  0.00    -0.198 NA
ATOM      4  C   UNL d   1      55.860  -1.068  32.802  0.00  0.00     0.211 A 
ATOM      5  N   UNL d   1      56.079  -1.714  32.366  0.00  0.00    -0.202 NA
ATOM      6  C   UNL d   1      56.683  -1.655  31.838  0.00  0.00     0.202 A 
ATOM      7  N   UNL d   1      55.237  -1.144  33.341  0.00  0.00    -0.125 N 
ENDROOT
BRANCH   2   8
ATOM      8  O   UNL d   1      57.287   0.438  32.053  0.00  0.00    -0.288 OA
BRANCH   8   9
ATOM      9  C   UNL d   1      57.809   0.499  31.414  0.00  0.00     0.102 A 
ATOM     10  C   UNL d   1      58.606   0.619  31.547  0.00  0.00     0.023 A 
ATOM     11  C   UNL d   1      59.124   0.680  30.904  0.00  0.00     0.002 A 
ATOM     12  C   UNL d   1      58.915   0.682  32.292  0.00  0.00     0.002 C 
ATOM     13  C   UNL d   1      58.841   0.621  30.131  0.00  0.00     0.000 A 
ATOM     14  C   UNL d   1      58.035   0.500  30.003  0.00  0.00     0.002 A 
ATOM     15  C   UNL d   1      57.499   0.436  30.647  0.00  0.00     0.025 A 
ATOM     16  C   UNL d   1      57.728   0.436  29.209  0.00  0.00     0.000 C 
ENDBRANCH   8   9
ENDBRANCH   2   8
BRANCH   1  17
ATOM     17  N   UNL d   1      56.032   0.305  33.147  0.00  0.00    -0.107 N 
ATOM     18  O   UNL d   1      55.349   0.682  32.977  0.00  0.00    -0.531 OA
ATOM     19  O   UNL d   1      56.512   0.560  33.756  0.00  0.00    -0.531 OA
ENDBRANCH   1  17
TORSDOF 3
ENDMDL
MODEL 3
REMARK VINA RESULT:      -1.9      3.488      4.951
REMARK  3 active torsions:
REMARK  status: ('A' for Active; 'I' for Inactive)
REMARK    1  A    between atoms: N_3  and  C_1 
REMARK    2  A    between atoms: O_4  and  C_2 
REMARK    3  A    between atoms: C_7  and  O_4 
ROOT
ATOM      1  C   UNL d   1      56.872  -0.363  31.952  0.00  0.00     0.205 A 
ATOM      2  C   UNL d   1      56.420  -0.265  32.618  0.00  0.00     0.209 A 
ATOM      3  N   UNL d   1      56.092  -0.913  32.977  0.00  0.00    -0.198 NA
ATOM      4  C   UNL d   1      57.000  -1.117  31.638  0.00  0.00     0.211 A 
ATOM      5  N   UNL d   1      56.673  -1.765  31.996  0.00  0.00    -0.202 NA
ATOM      6  C   UNL d   1      56.223  -1.673  32.657  0.00  0.00     0.202 A 
ATOM      7  N   UNL d   1      57.459  -1.227  30.959  0.00  0.00    -0.125 N 
ENDROOT
BRANCH   2   8
ATOM      8  O   UNL d   1      56.274   0.494  32.958  0.00  0.00    -0.288 OA
BRANCH   8   9
ATOM      9  C   UNL d   1      56.180   0.557  33.779  0.00  0.00     0.102 A 
ATOM     10  C   UNL d   1      55.430   0.605  34.101  0.00  0.00     0.023 A 
ATOM     11  C   UNL d   1      55.342   0.668  34.922  0.00  0.00     0.002 A 
ATOM     12  C   UNL d   1      54.763   0.593  33.645  0.00  0.00     0.002 C 
ATOM     13  C   UNL d   1      56.003   0.682  35.415  0.00  0.00     0.000 A 
ATOM     14  C   UNL d   1      56.757   0.633  35.083  0.00  0.00     0.002 A 
ATOM     15  C   UNL d   1      56.861   0.569  34.252  0.00  0.00     0.025 A 
ATOM     16  C   UNL d   1      57.450   0.647  35.581  0.00  0.00     0.000 C 
ENDBRANCH   8   9
ENDBRANCH   2   8
BRANCH   1  17
ATOM     17  N   UNL d   1      57.205   0.293  31.587  0.00  0.00    -0.107 N 
ATOM     18  O   UNL d   1      57.909   0.573  31.842  0.00  0.00    -0.531 OA
ATOM     19  O   UNL d   1      56.811   0.650  30.967  0.00  0.00    -0.531 OA
ENDBRANCH   1  17
TORSDOF 3
ENDMDL
MODEL 4
REMARK VINA RESULT:      -1.5      2.418      3.467
REMARK  3 active torsions:
REMARK  status: ('A' for Active; 'I' for Inactive)
REMARK    1  A    between atoms: N_3  and  C_1 
REMARK    2  A    between atoms: O_4  and  C_2 
REMARK    3  A    between atoms: C_7  and  O_4 
ROOT
ATOM      1  C   UNL d   1      57.124  -0.321  31.467  0.00  0.00     0.205 A 
ATOM      2  C   UNL d   1      57.607  -0.249  30.819  0.00  0.00     0.209 A 
ATOM      3  N   UNL d   1      57.862  -0.916  30.437  0.00  0.00    -0.198 NA
ATOM      4  C   UNL d   1      56.893  -1.066  31.738  0.00  0.00     0.211 A 
ATOM      5  N   UNL d   1      57.148  -1.733  31.357  0.00  0.00    -0.202 NA
ATOM      6  C   UNL d   1      57.627  -1.668  30.713  0.00  0.00     0.202 A 
ATOM      7  N   UNL d   1      56.401  -1.149  32.399  0.00  0.00    -0.125 N 
ENDROOT
BRANCH   2   8
ATOM      8  O   UNL d   1      57.857   0.500  30.522  0.00  0.00    -0.288 OA
BRANCH   8   9
ATOM      9  C   UNL d   1      58.561   0.547  30.088  0.00  0.00     0.102 A 
ATOM     10  C   UNL d   1      58.535   0.636  29.276  0.00  0.00     0.023 A 
ATOM     11  C   UNL d   1      59.242   0.682  28.847  0.00  0.00     0.002 A 
ATOM     12  C   UNL d   1      57.839   0.680  28.868  0.00  0.00     0.002 C 
ATOM     13  C   UNL d   1      59.971   0.640  29.233  0.00  0.00     0.000 A 
ATOM     14  C   UNL d   1      59.990   0.550  30.053  0.00  0.00     0.002 A 
ATOM     15  C   UNL d   1      59.279   0.502  30.500  0.00  0.00     0.025 A 
ATOM     16  C   UNL d   1      60.735   0.505  30.465  0.00  0.00     0.000 C 
ENDBRANCH   8   9
ENDBRANCH   2   8
BRANCH   1  17
ATOM     17  N   UNL d   1      56.864   0.355  31.856  0.00  0.00    -0.107 N 
ATOM     18  O   UNL d   1      56.163   0.682  31.654  0.00  0.00    -0.531 OA
ATOM     19  O   UNL d   1      57.326   0.682  32.444  0.00  0.00    -0.531 OA
ENDBRANCH   1  17
TORSDOF 3
ENDMDL
MODEL 5
REMARK VINA RESULT:      -1.5      2.800      4.074
REMARK  3 active torsions:
REMARK  status: ('A' for Active; 'I' for Inactive)
REMARK    1  A    between atoms: N_3  and  C_1 
REMARK    2  A    between atoms: O_4  and  C_2 
REMARK    3  A    between atoms: C_7  and  O_4 
ROOT
ATOM      1  C   UNL d   1      57.843   0.202  30.816  0.00  0.00     0.205 A 
ATOM      2  C   UNL d   1      57.432  -0.007  31.483  0.00  0.00     0.209 A 
ATOM      3  N   UNL d   1      57.793   0.045  32.206  0.00  0.00    -0.198 NA
ATOM      4  C   UNL d   1      58.624   0.467  30.869  0.00  0.00     0.211 A 
ATOM      5  N   UNL d   1      58.985   0.519  31.592  0.00  0.00    -0.202 NA
ATOM      6  C   UNL d   1      58.582   0.313  32.257  0.00  0.00     0.202 A 
ATOM      7  N   UNL d   1      59.051   0.682  30.194  0.00  0.00    -0.125 N 
ENDROOT
BRANCH   2   8
ATOM      8  O   UNL d   1      56.634  -0.280  31.456  0.00  0.00    -0.288 OA
BRANCH   8   9
ATOM      9  C   UNL d   1      56.237  -0.439  32.165  0.00  0.00     0.102 A 
ATOM     10  C   UNL d   1      56.158  -1.210  32.425  0.00  0.00     0.023 A 
ATOM     11  C   UNL d   1      55.760  -1.362  33.136  0.00  0.00     0.002 A 
ATOM     12  C   UNL d   1      56.455  -1.838  32.012  0.00  0.00     0.002 C 
ATOM     13  C   UNL d   1      55.445  -0.744  33.581  0.00  0.00     0.000 A 
ATOM     14  C   UNL d   1      55.529   0.032  33.313  0.00  0.00     0.002 A 
ATOM     15  C   UNL d   1      55.930   0.201  32.594  0.00  0.00     0.025 A 
ATOM     16  C   UNL d   1      55.208   0.682  33.764  0.00  0.00     0.000 C 
ENDBRANCH   8   9
ENDBRANCH   2   8
BRANCH   1  17
ATOM     17  N   UNL d   1      57.479   0.149  30.081  0.00  0.00    -0.107 N 
ATOM     18  O   UNL d   1      57.723  -0.402  29.557  0.00  0.00    -0.531 OA
ATOM     19  O   UNL d   1      56.872   0.662  29.897  0.00  0.00    -0.531 OA
ENDBRANCH   1  17
TORSDOF 3
ENDMDL
MODEL 6
REMARK VINA RESULT:      -0.5      1.382      2.014
REMARK  3 active torsions:
REMARK  status: ('A' for Active; 'I' for Inactive)
REMARK    1  A    between atoms: N_3  and  C_1 
REMARK    2  A    between atoms: O_4  and  C_2 
REMARK    3  A    between atoms: C_7  and  O_4 
ROOT
ATOM      1  C   UNL d   1      59.493  -2.940  28.822  0.00  0.00     0.205 A 
ATOM      2  C   UNL d   1      59.699  -2.157  28.779  0.00  0.00     0.209 A 
ATOM      3  N   UNL d   1      60.463  -1.956  28.598  0.00  0.00    -0.198 NA
ATOM      4  C   UNL d   1      60.053  -3.531  28.682  0.00  0.00     0.211 A 
ATOM      5  N   UNL d   1      60.816  -3.330  28.501  0.00  0.00    -0.202 NA
ATOM      6  C   UNL d   1      61.027  -2.555  28.457  0.00  0.00     0.202 A 
ATOM      7  N   UNL d   1      59.851  -4.332  28.723  0.00  0.00    -0.125 N 
ENDROOT
BRANCH   2   8
ATOM      8  O   UNL d   1      59.147  -1.534  28.918  0.00  0.00    -0.288 OA
BRANCH   8   9
ATOM      9  C   UNL d   1      59.424  -0.801  29.184  0.00  0.00     0.102 A 
ATOM     10  C   UNL d   1      59.051  -0.113  28.948  0.00  0.00     0.023 A 
ATOM     11  C   UNL d   1      59.332   0.618  29.218  0.00  0.00     0.002 A 
ATOM     12  C   UNL d   1      58.410  -0.116  28.456  0.00  0.00     0.002 C 
ATOM     13  C   UNL d   1      59.984   0.656  29.722  0.00  0.00     0.000 A 
ATOM     14  C   UNL d   1      60.356  -0.042  29.957  0.00  0.00     0.002 A 
ATOM     15  C   UNL d   1      60.081  -0.790  29.690  0.00  0.00     0.025 A 
ATOM     16  C   UNL d   1      61.032  -0.017  30.477  0.00  0.00     0.000 C 
ENDBRANCH   8   9
ENDBRANCH   2   8
BRANCH   1  17
ATOM     17  N   UNL d   1      58.718  -3.146  29.005  0.00  0.00    -0.107 N 
ATOM     18  O   UNL d   1      58.283  -3.556  28.476  0.00  0.00    -0.531 OA
ATOM     19  O   UNL d   1      58.406  -2.928  29.727  0.00  0.00    -0.531 OA
ENDBRANCH   1  17
TORSDOF 3
ENDMDL
MODEL 7
REMARK VINA RESULT:      -0.5      8.604      9.438
REMARK  3 active torsions:
REMARK  status: ('A' for Active; 'I' for Inactive)
REMARK    1  A    between atoms: N_3  and  C_1 
REMARK    2  A    between atoms: O_4  and  C_2 
REMARK    3  A    between atoms: C_7  and  O_4 
ROOT
ATOM      1  C   UNL d   1      58.966  -9.499  32.915  0.00  0.00     0.205 A 
ATOM      2  C   UNL d   1      59.359  -9.481  33.625  0.00  0.00     0.209 A 
ATOM      3  N   UNL d   1      60.155  -9.629  33.643  0.00  0.00    -0.198 NA
ATOM      4  C   UNL d   1      59.371  -9.668  32.215  0.00  0.00     0.211 A 
ATOM      5  N   UNL d   1      60.166  -9.816  32.233  0.00  0.00    -0.202 NA
ATOM      6  C   UNL d   1      60.561  -9.799  32.933  0.00  0.00     0.202 A 
ATOM      7  N   UNL d   1      58.978  -9.689  31.487  0.00  0.00    -0.125 N 
ENDROOT
BRANCH   2   8
ATOM      8  O   UNL d   1      58.970  -9.311  34.354  0.00  0.00    -0.288 OA
BRANCH   8   9
ATOM      9  C   UNL d   1      59.391  -8.933  34.958  0.00  0.00     0.102 A 
ATOM     10  C   UNL d   1      59.319  -9.191  35.730  0.00  0.00     0.023 A 
ATOM     11  C   UNL d   1      59.743  -8.809  36.330  0.00  0.00     0.002 A 
ATOM     12  C   UNL d   1      58.844  -9.812  35.935  0.00  0.00     0.002 C 
ATOM     13  C   UNL d   1      60.237  -8.172  36.154  0.00  0.00     0.000 A 
ATOM     14  C   UNL d   1      60.305  -7.916  35.373  0.00  0.00     0.002 A 
ATOM     15  C   UNL d   1      59.880  -8.295  34.754  0.00  0.00     0.025 A 
ATOM     16  C   UNL d   1      60.812  -7.258  35.177  0.00  0.00     0.000 C 
ENDBRANCH   8   9
ENDBRANCH   2   8
BRANCH   1  17
ATOM     17  N   UNL d   1      58.159  -9.349  32.895  0.00  0.00    -0.107 N 
ATOM     18  O   UNL d   1      57.672  -9.733  33.398  0.00  0.00    -0.531 OA
ATOM     19  O   UNL d   1      57.865  -8.807  32.359  0.00  0.00    -0.531 OA
ENDBRANCH   1  17
TORSDOF 3
ENDMDL
