MODEL 1
REMARK VINA RESULT:      13.8      0.000      0.000
REMARK  7 active torsions:
REMARK  status: ('A' for Active; 'I' for Inactive)
REMARK    1  A    between atoms: C_7  and  C_1 
REMARK    2  A    between atoms: N_5  and  C_2 
REMARK       I    between atoms: C_8  and  N_5 
REMARK    3  A    between atoms: N_9  and  C_7 
REMARK    4  A    between atoms: C_11  and  C_7 
REMARK    5  A    between atoms: C_15  and  C_8 
REMARK    6  A    between atoms: O_25  and  C_20 
REMARK    7  A    between atoms: C_29  and  O_25 
ROOT
ATOM      1  C   UNL d   1      58.399  -0.775  30.832  0.00  0.00     0.066 C 
ENDROOT
BRANCH   1   2
ATOM      2  C   UNL d   1      57.647  -0.532  31.058  0.00  0.00     0.041 A 
ATOM      3  C   UNL d   1      57.176  -0.752  31.696  0.00  0.00     0.115 A 
ATOM      4  S   UNL d   1      56.471  -0.324  31.643  0.00  0.00    -0.068 SA
ATOM      5  C   UNL d   1      56.521   0.151  30.974  0.00  0.00     0.031 A 
ATOM      6  C   UNL d   1      57.248   0.026  30.609  0.00  0.00     0.009 A 
ATOM      7  C   UNL d   1      55.891   0.680  30.732  0.00  0.00     0.007 C 
ATOM      8  C   UNL d   1      57.551   0.388  29.907  0.00  0.00     0.001 C 
BRANCH   3   9
ATOM      9  N   UNL d   1      57.347  -1.295  32.292  0.00  0.00    -0.201 NA
ATOM     10  C   UNL d   1      56.950  -1.269  33.017  0.00  0.00     0.280 C 
ATOM     11  O   UNL d   1      57.135  -1.829  33.614  0.00  0.00    -0.265 OA
BRANCH  10  12
ATOM     12  C   UNL d   1      56.381  -0.697  33.142  0.00  0.00     0.058 A 
ATOM     13  C   UNL d   1      55.593  -0.882  33.056  0.00  0.00     0.005 A 
ATOM     14  C   UNL d   1      55.025  -0.315  33.180  0.00  0.00     0.000 A 
ATOM     15  C   UNL d   1      55.237   0.439  33.389  0.00  0.00     0.000 A 
ATOM     16  C   UNL d   1      56.032   0.635  33.478  0.00  0.00     0.000 A 
ATOM     17  C   UNL d   1      56.610   0.067  33.355  0.00  0.00     0.005 A 
ENDBRANCH  10  12
ENDBRANCH   3   9
ENDBRANCH   1   2
BRANCH   1  18
ATOM     18  N   UNL d   1      59.069  -0.460  31.205  0.00  0.00    -0.301 N 
ATOM     19  C   UNL d   1      59.740  -0.948  31.366  0.00  0.00     0.100 A 
ATOM     20  C   UNL d   1      60.406  -0.601  31.745  0.00  0.00     0.100 A 
ATOM     21  N   UNL d   1      60.426   0.194  31.965  0.00  0.00    -0.299 N 
ATOM     22  C   UNL d   1      59.755   0.682  31.804  0.00  0.00     0.100 A 
ATOM     23  C   UNL d   1      61.100   0.512  32.340  0.00  0.00     0.100 C 
ATOM     24  C   UNL d   1      59.096   0.351  31.431  0.00  0.00     0.100 A 
ENDBRANCH   1  18
BRANCH   1  25
ATOM     25  C   UNL d   1      58.501  -1.335  30.230  0.00  0.00     0.016 A 
ATOM     26  C   UNL d   1      58.219  -2.095  30.335  0.00  0.00     0.004 A 
ATOM     27  C   UNL d   1      58.309  -2.663  29.756  0.00  0.00     0.025 A 
ATOM     28  C   UNL d   1      58.691  -2.480  29.039  0.00  0.00     0.100 A 
ATOM     29  C   UNL d   1      58.991  -1.693  28.911  0.00  0.00     0.025 A 
ATOM     30  C   UNL d   1      58.891  -1.117  29.521  0.00  0.00     0.004 A 
BRANCH  28  31
ATOM     31  O   UNL d   1      58.782  -3.052  28.455  0.00  0.00    -0.305 OA
BRANCH  31  32
ATOM     32  C   UNL d   1      58.420  -3.798  28.534  0.00  0.00     0.123 C 
ATOM     33  C   UNL d   1      58.879  -4.485  28.573  0.00  0.00     0.029 C 
ENDBRANCH  31  32
ENDBRANCH  28  31
ENDBRANCH   1  25
TORSDOF 7
ENDMDL
MODEL 2
REMARK VINA RESULT:      15.6      1.756      4.515
REMARK  7 active torsions:
REMARK  status: ('A' for Active; 'I' for Inactive)
REMARK    1  A    between atoms: C_7  and  C_1 
REMARK    2  A    between atoms: N_5  and  C_2 
REMARK       I    between atoms: C_8  and  N_5 
REMARK    3  A    between atoms: N_9  and  C_7 
REMARK    4  A    between atoms: C_11  and  C_7 
REMARK    5  A    between atoms: C_15  and  C_8 
REMARK    6  A    between atoms: O_25  and  C_20 
REMARK    7  A    between atoms: C_29  and  O_25 
ROOT
ATOM      1  C   UNL d   1      58.123  -1.694  29.765  0.00  0.00     0.066 C 
ENDROOT
BRANCH   1   2
ATOM      2  C   UNL d   1      58.678  -1.173  29.454  0.00  0.00     0.041 A 
ATOM      3  C   UNL d   1      59.499  -1.215  29.416  0.00  0.00     0.115 A 
ATOM      4  S   UNL d   1      59.766  -0.529  29.040  0.00  0.00    -0.068 SA
ATOM      5  C   UNL d   1      59.104  -0.078  28.853  0.00  0.00     0.031 A 
ATOM      6  C   UNL d   1      58.428  -0.473  29.108  0.00  0.00     0.009 A 
ATOM      7  C   UNL d   1      59.157   0.680  28.455  0.00  0.00     0.007 C 
ATOM      8  C   UNL d   1      57.622  -0.229  29.039  0.00  0.00     0.001 C 
BRANCH   3   9
ATOM      9  N   UNL d   1      59.992  -1.815  29.693  0.00  0.00    -0.201 NA
ATOM     10  C   UNL d   1      60.641  -1.644  30.175  0.00  0.00     0.280 C 
ATOM     11  O   UNL d   1      61.133  -2.266  30.448  0.00  0.00    -0.265 OA
BRANCH  10  12
ATOM     12  C   UNL d   1      60.794  -0.868  30.379  0.00  0.00     0.058 A 
ATOM     13  C   UNL d   1      60.763  -0.641  31.161  0.00  0.00     0.005 A 
ATOM     14  C   UNL d   1      60.915   0.130  31.367  0.00  0.00     0.000 A 
ATOM     15  C   UNL d   1      61.099   0.678  30.798  0.00  0.00     0.000 A 
ATOM     16  C   UNL d   1      61.133   0.456  30.006  0.00  0.00     0.000 A 
ATOM     17  C   UNL d   1      60.981  -0.320  29.792  0.00  0.00     0.005 A 
ENDBRANCH  10  12
ENDBRANCH   3   9
ENDBRANCH   1   2
BRANCH   1  18
ATOM     18  N   UNL d   1      58.035  -2.452  29.441  0.00  0.00    -0.301 N 
ATOM     19  C   UNL d   1      57.468  -2.596  28.831  0.00  0.00     0.100 A 
ATOM     20  C   UNL d   1      57.401  -3.375  28.522  0.00  0.00     0.100 A 
ATOM     21  N   UNL d   1      57.867  -4.001  28.791  0.00  0.00    -0.299 N 
ATOM     22  C   UNL d   1      58.434  -3.857  29.400  0.00  0.00     0.100 A 
ATOM     23  C   UNL d   1      57.779  -4.764  28.466  0.00  0.00     0.100 C 
ATOM     24  C   UNL d   1      58.509  -3.095  29.712  0.00  0.00     0.100 A 
ENDBRANCH   1  18
BRANCH   1  25
ATOM     25  C   UNL d   1      57.644  -1.473  30.403  0.00  0.00     0.016 A 
ATOM     26  C   UNL d   1      57.007  -0.976  30.276  0.00  0.00     0.004 A 
ATOM     27  C   UNL d   1      56.522  -0.746  30.890  0.00  0.00     0.025 A 
ATOM     28  C   UNL d   1      56.665  -1.012  31.666  0.00  0.00     0.100 A 
ATOM     29  C   UNL d   1      57.325  -1.530  31.818  0.00  0.00     0.025 A 
ATOM     30  C   UNL d   1      57.817  -1.759  31.172  0.00  0.00     0.004 A 
BRANCH  28  31
ATOM     31  O   UNL d   1      56.177  -0.780  32.285  0.00  0.00    -0.305 OA
BRANCH  31  32
ATOM     32  C   UNL d   1      56.160   0.013  32.537  0.00  0.00     0.123 C 
ATOM     33  C   UNL d   1      55.863   0.212  33.282  0.00  0.00     0.029 C 
ENDBRANCH  31  32
ENDBRANCH  28  31
ENDBRANCH   1  25
TORSDOF 7
ENDMDL
