MODEL 1
REMARK VINA RESULT:      -3.1      0.000      0.000
REMARK  5 active torsions:
REMARK  status: ('A' for Active; 'I' for Inactive)
REMARK    1  A    between atoms: C_3  and  C_1 
REMARK    2  A    between atoms: C_2  and  C_3 
REMARK       I    between atoms: N_4  and  C_2 
REMARK    3  A    between atoms: C_10  and  C_8 
REMARK    4  A    between atoms: O_16  and  C_10 
REMARK    5  A    between atoms: C_21  and  O_16 
ROOT
ATOM      1  C   UNL d   1      31.079  17.744 -24.186  0.00  0.00     0.304 C 
ATOM      2  N   UNL d   1      31.795  17.854 -23.803  0.00  0.00    -0.269 N 
ATOM      3  C   UNL d   1      32.799  18.728 -23.281  0.00  0.00     0.081 A 
ATOM      4  C   UNL d   1      32.077  18.615 -23.667  0.00  0.00     0.088 A 
ATOM      5  O   UNL d   1      30.642  18.393 -24.433  0.00  0.00    -0.263 OA
ATOM      6  C   UNL d   1      32.230  17.206 -23.556  0.00  0.00     0.083 A 
ATOM      7  C   UNL d   1      33.241  18.079 -23.031  0.00  0.00     0.008 A 
ATOM      8  C   UNL d   1      32.959  17.314 -23.167  0.00  0.00     0.019 A 
ENDROOT
BRANCH   1   9
ATOM      9  C   UNL d   1      30.795  16.976 -24.323  0.00  0.00     0.253 C 
ATOM     10  O   UNL d   1      31.326  16.349 -24.381  0.00  0.00    -0.281 OA
BRANCH   9  11
ATOM     11  C   UNL d   1      29.990  16.847 -24.400  0.00  0.00     0.064 A 
ATOM     12  C   UNL d   1      29.487  17.173 -24.965  0.00  0.00     0.102 A 
ATOM     13  N   UNL d   1      28.725  16.894 -24.838  0.00  0.00    -0.244 NA
ATOM     14  C   UNL d   1      28.751  16.389 -24.189  0.00  0.00     0.082 A 
ATOM     15  C   UNL d   1      29.530  16.359 -23.918  0.00  0.00     0.022 A 
ATOM     16  C   UNL d   1      28.167  15.952 -23.809  0.00  0.00     0.019 A 
ATOM     17  C   UNL d   1      29.722  15.893 -23.270  0.00  0.00     0.002 A 
ATOM     18  C   UNL d   1      29.130  15.453 -22.887  0.00  0.00     0.000 A 
ATOM     19  C   UNL d   1      28.359  15.487 -23.161  0.00  0.00     0.002 A 
ENDBRANCH   9  11
ENDBRANCH   1   9
BRANCH   3  20
ATOM     20  C   UNL d   1      33.085  19.489 -23.142  0.00  0.00     0.302 C 
ATOM     21  O   UNL d   1      33.241  19.990 -23.771  0.00  0.00    -0.259 OA
BRANCH  20  22
ATOM     22  O   UNL d   1      33.210  19.740 -22.375  0.00  0.00    -0.271 OA
BRANCH  22  23
ATOM     23  C   UNL d   1      33.180  20.549 -22.196  0.00  0.00     0.126 C 
ATOM     24  C   UNL d   1      33.134  20.785 -21.400  0.00  0.00     0.029 C 
ENDBRANCH  22  23
ENDBRANCH  20  22
ENDBRANCH   3  20
TORSDOF 5
ENDMDL
MODEL 2
REMARK VINA RESULT:      -3.0      1.800      5.431
REMARK  5 active torsions:
REMARK  status: ('A' for Active; 'I' for Inactive)
REMARK    1  A    between atoms: C_3  and  C_1 
REMARK    2  A    between atoms: C_2  and  C_3 
REMARK       I    between atoms: N_4  and  C_2 
REMARK    3  A    between atoms: C_10  and  C_8 
REMARK    4  A    between atoms: O_16  and  C_10 
REMARK    5  A    between atoms: C_21  and  O_16 
ROOT
ATOM      1  C   UNL d   1      32.858  19.935 -22.419  0.00  0.00     0.304 C 
ATOM      2  N   UNL d   1      32.926  19.581 -23.156  0.00  0.00    -0.269 N 
ATOM      3  C   UNL d   1      32.815  18.425 -23.988  0.00  0.00     0.081 A 
ATOM      4  C   UNL d   1      32.747  18.783 -23.247  0.00  0.00     0.088 A 
ATOM      5  O   UNL d   1      32.612  19.493 -21.772  0.00  0.00    -0.263 OA
ATOM      6  C   UNL d   1      33.171  20.023 -23.799  0.00  0.00     0.083 A 
ATOM      7  C   UNL d   1      33.061  18.865 -24.640  0.00  0.00     0.008 A 
ATOM      8  C   UNL d   1      33.241  19.666 -24.549  0.00  0.00     0.019 A 
ENDROOT
BRANCH   1   9
ATOM      9  C   UNL d   1      33.039  20.741 -22.327  0.00  0.00     0.253 C 
ATOM     10  O   UNL d   1      33.239  21.192 -22.987  0.00  0.00    -0.281 OA
BRANCH   9  11
ATOM     11  C   UNL d   1      33.017  21.081 -21.583  0.00  0.00     0.064 A 
ATOM     12  C   UNL d   1      33.241  20.731 -20.870  0.00  0.00     0.102 A 
ATOM     13  N   UNL d   1      33.128  21.269 -20.261  0.00  0.00    -0.244 NA
ATOM     14  C   UNL d   1      32.832  21.962 -20.593  0.00  0.00     0.082 A 
ATOM     15  C   UNL d   1      32.762  21.847 -21.407  0.00  0.00     0.022 A 
ATOM     16  C   UNL d   1      32.615  22.682 -20.260  0.00  0.00     0.019 A 
ATOM     17  C   UNL d   1      32.478  22.451 -21.885  0.00  0.00     0.002 A 
ATOM     18  C   UNL d   1      32.260  23.177 -21.547  0.00  0.00     0.000 A 
ATOM     19  C   UNL d   1      32.331  23.285 -20.738  0.00  0.00     0.002 A 
ENDBRANCH   9  11
ENDBRANCH   1   9
BRANCH   3  20
ATOM     20  C   UNL d   1      32.636  17.625 -24.084  0.00  0.00     0.302 C 
ATOM     21  O   UNL d   1      33.221  17.060 -23.990  0.00  0.00    -0.259 OA
BRANCH  20  22
ATOM     22  O   UNL d   1      31.874  17.402 -24.272  0.00  0.00    -0.271 OA
BRANCH  22  23
ATOM     23  C   UNL d   1      31.608  16.640 -24.081  0.00  0.00     0.126 C 
ATOM     24  C   UNL d   1      30.807  16.451 -24.195  0.00  0.00     0.029 C 
ENDBRANCH  22  23
ENDBRANCH  20  22
ENDBRANCH   3  20
TORSDOF 5
ENDMDL
MODEL 3
REMARK VINA RESULT:      -2.5      1.953      3.167
REMARK  5 active torsions:
REMARK  status: ('A' for Active; 'I' for Inactive)
REMARK    1  A    between atoms: C_3  and  C_1 
REMARK    2  A    between atoms: C_2  and  C_3 
REMARK       I    between atoms: N_4  and  C_2 
REMARK    3  A    between atoms: C_10  and  C_8 
REMARK    4  A    between atoms: O_16  and  C_10 
REMARK    5  A    between atoms: C_21  and  O_16 
ROOT
ATOM      1  C   UNL d   1      33.006  19.474 -23.135  0.00  0.00     0.304 C 
ATOM      2  N   UNL d   1      33.075  19.882 -22.427  0.00  0.00    -0.269 N 
ATOM      3  C   UNL d   1      33.119  21.118 -21.710  0.00  0.00     0.081 A 
ATOM      4  C   UNL d   1      33.050  20.705 -22.423  0.00  0.00     0.088 A 
ATOM      5  O   UNL d   1      32.913  19.886 -23.839  0.00  0.00    -0.263 OA
ATOM      6  C   UNL d   1      33.167  19.471 -21.726  0.00  0.00     0.083 A 
ATOM      7  C   UNL d   1      33.213  20.708 -21.001  0.00  0.00     0.008 A 
ATOM      8  C   UNL d   1      33.237  19.883 -21.005  0.00  0.00     0.019 A 
ENDROOT
BRANCH   1   9
ATOM      9  C   UNL d   1      33.031  18.644 -23.140  0.00  0.00     0.253 C 
ATOM     10  O   UNL d   1      33.240  18.238 -22.454  0.00  0.00    -0.281 OA
BRANCH   9  11
ATOM     11  C   UNL d   1      32.847  18.235 -23.825  0.00  0.00     0.064 A 
ATOM     12  C   UNL d   1      33.182  18.339 -24.570  0.00  0.00     0.102 A 
ATOM     13  N   UNL d   1      32.834  17.814 -25.096  0.00  0.00    -0.244 NA
ATOM     14  C   UNL d   1      32.277  17.376 -24.677  0.00  0.00     0.082 A 
ATOM     15  C   UNL d   1      32.284  17.634 -23.894  0.00  0.00     0.022 A 
ATOM     16  C   UNL d   1      31.765  16.775 -24.907  0.00  0.00     0.019 A 
ATOM     17  C   UNL d   1      31.779  17.293 -23.343  0.00  0.00     0.002 A 
ATOM     18  C   UNL d   1      31.262  16.686 -23.577  0.00  0.00     0.000 A 
ATOM     19  C   UNL d   1      31.260  16.434 -24.357  0.00  0.00     0.002 A 
ENDBRANCH   9  11
ENDBRANCH   1   9
BRANCH   3  20
ATOM     20  C   UNL d   1      33.096  21.942 -21.701  0.00  0.00     0.302 C 
ATOM     21  O   UNL d   1      33.240  22.350 -21.006  0.00  0.00    -0.259 OA
BRANCH  20  22
ATOM     22  O   UNL d   1      32.927  22.349 -22.389  0.00  0.00    -0.271 OA
BRANCH  22  23
ATOM     23  C   UNL d   1      32.914  23.178 -22.387  0.00  0.00     0.126 C 
ATOM     24  C   UNL d   1      32.674  23.581 -23.072  0.00  0.00     0.029 C 
ENDBRANCH  22  23
ENDBRANCH  20  22
ENDBRANCH   3  20
TORSDOF 5
ENDMDL
