MODEL 1
REMARK VINA RESULT:      24.4      0.000      0.000
REMARK  6 active torsions:
REMARK  status: ('A' for Active; 'I' for Inactive)
REMARK    1  A    between atoms: C_3  and  C_1 
REMARK    2  A    between atoms: C_2  and  C_4 
REMARK    3  A    between atoms: C_9  and  C_3 
REMARK    4  A    between atoms: C_4  and  C_10 
REMARK    5  A    between atoms: C_17  and  C_9 
REMARK    6  A    between atoms: C_10  and  C_17 
ROOT
ATOM      1  C   UNL d   1     -54.967-102.171 -36.715  0.00  0.00     0.006 C 
ATOM      2  C   UNL d   1     -54.731-102.705 -36.101  0.00  0.00     0.000 C 
ENDROOT
BRANCH   1   3
ATOM      3  C   UNL d   1     -54.825-101.367 -36.601  0.00  0.00     0.043 C 
BRANCH   3   4
ATOM      4  C   UNL d   1     -55.263-100.922 -36.071  0.00  0.00     0.202 C 
ATOM      5  O   UNL d   1     -55.892-101.257 -35.628  0.00  0.00    -0.286 OA
BRANCH   4   6
ATOM      6  C   UNL d   1     -55.095-100.122 -35.959  0.00  0.00     0.068 A 
ATOM      7  S   UNL d   1     -55.255 -99.545 -36.531  0.00  0.00    -0.083 SA
ATOM      8  C   UNL d   1     -55.024 -98.811 -36.251  0.00  0.00     0.035 A 
ATOM      9  C   UNL d   1     -54.713 -98.927 -35.488  0.00  0.00     0.008 A 
ATOM     10  C   UNL d   1     -54.761 -99.728 -35.321  0.00  0.00     0.010 A 
ENDBRANCH   4   6
ENDBRANCH   3   4
ENDBRANCH   1   3
BRANCH   1  11
ATOM     11  C   UNL d   1     -55.326-102.439 -37.403  0.00  0.00     0.043 C 
BRANCH  11  12
ATOM     12  C   UNL d   1     -55.177-102.042 -38.142  0.00  0.00     0.202 C 
ATOM     13  O   UNL d   1     -54.728-101.359 -38.156  0.00  0.00    -0.286 OA
BRANCH  12  14
ATOM     14  C   UNL d   1     -55.497-102.359 -38.850  0.00  0.00     0.068 A 
ATOM     15  S   UNL d   1     -55.052-102.607 -39.530  0.00  0.00    -0.083 SA
ATOM     16  C   UNL d   1     -55.584-102.880 -40.092  0.00  0.00     0.035 A 
ATOM     17  C   UNL d   1     -56.352-102.808 -39.780  0.00  0.00     0.008 A 
ATOM     18  C   UNL d   1     -56.297-102.494 -39.034  0.00  0.00     0.010 A 
ENDBRANCH  12  14
ENDBRANCH  11  12
ENDBRANCH   1  11
TORSDOF 6
ENDMDL
