MODEL 1
REMARK VINA RESULT:      -4.6      0.000      0.000
REMARK  4 active torsions:
REMARK  status: ('A' for Active; 'I' for Inactive)
REMARK    1  A    between atoms: N_10  and  C_5 
REMARK    2  A    between atoms: C_12  and  N_6 
REMARK    3  A    between atoms: C_19  and  N_11 
REMARK    4  A    between atoms: C_20  and  C_12 
ROOT
ATOM      1  C   UNL d   1     -48.874  14.667  22.218  0.00  0.00     0.191 A 
ATOM      2  C   UNL d   1     -48.968  14.063  22.783  0.00  0.00     0.173 A 
ATOM      3  N   UNL d   1     -48.091  14.630  21.957  0.00  0.00    -0.042 NA
ATOM      4  N   UNL d   1     -49.532  15.172  22.023  0.00  0.00    -0.240 N 
ATOM      5  C   UNL d   1     -47.690  13.993  22.365  0.00  0.00     0.722 A 
ATOM      6  N   UNL d   1     -48.261  13.676  22.857  0.00  0.00    -0.133 N 
ATOM      7  N   UNL d   1     -50.326  14.472  22.935  0.00  0.00    -0.223 N 
ATOM      8  C   UNL d   1     -50.249  15.089  22.365  0.00  0.00     0.343 A 
ATOM      9  C   UNL d   1     -49.703  13.979  23.133  0.00  0.00     0.288 A 
ATOM     10  O   UNL d   1     -50.894  15.584  22.173  0.00  0.00    -0.245 OA
ATOM     11  O   UNL d   1     -49.813  13.381  23.698  0.00  0.00    -0.265 OA
ATOM     12  C   UNL d   1     -49.431  15.761  21.469  0.00  0.00     0.105 C 
ATOM     13  C   UNL d   1     -51.064  14.342  23.326  0.00  0.00     0.107 C 
ENDROOT
BRANCH   5  14
ATOM     14  N   UNL d   1     -46.892  13.723  22.301  0.00  0.00    -0.136 N 
ATOM     15  C   UNL d   1     -46.643  13.353  21.592  0.00  0.00     0.117 A 
ATOM     16  C   UNL d   1     -45.850  13.084  21.528  0.00  0.00     0.100 A 
ATOM     17  N   UNL d   1     -45.313  13.187  22.169  0.00  0.00    -0.301 N 
ATOM     18  C   UNL d   1     -45.579  13.559  22.873  0.00  0.00     0.100 A 
ATOM     19  C   UNL d   1     -46.366  13.829  22.945  0.00  0.00     0.117 A 
BRANCH  17  20
ATOM     20  C   UNL d   1     -44.547  12.896  22.032  0.00  0.00     0.064 A 
ATOM     21  C   UNL d   1     -44.052  13.270  21.480  0.00  0.00     0.018 A 
ATOM     22  C   UNL d   1     -43.293  12.975  21.350  0.00  0.00     0.002 A 
ATOM     23  C   UNL d   1     -43.025  12.308  21.768  0.00  0.00     0.000 A 
ATOM     24  C   UNL d   1     -43.523  11.933  22.322  0.00  0.00     0.002 A 
ATOM     25  C   UNL d   1     -44.282  12.228  22.453  0.00  0.00     0.018 A 
ENDBRANCH  17  20
ENDBRANCH   5  14
BRANCH   6  26
ATOM     26  C   UNL d   1     -48.339  13.086  23.403  0.00  0.00     0.098 C 
BRANCH  26  27
ATOM     27  C   UNL d   1     -48.307  12.320  23.168  0.00  0.00     0.018 A 
ATOM     28  C   UNL d   1     -47.899  11.799  23.594  0.00  0.00     0.002 A 
ATOM     29  C   UNL d   1     -47.864  11.032  23.365  0.00  0.00     0.000 A 
ATOM     30  C   UNL d   1     -47.508  10.363  23.656  0.00  0.00     0.000 C 
ATOM     31  C   UNL d   1     -48.244  10.788  22.700  0.00  0.00     0.000 A 
ATOM     32  C   UNL d   1     -48.663  11.334  22.267  0.00  0.00     0.000 A 
ATOM     33  C   UNL d   1     -48.694  12.089  22.498  0.00  0.00     0.002 A 
ENDBRANCH  26  27
ENDBRANCH   6  26
TORSDOF 4
ENDMDL
