MODEL 1
REMARK VINA RESULT:      -7.7      0.000      0.000
REMARK  7 active torsions:
REMARK  status: ('A' for Active; 'I' for Inactive)
REMARK    1  A    between atoms: C_2  and  S_1 
REMARK    2  A    between atoms: N_3  and  S_1 
REMARK    3  A    between atoms: C_18  and  N_3 
REMARK    4  A    between atoms: C_6  and  C_21 
REMARK       I    between atoms: N_7  and  C_6 
REMARK    5  A    between atoms: C_12  and  N_7 
REMARK    6  A    between atoms: C_22  and  C_18 
REMARK    7  A    between atoms: C_21  and  C_22 
ROOT
ATOM      1  N   UNL d   1      51.409  34.160  52.844  0.00  0.00    -0.228 N 
ATOM      2  C   UNL d   1      51.423  34.139  52.031  0.00  0.00     0.111 C 
ENDROOT
BRANCH   1   3
ATOM      3  S   UNL d   1      52.089  33.993  53.276  0.00  0.00     0.271 S 
ATOM      4  O   UNL d   1      51.707  33.366  53.606  0.00  0.00    -0.200 OA
ATOM      5  O   UNL d   1      52.486  34.641  52.937  0.00  0.00    -0.200 OA
BRANCH   3   6
ATOM      6  C   UNL d   1      52.759  33.822  53.708  0.00  0.00     0.104 A 
ATOM      7  C   UNL d   1      53.182  33.137  53.558  0.00  0.00     0.013 A 
ATOM      8  C   UNL d   1      53.867  32.954  53.993  0.00  0.00     0.001 A 
ATOM      9  C   UNL d   1      54.121  33.469  54.581  0.00  0.00     0.000 A 
ATOM     10  C   UNL d   1      53.704  34.159  54.740  0.00  0.00     0.001 A 
ATOM     11  C   UNL d   1      54.793  33.295  55.013  0.00  0.00     0.000 C 
ATOM     12  C   UNL d   1      53.022  34.340  54.306  0.00  0.00     0.013 A 
ENDBRANCH   3   6
ENDBRANCH   1   3
BRANCH   1  13
ATOM     13  C   UNL d   1      50.710  34.348  53.243  0.00  0.00     0.092 C 
BRANCH  13  14
ATOM     14  C   UNL d   1      50.076  34.674  52.825  0.00  0.00     0.025 C 
BRANCH  14  15
ATOM     15  C   UNL d   1      49.537  35.163  53.212  0.00  0.00     0.064 C 
BRANCH  15  16
ATOM     16  C   UNL d   1      48.794  35.303  52.881  0.00  0.00     0.279 C 
ATOM     17  N   UNL d   1      48.301  35.888  53.197  0.00  0.00    -0.208 NA
ATOM     18  O   UNL d   1      48.541  34.858  52.233  0.00  0.00    -0.265 OA
BRANCH  17  19
ATOM     19  C   UNL d   1      47.559  36.027  52.867  0.00  0.00     0.088 A 
ATOM     20  C   UNL d   1      47.499  36.345  52.111  0.00  0.00     0.040 A 
ATOM     21  C   UNL d   1      46.759  36.486  51.776  0.00  0.00     0.101 A 
ATOM     22  N   UNL d   1      46.073  36.307  52.204  0.00  0.00    -0.242 NA
ATOM     23  C   UNL d   1      46.134  35.987  52.964  0.00  0.00     0.101 A 
ATOM     24  C   UNL d   1      46.876  35.848  53.294  0.00  0.00     0.040 A 
ENDBRANCH  17  19
ENDBRANCH  15  16
ENDBRANCH  14  15
ENDBRANCH  13  14
ENDBRANCH   1  13
TORSDOF 7
ENDMDL
MODEL 2
REMARK VINA RESULT:      -7.6      1.132      1.604
REMARK  7 active torsions:
REMARK  status: ('A' for Active; 'I' for Inactive)
REMARK    1  A    between atoms: C_2  and  S_1 
REMARK    2  A    between atoms: N_3  and  S_1 
REMARK    3  A    between atoms: C_18  and  N_3 
REMARK    4  A    between atoms: C_6  and  C_21 
REMARK       I    between atoms: N_7  and  C_6 
REMARK    5  A    between atoms: C_12  and  N_7 
REMARK    6  A    between atoms: C_22  and  C_18 
REMARK    7  A    between atoms: C_21  and  C_22 
ROOT
ATOM      1  N   UNL d   1      51.752  33.778  52.847  0.00  0.00    -0.228 N 
ATOM      2  C   UNL d   1      52.084  34.361  52.387  0.00  0.00     0.111 C 
ENDROOT
BRANCH   1   3
ATOM      3  S   UNL d   1      52.168  33.085  53.005  0.00  0.00     0.271 S 
ATOM      4  O   UNL d   1      52.176  32.930  52.215  0.00  0.00    -0.200 OA
ATOM      5  O   UNL d   1      52.160  33.244  53.821  0.00  0.00    -0.200 OA
BRANCH   3   6
ATOM      6  C   UNL d   1      52.579  32.398  53.152  0.00  0.00     0.104 A 
ATOM      7  C   UNL d   1      52.302  31.681  52.867  0.00  0.00     0.013 A 
ATOM      8  C   UNL d   1      52.715  30.975  53.013  0.00  0.00     0.001 A 
ATOM      9  C   UNL d   1      53.411  30.997  53.450  0.00  0.00     0.000 A 
ATOM     10  C   UNL d   1      53.699  31.710  53.740  0.00  0.00     0.001 A 
ATOM     11  C   UNL d   1      53.822  30.306  53.597  0.00  0.00     0.000 C 
ATOM     12  C   UNL d   1      53.286  32.413  53.594  0.00  0.00     0.013 A 
ENDBRANCH   3   6
ENDBRANCH   1   3
BRANCH   1  13
ATOM     13  C   UNL d   1      50.994  33.877  53.162  0.00  0.00     0.092 C 
BRANCH  13  14
ATOM     14  C   UNL d   1      50.475  34.417  52.812  0.00  0.00     0.025 C 
BRANCH  14  15
ATOM     15  C   UNL d   1      49.973  34.868  53.285  0.00  0.00     0.064 C 
BRANCH  15  16
ATOM     16  C   UNL d   1      49.233  35.097  53.002  0.00  0.00     0.279 C 
ATOM     17  N   UNL d   1      48.831  35.732  53.351  0.00  0.00    -0.208 NA
ATOM     18  O   UNL d   1      48.890  34.692  52.369  0.00  0.00    -0.265 OA
BRANCH  17  19
ATOM     19  C   UNL d   1      48.092  35.960  53.068  0.00  0.00     0.088 A 
ATOM     20  C   UNL d   1      47.438  35.941  53.565  0.00  0.00     0.040 A 
ATOM     21  C   UNL d   1      46.696  36.168  53.288  0.00  0.00     0.101 A 
ATOM     22  N   UNL d   1      46.610  36.417  52.502  0.00  0.00    -0.242 NA
ATOM     23  C   UNL d   1      47.267  36.436  52.002  0.00  0.00     0.101 A 
ATOM     24  C   UNL d   1      48.007  36.208  52.285  0.00  0.00     0.040 A 
ENDBRANCH  17  19
ENDBRANCH  15  16
ENDBRANCH  14  15
ENDBRANCH  13  14
ENDBRANCH   1  13
TORSDOF 7
ENDMDL
MODEL 3
REMARK VINA RESULT:      -6.9      1.393      6.024
REMARK  7 active torsions:
REMARK  status: ('A' for Active; 'I' for Inactive)
REMARK    1  A    between atoms: C_2  and  S_1 
REMARK    2  A    between atoms: N_3  and  S_1 
REMARK    3  A    between atoms: C_18  and  N_3 
REMARK    4  A    between atoms: C_6  and  C_21 
REMARK       I    between atoms: N_7  and  C_6 
REMARK    5  A    between atoms: C_12  and  N_7 
REMARK    6  A    between atoms: C_22  and  C_18 
REMARK    7  A    between atoms: C_21  and  C_22 
ROOT
ATOM      1  N   UNL d   1      49.597  34.652  52.122  0.00  0.00    -0.228 N 
ATOM      2  C   UNL d   1      49.860  34.431  51.384  0.00  0.00     0.111 C 
ENDROOT
BRANCH   1   3
ATOM      3  S   UNL d   1      48.890  35.065  52.206  0.00  0.00     0.271 S 
ATOM      4  O   UNL d   1      48.685  34.833  51.463  0.00  0.00    -0.200 OA
ATOM      5  O   UNL d   1      49.101  35.306  52.974  0.00  0.00    -0.200 OA
BRANCH   3   6
ATOM      6  C   UNL d   1      48.188  35.472  52.281  0.00  0.00     0.104 A 
ATOM      7  C   UNL d   1      48.058  35.953  52.932  0.00  0.00     0.013 A 
ATOM      8  C   UNL d   1      47.345  36.372  53.017  0.00  0.00     0.001 A 
ATOM      9  C   UNL d   1      46.764  36.301  52.440  0.00  0.00     0.000 A 
ATOM     10  C   UNL d   1      46.884  35.821  51.785  0.00  0.00     0.001 A 
ATOM     11  C   UNL d   1      46.061  36.709  52.518  0.00  0.00     0.000 C 
ATOM     12  C   UNL d   1      47.594  35.404  51.700  0.00  0.00     0.013 A 
ENDBRANCH   3   6
ENDBRANCH   1   3
BRANCH   1  13
ATOM     13  C   UNL d   1      50.039  34.462  52.795  0.00  0.00     0.092 C 
BRANCH  13  14
ATOM     14  C   UNL d   1      50.804  34.162  52.709  0.00  0.00     0.025 C 
BRANCH  14  15
ATOM     15  C   UNL d   1      51.137  33.708  53.311  0.00  0.00     0.064 C 
BRANCH  15  16
ATOM     16  C   UNL d   1      51.956  33.685  53.408  0.00  0.00     0.279 C 
ATOM     17  N   UNL d   1      52.313  33.043  53.789  0.00  0.00    -0.208 NA
ATOM     18  O   UNL d   1      52.422  34.305  53.123  0.00  0.00    -0.265 OA
BRANCH  17  19
ATOM     19  C   UNL d   1      53.131  33.021  53.885  0.00  0.00     0.088 A 
ATOM     20  C   UNL d   1      53.480  33.394  54.529  0.00  0.00     0.040 A 
ATOM     21  C   UNL d   1      54.297  33.375  54.630  0.00  0.00     0.101 A 
ATOM     22  N   UNL d   1      54.770  32.976  54.079  0.00  0.00    -0.242 NA
ATOM     23  C   UNL d   1      54.419  32.601  53.432  0.00  0.00     0.101 A 
ATOM     24  C   UNL d   1      53.601  32.623  53.336  0.00  0.00     0.040 A 
ENDBRANCH  17  19
ENDBRANCH  15  16
ENDBRANCH  14  15
ENDBRANCH  13  14
ENDBRANCH   1  13
TORSDOF 7
ENDMDL
