MODEL 1
REMARK VINA RESULT:      -0.9      0.000      0.000
REMARK  4 active torsions:
REMARK  status: ('A' for Active; 'I' for Inactive)
REMARK    1  A    between atoms: C_2  and  N_1 
REMARK    2  A    between atoms: C_12  and  C_5 
REMARK    3  A    between atoms: O_20  and  C_12 
REMARK    4  A    between atoms: C_22  and  O_20 
ROOT
ATOM      1  N   UNL d   1      30.919  17.360 -24.452  0.00  0.00    -0.237 N 
ATOM      2  C   UNL d   1      30.864  16.587 -24.753  0.00  0.00     0.263 A 
ATOM      3  C   UNL d   1      30.180  17.580 -24.157  0.00  0.00     0.263 A 
ATOM      4  C   UNL d   1      29.657  16.945 -24.273  0.00  0.00     0.039 A 
ATOM      5  C   UNL d   1      30.086  16.331 -24.643  0.00  0.00     0.039 A 
ATOM      6  C   UNL d   1      28.854  16.842 -24.093  0.00  0.00     0.049 A 
ATOM      7  C   UNL d   1      29.709  15.614 -24.833  0.00  0.00     0.049 A 
ATOM      8  C   UNL d   1      28.476  16.125 -24.283  0.00  0.00    -0.026 A 
ATOM      9  C   UNL d   1      28.901  15.511 -24.652  0.00  0.00    -0.026 A 
ATOM     10  C   UNL d   1      29.504  16.530 -24.401  0.00  0.00     0.018 A 
ATOM     11  O   UNL d   1      29.999  18.275 -23.822  0.00  0.00    -0.267 OA
ATOM     12  O   UNL d   1      31.445  16.170 -25.085  0.00  0.00    -0.267 OA
ENDROOT
BRANCH   1  13
ATOM     13  C   UNL d   1      31.582  17.811 -24.450  0.00  0.00     0.105 A 
ATOM     14  C   UNL d   1      32.181  17.748 -23.928  0.00  0.00     0.086 A 
ATOM     15  C   UNL d   1      32.725  18.293 -24.121  0.00  0.00     0.014 A 
ATOM     16  C   UNL d   1      32.455  18.687 -24.760  0.00  0.00     0.031 A 
ATOM     17  S   UNL d   1      31.752  18.389 -24.962  0.00  0.00    -0.069 SA
ATOM     18  C   UNL d   1      32.891  19.272 -25.078  0.00  0.00     0.007 C 
BRANCH  14  19
ATOM     19  C   UNL d   1      32.225  17.236 -23.328  0.00  0.00     0.302 C 
ATOM     20  O   UNL d   1      31.777  17.338 -22.683  0.00  0.00    -0.259 OA
BRANCH  19  21
ATOM     21  O   UNL d   1      32.722  16.614 -23.369  0.00  0.00    -0.271 OA
BRANCH  21  22
ATOM     22  C   UNL d   1      33.040  16.417 -22.665  0.00  0.00     0.126 C 
ATOM     23  C   UNL d   1      33.134  15.653 -22.476  0.00  0.00     0.029 C 
ENDBRANCH  21  22
ENDBRANCH  19  21
ENDBRANCH  14  19
ENDBRANCH   1  13
TORSDOF 4
ENDMDL
MODEL 2
REMARK VINA RESULT:      -0.4      1.340      3.170
REMARK  4 active torsions:
REMARK  status: ('A' for Active; 'I' for Inactive)
REMARK    1  A    between atoms: C_2  and  N_1 
REMARK    2  A    between atoms: C_12  and  C_5 
REMARK    3  A    between atoms: O_20  and  C_12 
REMARK    4  A    between atoms: C_22  and  O_20 
ROOT
ATOM      1  N   UNL d   1      30.655  17.157 -24.116  0.00  0.00    -0.237 N 
ATOM      2  C   UNL d   1      31.127  16.589 -24.497  0.00  0.00     0.263 A 
ATOM      3  C   UNL d   1      31.101  17.514 -23.521  0.00  0.00     0.263 A 
ATOM      4  C   UNL d   1      31.858  17.170 -23.526  0.00  0.00     0.039 A 
ATOM      5  C   UNL d   1      31.869  16.597 -24.133  0.00  0.00     0.039 A 
ATOM      6  C   UNL d   1      32.534  17.300 -23.063  0.00  0.00     0.049 A 
ATOM      7  C   UNL d   1      32.559  16.154 -24.276  0.00  0.00     0.049 A 
ATOM      8  C   UNL d   1      33.224  16.857 -23.206  0.00  0.00    -0.026 A 
ATOM      9  C   UNL d   1      33.239  16.284 -23.811  0.00  0.00    -0.026 A 
ATOM     10  C   UNL d   1      32.206  16.897 -23.650  0.00  0.00     0.018 A 
ATOM     11  O   UNL d   1      30.853  18.084 -23.030  0.00  0.00    -0.267 OA
ATOM     12  O   UNL d   1      30.912  16.125 -25.096  0.00  0.00    -0.267 OA
ENDROOT
BRANCH   1  13
ATOM     13  C   UNL d   1      29.893  17.326 -24.301  0.00  0.00     0.105 A 
ATOM     14  C   UNL d   1      29.262  16.875 -24.114  0.00  0.00     0.086 A 
ATOM     15  C   UNL d   1      28.616  17.238 -24.398  0.00  0.00     0.014 A 
ATOM     16  C   UNL d   1      28.854  17.909 -24.756  0.00  0.00     0.031 A 
ATOM     17  S   UNL d   1      29.640  17.962 -24.696  0.00  0.00    -0.069 SA
ATOM     18  C   UNL d   1      28.318  18.390 -25.095  0.00  0.00     0.007 C 
BRANCH  14  19
ATOM     19  C   UNL d   1      29.278  16.192 -23.719  0.00  0.00     0.302 C 
ATOM     20  O   UNL d   1      29.340  15.505 -24.111  0.00  0.00    -0.259 OA
BRANCH  19  21
ATOM     21  O   UNL d   1      29.232  16.189 -22.923  0.00  0.00    -0.271 OA
BRANCH  21  22
ATOM     22  C   UNL d   1      28.746  15.625 -22.637  0.00  0.00     0.126 C 
ATOM     23  C   UNL d   1      28.756  15.453 -21.864  0.00  0.00     0.029 C 
ENDBRANCH  21  22
ENDBRANCH  19  21
ENDBRANCH  14  19
ENDBRANCH   1  13
TORSDOF 4
ENDMDL
MODEL 3
REMARK VINA RESULT:      -0.1      0.635      1.326
REMARK  4 active torsions:
REMARK  status: ('A' for Active; 'I' for Inactive)
REMARK    1  A    between atoms: C_2  and  N_1 
REMARK    2  A    between atoms: C_12  and  C_5 
REMARK    3  A    between atoms: O_20  and  C_12 
REMARK    4  A    between atoms: C_22  and  O_20 
ROOT
ATOM      1  N   UNL d   1      31.040  16.968 -24.249  0.00  0.00    -0.237 N 
ATOM      2  C   UNL d   1      30.439  17.252 -23.749  0.00  0.00     0.263 A 
ATOM      3  C   UNL d   1      30.789  16.260 -24.587  0.00  0.00     0.263 A 
ATOM      4  C   UNL d   1      30.027  16.093 -24.301  0.00  0.00     0.039 A 
ATOM      5  C   UNL d   1      29.815  16.712 -23.781  0.00  0.00     0.039 A 
ATOM      6  C   UNL d   1      29.502  15.467 -24.441  0.00  0.00     0.049 A 
ATOM      7  C   UNL d   1      29.074  16.702 -23.402  0.00  0.00     0.049 A 
ATOM      8  C   UNL d   1      28.761  15.457 -24.061  0.00  0.00    -0.026 A 
ATOM      9  C   UNL d   1      28.545  16.072 -23.542  0.00  0.00    -0.026 A 
ATOM     10  C   UNL d   1      29.636  16.142 -24.064  0.00  0.00     0.018 A 
ATOM     11  O   UNL d   1      31.201  15.813 -25.097  0.00  0.00    -0.267 OA
ATOM     12  O   UNL d   1      30.457  17.913 -23.322  0.00  0.00    -0.267 OA
ENDROOT
BRANCH   1  13
ATOM     13  C   UNL d   1      31.745  17.330 -24.378  0.00  0.00     0.105 A 
ATOM     14  C   UNL d   1      32.455  17.054 -24.142  0.00  0.00     0.086 A 
ATOM     15  C   UNL d   1      33.005  17.575 -24.378  0.00  0.00     0.014 A 
ATOM     16  C   UNL d   1      32.629  18.167 -24.757  0.00  0.00     0.031 A 
ATOM     17  S   UNL d   1      31.854  18.015 -24.756  0.00  0.00    -0.069 SA
ATOM     18  C   UNL d   1      33.047  18.774 -25.057  0.00  0.00     0.007 C 
BRANCH  14  19
ATOM     19  C   UNL d   1      32.586  16.384 -23.745  0.00  0.00     0.302 C 
ATOM     20  O   UNL d   1      32.601  15.690 -24.127  0.00  0.00    -0.259 OA
BRANCH  19  21
ATOM     21  O   UNL d   1      32.704  16.402 -22.956  0.00  0.00    -0.271 OA
BRANCH  21  22
ATOM     22  C   UNL d   1      33.239  15.868 -22.705  0.00  0.00     0.126 C 
ATOM     23  C   UNL d   1      33.139  15.510 -22.005  0.00  0.00     0.029 C 
ENDBRANCH  21  22
ENDBRANCH  19  21
ENDBRANCH  14  19
ENDBRANCH   1  13
TORSDOF 4
ENDMDL
