MODEL 1
REMARK VINA RESULT:      -3.7      0.000      0.000
REMARK  4 active torsions:
REMARK  status: ('A' for Active; 'I' for Inactive)
REMARK    1  A    between atoms: C_2  and  S_1 
REMARK    2  A    between atoms: N_3  and  S_1 
REMARK    3  A    between atoms: C_4  and  C_9 
REMARK       I    between atoms: N_5  and  C_4 
REMARK    4  A    between atoms: C_6  and  N_5 
ROOT
ATOM      1  C   UNL d   1      31.739  16.987 -24.049  0.00  0.00     0.104 A 
ATOM      2  C   UNL d   1      31.901  17.732 -23.745  0.00  0.00     0.018 A 
ATOM      3  C   UNL d   1      32.648  18.061 -23.841  0.00  0.00     0.059 A 
ATOM      4  C   UNL d   1      32.331  16.567 -24.453  0.00  0.00     0.012 A 
ATOM      5  C   UNL d   1      33.237  17.645 -24.242  0.00  0.00     0.005 A 
ATOM      6  C   UNL d   1      33.075  16.896 -24.547  0.00  0.00     0.001 A 
ATOM      7  C   UNL d   1      32.171  15.813 -24.762  0.00  0.00     0.001 C 
ENDROOT
BRANCH   1   8
ATOM      8  S   UNL d   1      30.995  16.657 -23.955  0.00  0.00     0.271 S 
ATOM      9  O   UNL d   1      30.743  17.055 -24.630  0.00  0.00    -0.200 OA
ATOM     10  O   UNL d   1      31.254  16.264 -23.285  0.00  0.00    -0.200 OA
BRANCH   8  11
ATOM     11  N   UNL d   1      30.246  16.331 -23.870  0.00  0.00    -0.229 N 
ATOM     12  C   UNL d   1      29.702  16.587 -24.478  0.00  0.00     0.092 A 
ATOM     13  C   UNL d   1      29.014  16.454 -24.626  0.00  0.00     0.020 A 
ATOM     14  C   UNL d   1      28.505  15.958 -24.195  0.00  0.00     0.002 A 
ATOM     15  C   UNL d   1      28.710  15.504 -23.481  0.00  0.00     0.002 A 
ATOM     16  C   UNL d   1      29.489  15.472 -23.066  0.00  0.00     0.020 A 
ATOM     17  C   UNL d   1      30.187  15.882 -23.289  0.00  0.00     0.092 A 
ENDBRANCH   8  11
ENDBRANCH   1   8
BRANCH   3  18
ATOM     18  C   UNL d   1      32.809  18.802 -23.538  0.00  0.00     0.281 C 
ATOM     19  N   UNL d   1      32.815  18.923 -22.728  0.00  0.00    -0.187 NA
ATOM     20  O   UNL d   1      32.921  19.234 -24.056  0.00  0.00    -0.265 OA
BRANCH  19  21
ATOM     21  C   UNL d   1      32.979  19.679 -22.419  0.00  0.00     0.194 A 
ATOM     22  N   UNL d   1      33.092  20.363 -22.865  0.00  0.00    -0.106 NA
ATOM     23  O   UNL d   1      33.241  20.990 -22.331  0.00  0.00    -0.207 OA
ATOM     24  C   UNL d   1      33.218  20.682 -21.566  0.00  0.00     0.153 A 
ATOM     25  C   UNL d   1      33.055  19.871 -21.616  0.00  0.00     0.070 A 
ENDBRANCH  19  21
ENDBRANCH   3  18
TORSDOF 4
ENDMDL
MODEL 2
REMARK VINA RESULT:      -2.8      1.501      2.481
REMARK  4 active torsions:
REMARK  status: ('A' for Active; 'I' for Inactive)
REMARK    1  A    between atoms: C_2  and  S_1 
REMARK    2  A    between atoms: N_3  and  S_1 
REMARK    3  A    between atoms: C_4  and  C_9 
REMARK       I    between atoms: N_5  and  C_4 
REMARK    4  A    between atoms: C_6  and  N_5 
ROOT
ATOM      1  C   UNL d   1      32.744  18.781 -23.616  0.00  0.00     0.104 A 
ATOM      2  C   UNL d   1      32.749  19.156 -22.886  0.00  0.00     0.018 A 
ATOM      3  C   UNL d   1      32.997  19.937 -22.828  0.00  0.00     0.059 A 
ATOM      4  C   UNL d   1      32.988  19.193 -24.295  0.00  0.00     0.012 A 
ATOM      5  C   UNL d   1      33.241  20.348 -23.500  0.00  0.00     0.005 A 
ATOM      6  C   UNL d   1      33.235  19.971 -24.234  0.00  0.00     0.001 A 
ATOM      7  C   UNL d   1      32.984  18.817 -25.035  0.00  0.00     0.001 C 
ENDROOT
BRANCH   1   8
ATOM      8  S   UNL d   1      32.497  18.002 -23.678  0.00  0.00     0.271 S 
ATOM      9  O   UNL d   1      31.834  18.254 -24.096  0.00  0.00    -0.200 OA
ATOM     10  O   UNL d   1      33.159  17.760 -23.261  0.00  0.00    -0.200 OA
BRANCH   8  11
ATOM     11  N   UNL d   1      32.241  17.225 -23.745  0.00  0.00    -0.229 N 
ATOM     12  C   UNL d   1      31.405  17.136 -23.587  0.00  0.00     0.092 A 
ATOM     13  C   UNL d   1      30.950  16.583 -23.579  0.00  0.00     0.020 A 
ATOM     14  C   UNL d   1      31.139  15.789 -23.740  0.00  0.00     0.002 A 
ATOM     15  C   UNL d   1      31.925  15.478 -23.948  0.00  0.00     0.002 A 
ATOM     16  C   UNL d   1      32.679  15.928 -24.033  0.00  0.00     0.020 A 
ATOM     17  C   UNL d   1      32.778  16.755 -23.927  0.00  0.00     0.092 A 
ENDBRANCH   8  11
ENDBRANCH   1   8
BRANCH   3  18
ATOM     18  C   UNL d   1      33.003  20.310 -22.101  0.00  0.00     0.281 C 
ATOM     19  N   UNL d   1      32.762  21.090 -22.036  0.00  0.00    -0.187 NA
ATOM     20  O   UNL d   1      33.227  19.870 -21.627  0.00  0.00    -0.265 OA
BRANCH  19  21
ATOM     21  C   UNL d   1      32.768  21.470 -21.296  0.00  0.00     0.194 A 
ATOM     22  N   UNL d   1      32.448  21.165 -20.600  0.00  0.00    -0.106 NA
ATOM     23  O   UNL d   1      32.576  21.728 -19.995  0.00  0.00    -0.207 OA
ATOM     24  C   UNL d   1      32.973  22.371 -20.327  0.00  0.00     0.153 A 
ATOM     25  C   UNL d   1      33.093  22.215 -21.132  0.00  0.00     0.070 A 
ENDBRANCH  19  21
ENDBRANCH   3  18
TORSDOF 4
ENDMDL
MODEL 3
REMARK VINA RESULT:      -1.1      1.230      4.633
REMARK  4 active torsions:
REMARK  status: ('A' for Active; 'I' for Inactive)
REMARK    1  A    between atoms: C_2  and  S_1 
REMARK    2  A    between atoms: N_3  and  S_1 
REMARK    3  A    between atoms: C_4  and  C_9 
REMARK       I    between atoms: N_5  and  C_4 
REMARK    4  A    between atoms: C_6  and  N_5 
ROOT
ATOM      1  C   UNL d   1      32.382  18.900 -23.686  0.00  0.00     0.104 A 
ATOM      2  C   UNL d   1      31.867  18.262 -23.659  0.00  0.00     0.018 A 
ATOM      3  C   UNL d   1      31.686  17.851 -24.348  0.00  0.00     0.059 A 
ATOM      4  C   UNL d   1      32.719  19.129 -24.409  0.00  0.00     0.012 A 
ATOM      5  C   UNL d   1      32.020  18.078 -25.067  0.00  0.00     0.005 A 
ATOM      6  C   UNL d   1      32.538  18.719 -25.094  0.00  0.00     0.001 A 
ATOM      7  C   UNL d   1      33.241  19.774 -24.440  0.00  0.00     0.001 C 
ENDROOT
BRANCH   1   8
ATOM      8  S   UNL d   1      32.564  19.311 -23.001  0.00  0.00     0.271 S 
ATOM      9  O   UNL d   1      32.171  19.969 -23.301  0.00  0.00    -0.200 OA
ATOM     10  O   UNL d   1      32.954  18.652 -22.709  0.00  0.00    -0.200 OA
BRANCH   8  11
ATOM     11  N   UNL d   1      32.741  19.732 -22.318  0.00  0.00    -0.229 N 
ATOM     12  C   UNL d   1      32.571  20.567 -22.390  0.00  0.00     0.092 A 
ATOM     13  C   UNL d   1      32.633  21.132 -21.954  0.00  0.00     0.020 A 
ATOM     14  C   UNL d   1      32.921  21.122 -21.174  0.00  0.00     0.002 A 
ATOM     15  C   UNL d   1      33.201  20.424 -20.736  0.00  0.00     0.002 A 
ATOM     16  C   UNL d   1      33.241  19.589 -21.019  0.00  0.00     0.020 A 
ATOM     17  C   UNL d   1      33.012  19.311 -21.777  0.00  0.00     0.092 A 
ENDBRANCH   8  11
ENDBRANCH   1   8
BRANCH   3  18
ATOM     18  C   UNL d   1      31.173  17.216 -24.321  0.00  0.00     0.281 C 
ATOM     19  N   UNL d   1      30.380  17.320 -24.499  0.00  0.00    -0.187 NA
ATOM     20  O   UNL d   1      31.521  16.656 -24.139  0.00  0.00    -0.265 OA
BRANCH  19  21
ATOM     21  C   UNL d   1      29.857  16.673 -24.471  0.00  0.00     0.194 A 
ATOM     22  N   UNL d   1      29.857  16.036 -24.996  0.00  0.00    -0.106 NA
ATOM     23  O   UNL d   1      29.242  15.519 -24.764  0.00  0.00    -0.207 OA
ATOM     24  C   UNL d   1      28.873  15.844 -24.101  0.00  0.00     0.153 A 
ATOM     25  C   UNL d   1      29.251  16.558 -23.917  0.00  0.00     0.070 A 
ENDBRANCH  19  21
ENDBRANCH   3  18
TORSDOF 4
ENDMDL
MODEL 4
REMARK VINA RESULT:      -1.0      1.474      4.858
REMARK  4 active torsions:
REMARK  status: ('A' for Active; 'I' for Inactive)
REMARK    1  A    between atoms: C_2  and  S_1 
REMARK    2  A    between atoms: N_3  and  S_1 
REMARK    3  A    between atoms: C_4  and  C_9 
REMARK       I    between atoms: N_5  and  C_4 
REMARK    4  A    between atoms: C_6  and  N_5 
ROOT
ATOM      1  C   UNL d   1      32.637  19.506 -23.159  0.00  0.00     0.104 A 
ATOM      2  C   UNL d   1      32.308  18.758 -23.078  0.00  0.00     0.018 A 
ATOM      3  C   UNL d   1      32.247  18.264 -23.732  0.00  0.00     0.059 A 
ATOM      4  C   UNL d   1      32.907  19.761 -23.901  0.00  0.00     0.012 A 
ATOM      5  C   UNL d   1      32.516  18.516 -24.470  0.00  0.00     0.005 A 
ATOM      6  C   UNL d   1      32.846  19.267 -24.551  0.00  0.00     0.001 A 
ATOM      7  C   UNL d   1      33.241  20.516 -23.987  0.00  0.00     0.001 C 
ENDROOT
BRANCH   1   8
ATOM      8  S   UNL d   1      32.699  20.001 -22.509  0.00  0.00     0.271 S 
ATOM      9  O   UNL d   1      32.154  20.511 -22.856  0.00  0.00    -0.200 OA
ATOM     10  O   UNL d   1      33.241  19.488 -22.170  0.00  0.00    -0.200 OA
BRANCH   8  11
ATOM     11  N   UNL d   1      32.754  20.504 -21.862  0.00  0.00    -0.229 N 
ATOM     12  C   UNL d   1      33.084  20.122 -21.172  0.00  0.00     0.092 A 
ATOM     13  C   UNL d   1      33.233  20.332 -20.503  0.00  0.00     0.020 A 
ATOM     14  C   UNL d   1      33.108  21.091 -20.187  0.00  0.00     0.002 A 
ATOM     15  C   UNL d   1      32.772  21.776 -20.607  0.00  0.00     0.002 A 
ATOM     16  C   UNL d   1      32.497  21.814 -21.445  0.00  0.00     0.020 A 
ATOM     17  C   UNL d   1      32.508  21.185 -22.000  0.00  0.00     0.092 A 
ENDBRANCH   8  11
ENDBRANCH   1   8
BRANCH   3  18
ATOM     18  C   UNL d   1      31.920  17.520 -23.651  0.00  0.00     0.281 C 
ATOM     19  N   UNL d   1      31.136  17.391 -23.852  0.00  0.00    -0.187 NA
ATOM     20  O   UNL d   1      32.396  17.093 -23.408  0.00  0.00    -0.265 OA
BRANCH  19  21
ATOM     21  C   UNL d   1      30.802  16.633 -23.769  0.00  0.00     0.194 A 
ATOM     22  N   UNL d   1      30.823  16.173 -23.085  0.00  0.00    -0.106 NA
ATOM     23  O   UNL d   1      30.422  15.458 -23.250  0.00  0.00    -0.207 OA
ATOM     24  C   UNL d   1      30.161  15.488 -24.032  0.00  0.00     0.153 A 
ATOM     25  C   UNL d   1      30.394  16.213 -24.357  0.00  0.00     0.070 A 
ENDBRANCH  19  21
ENDBRANCH   3  18
TORSDOF 4
ENDMDL
MODEL 5
REMARK VINA RESULT:      -0.9      2.243      5.698
REMARK  4 active torsions:
REMARK  status: ('A' for Active; 'I' for Inactive)
REMARK    1  A    between atoms: C_2  and  S_1 
REMARK    2  A    between atoms: N_3  and  S_1 
REMARK    3  A    between atoms: C_4  and  C_9 
REMARK       I    between atoms: N_5  and  C_4 
REMARK    4  A    between atoms: C_6  and  N_5 
ROOT
ATOM      1  C   UNL d   1      32.904  21.289 -22.269  0.00  0.00     0.104 A 
ATOM      2  C   UNL d   1      32.813  20.475 -22.215  0.00  0.00     0.018 A 
ATOM      3  C   UNL d   1      32.936  20.004 -22.877  0.00  0.00     0.059 A 
ATOM      4  C   UNL d   1      33.119  21.634 -22.993  0.00  0.00     0.012 A 
ATOM      5  C   UNL d   1      33.150  20.345 -23.597  0.00  0.00     0.005 A 
ATOM      6  C   UNL d   1      33.241  21.163 -23.651  0.00  0.00     0.001 A 
ATOM      7  C   UNL d   1      33.211  22.457 -23.051  0.00  0.00     0.001 C 
ENDROOT
BRANCH   1   8
ATOM      8  S   UNL d   1      32.782  21.761 -21.611  0.00  0.00     0.271 S 
ATOM      9  O   UNL d   1      32.476  22.348 -22.099  0.00  0.00    -0.200 OA
ATOM     10  O   UNL d   1      33.088  21.171 -21.131  0.00  0.00    -0.200 OA
BRANCH   8  11
ATOM     11  N   UNL d   1      32.656  22.242 -20.957  0.00  0.00    -0.229 N 
ATOM     12  C   UNL d   1      33.156  22.039 -20.294  0.00  0.00     0.092 A 
ATOM     13  C   UNL d   1      33.240  22.294 -19.630  0.00  0.00     0.020 A 
ATOM     14  C   UNL d   1      32.824  22.930 -19.292  0.00  0.00     0.002 A 
ATOM     15  C   UNL d   1      32.206  23.406 -19.678  0.00  0.00     0.002 A 
ATOM     16  C   UNL d   1      31.893  23.321 -20.499  0.00  0.00     0.020 A 
ATOM     17  C   UNL d   1      32.138  22.754 -21.067  0.00  0.00     0.092 A 
ENDBRANCH   8  11
ENDBRANCH   1   8
BRANCH   3  18
ATOM     18  C   UNL d   1      32.846  19.193 -22.824  0.00  0.00     0.281 C 
ATOM     19  N   UNL d   1      32.599  18.763 -23.475  0.00  0.00    -0.187 NA
ATOM     20  O   UNL d   1      33.004  18.994 -22.189  0.00  0.00    -0.265 OA
BRANCH  19  21
ATOM     21  C   UNL d   1      32.507  17.937 -23.421  0.00  0.00     0.194 A 
ATOM     22  N   UNL d   1      33.094  17.405 -23.190  0.00  0.00    -0.106 NA
ATOM     23  O   UNL d   1      32.762  16.638 -23.215  0.00  0.00    -0.207 OA
ATOM     24  C   UNL d   1      31.977  16.709 -23.460  0.00  0.00     0.153 A 
ATOM     25  C   UNL d   1      31.816  17.511 -23.589  0.00  0.00     0.070 A 
ENDBRANCH  19  21
ENDBRANCH   3  18
TORSDOF 4
ENDMDL
