MODEL 1
REMARK VINA RESULT:      52.6      0.000      0.000
REMARK  4 active torsions:
REMARK  status: ('A' for Active; 'I' for Inactive)
REMARK    1  A    between atoms: N_6  and  C_1 
REMARK       I    between atoms: C_9  and  N_6 
REMARK    2  A    between atoms: C_12  and  C_9 
REMARK    3  A    between atoms: O_11  and  C_12 
REMARK    4  A    between atoms: C_15  and  O_11 
ROOT
ATOM      1  C   UNL d   1     -50.410  26.269  33.310  0.00  0.00     0.124 A 
ATOM      2  C   UNL d   1     -51.064  25.757  33.308  0.00  0.00     0.093 A 
ATOM      3  S   UNL d   1     -50.697  27.046  33.310  0.00  0.00    -0.067 SA
ATOM      4  C   UNL d   1     -51.747  26.225  33.308  0.00  0.00     0.018 A 
ATOM      5  C   UNL d   1     -51.517  27.005  33.310  0.00  0.00     0.032 A 
ATOM      6  C   UNL d   1     -51.027  24.926  33.307  0.00  0.00     0.103 C 
ATOM      7  N   UNL d   1     -50.998  24.114  33.306  0.00  0.00    -0.191 NA
ATOM      8  C   UNL d   1     -52.523  25.937  33.307  0.00  0.00     0.001 C 
ATOM      9  C   UNL d   1     -52.029  27.660  33.310  0.00  0.00     0.007 C 
ENDROOT
BRANCH   1  10
ATOM     10  N   UNL d   1     -49.623  26.046  33.310  0.00  0.00    -0.199 NA
ATOM     11  C   UNL d   1     -49.078  26.483  33.740  0.00  0.00     0.305 C 
ATOM     12  O   UNL d   1     -48.282  26.257  33.740  0.00  0.00    -0.263 OA
BRANCH  11  13
ATOM     13  C   UNL d   1     -49.305  27.134  34.164  0.00  0.00     0.185 C 
BRANCH  13  14
ATOM     14  O   UNL d   1     -48.980  27.302  34.890  0.00  0.00    -0.300 OA
BRANCH  14  15
ATOM     15  C   UNL d   1     -48.656  28.045  35.052  0.00  0.00     0.100 A 
ATOM     16  C   UNL d   1     -48.627  28.607  34.446  0.00  0.00     0.025 A 
ATOM     17  C   UNL d   1     -48.307  29.339  34.608  0.00  0.00     0.002 A 
ATOM     18  C   UNL d   1     -48.019  29.512  35.362  0.00  0.00     0.000 A 
ATOM     19  C   UNL d   1     -48.052  28.951  35.956  0.00  0.00     0.002 A 
ATOM     20  C   UNL d   1     -48.374  28.213  35.794  0.00  0.00     0.025 A 
ENDBRANCH  14  15
ENDBRANCH  13  14
ENDBRANCH  11  13
ENDBRANCH   1  10
TORSDOF 4
ENDMDL
