MODEL 1
REMARK VINA RESULT:      56.6      0.000      0.000
REMARK  5 active torsions:
REMARK  status: ('A' for Active; 'I' for Inactive)
REMARK    1  A    between atoms: C_3  and  S_1 
REMARK    2  A    between atoms: C_7  and  S_1 
REMARK    3  A    between atoms: C_2  and  C_3 
REMARK    4  A    between atoms: C_9  and  C_3 
REMARK    5  A    between atoms: N_8  and  C_4 
ROOT
ATOM      1  C   UNL d   1      45.936 -18.259  42.783  0.00  0.00     0.128 A 
ATOM      2  C   UNL d   1      45.997 -19.074  42.793  0.00  0.00     0.166 A 
ATOM      3  N   UNL d   1      45.982 -17.842  42.068  0.00  0.00    -0.240 NA
ATOM      4  N   UNL d   1      46.108 -19.489  42.081  0.00  0.00    -0.225 NA
ATOM      5  C   UNL d   1      46.092 -18.258  41.367  0.00  0.00     0.099 A 
ATOM      6  C   UNL d   1      46.154 -19.073  41.374  0.00  0.00     0.101 A 
ATOM      7  C   UNL d   1      46.264 -19.481  40.660  0.00  0.00     0.021 A 
ATOM      8  C   UNL d   1      46.138 -17.841  40.660  0.00  0.00     0.021 A 
ATOM      9  C   UNL d   1      46.310 -19.072  39.953  0.00  0.00     0.002 A 
ATOM     10  C   UNL d   1      46.247 -18.253  39.956  0.00  0.00     0.002 A 
ENDROOT
BRANCH   1  11
ATOM     11  C   UNL d   1      45.826 -17.843  43.483  0.00  0.00     0.129 C 
BRANCH  11  12
ATOM     12  S   UNL d   1      45.976 -16.958  43.481  0.00  0.00     0.213 S 
ATOM     13  O   UNL d   1      46.642 -16.660  42.981  0.00  0.00    -0.217 OA
ATOM     14  O   UNL d   1      46.547 -17.291  42.973  0.00  0.00    -0.217 OA
BRANCH  12  15
ATOM     15  C   UNL d   1      45.604 -16.327  43.868  0.00  0.00     0.088 A 
ATOM     16  C   UNL d   1      45.946 -16.016  44.561  0.00  0.00     0.011 A 
ATOM     17  C   UNL d   1      45.580 -15.383  44.955  0.00  0.00     0.001 A 
ATOM     18  C   UNL d   1      46.645 -16.332  44.855  0.00  0.00     0.001 C 
ATOM     19  C   UNL d   1      44.873 -15.067  44.653  0.00  0.00     0.000 A 
ATOM     20  C   UNL d   1      44.537 -15.383  43.961  0.00  0.00     0.001 A 
ATOM     21  C   UNL d   1      44.906 -16.011  43.574  0.00  0.00     0.011 A 
ATOM     22  C   UNL d   1      43.838 -15.067  43.667  0.00  0.00     0.000 C 
ENDBRANCH  12  15
ENDBRANCH  11  12
BRANCH  11  23
ATOM     23  C   UNL d   1      45.580 -18.126  44.261  0.00  0.00     0.135 C 
ATOM     24  N   UNL d   1      45.116 -17.683  44.885  0.00  0.00    -0.146 N 
ENDBRANCH  11  23
ENDBRANCH   1  11
BRANCH   2  25
ATOM     25  N   UNL d   1      45.950 -19.490  43.513  0.00  0.00    -0.284 N 
ATOM     26  C   UNL d   1      46.643 -19.651  43.948  0.00  0.00     0.108 A 
ATOM     27  C   UNL d   1      46.589 -20.066  44.663  0.00  0.00     0.142 A 
ATOM     28  O   UNL d   1      45.856 -20.322  44.952  0.00  0.00    -0.300 OA
ATOM     29  C   UNL d   1      45.163 -20.161  44.516  0.00  0.00     0.142 A 
ATOM     30  C   UNL d   1      45.203 -19.743  43.792  0.00  0.00     0.108 A 
ENDBRANCH   2  25
TORSDOF 5
ENDMDL
