MODEL 1
REMARK VINA RESULT:      -0.7      0.000      0.000
REMARK  4 active torsions:
REMARK  status: ('A' for Active; 'I' for Inactive)
REMARK    1  A    between atoms: N_5  and  C_1 
REMARK    2  A    between atoms: N_8  and  C_3 
REMARK    3  A    between atoms: C_13  and  N_8 
REMARK    4  A    between atoms: C_12  and  C_13 
ROOT
ATOM      1  C   UNL d   1      58.874  -1.304  29.345  0.00  0.00     0.200 A 
ATOM      2  C   UNL d   1      59.601  -1.533  29.032  0.00  0.00     0.288 A 
ATOM      3  C   UNL d   1      58.829  -0.690  29.906  0.00  0.00     0.109 A 
ATOM      4  N   UNL d   1      60.293  -1.147  29.279  0.00  0.00    -0.270 N 
ATOM      5  C   UNL d   1      59.527  -0.308  30.148  0.00  0.00     0.036 A 
ATOM      6  C   UNL d   1      60.256  -0.538  29.834  0.00  0.00     0.069 A 
ATOM      7  O   UNL d   1      59.638  -2.142  28.477  0.00  0.00    -0.265 OA
ATOM      8  C   UNL d   1      61.020  -1.376  28.966  0.00  0.00     0.102 C 
ATOM      9  C   UNL d   1      59.490   0.301  30.703  0.00  0.00     0.003 A 
ATOM     10  C   UNL d   1      60.946  -0.157  30.077  0.00  0.00     0.018 A 
ATOM     11  C   UNL d   1      60.182   0.681  30.945  0.00  0.00     0.000 A 
ATOM     12  C   UNL d   1      60.909   0.452  30.632  0.00  0.00     0.002 A 
ENDROOT
BRANCH   3  13
ATOM     13  N   UNL d   1      58.104  -0.460  30.220  0.00  0.00    -0.242 NA
BRANCH  13  14
ATOM     14  C   UNL d   1      57.820  -0.814  30.909  0.00  0.00     0.100 C 
BRANCH  14  15
ATOM     15  C   UNL d   1      57.217  -0.453  31.339  0.00  0.00     0.030 A 
ATOM     16  C   UNL d   1      56.846  -0.871  31.946  0.00  0.00     0.059 A 
ATOM     17 CL   UNL d   1      57.073  -1.642  32.124  0.00  0.00    -0.082 Cl
ATOM     18  C   UNL d   1      56.243  -0.512  32.376  0.00  0.00     0.011 A 
ATOM     19  C   UNL d   1      56.011   0.267  32.199  0.00  0.00     0.001 A 
ATOM     20  C   UNL d   1      56.387   0.678  31.591  0.00  0.00     0.000 A 
ATOM     21  C   UNL d   1      56.990   0.317  31.161  0.00  0.00     0.002 A 
ENDBRANCH  14  15
ENDBRANCH  13  14
ENDBRANCH   3  13
BRANCH   1  22
ATOM     22  N   UNL d   1      58.178  -1.685  29.103  0.00  0.00    -0.107 N 
ATOM     23  O   UNL d   1      57.757  -1.397  28.456  0.00  0.00    -0.531 OA
ATOM     24  O   UNL d   1      57.906  -2.352  29.509  0.00  0.00    -0.531 OA
ENDBRANCH   1  22
TORSDOF 4
ENDMDL
MODEL 2
REMARK VINA RESULT:      -0.6      1.339      2.175
REMARK  4 active torsions:
REMARK  status: ('A' for Active; 'I' for Inactive)
REMARK    1  A    between atoms: N_5  and  C_1 
REMARK    2  A    between atoms: N_8  and  C_3 
REMARK    3  A    between atoms: C_13  and  N_8 
REMARK    4  A    between atoms: C_12  and  C_13 
ROOT
ATOM      1  C   UNL d   1      59.751  -0.693  29.521  0.00  0.00     0.200 A 
ATOM      2  C   UNL d   1      60.414  -1.045  29.181  0.00  0.00     0.288 A 
ATOM      3  C   UNL d   1      59.021  -1.095  29.542  0.00  0.00     0.109 A 
ATOM      4  N   UNL d   1      60.352  -1.807  28.857  0.00  0.00    -0.270 N 
ATOM      5  C   UNL d   1      58.968  -1.857  29.216  0.00  0.00     0.036 A 
ATOM      6  C   UNL d   1      59.633  -2.211  28.875  0.00  0.00     0.069 A 
ATOM      7  O   UNL d   1      61.133  -0.641  29.164  0.00  0.00    -0.265 OA
ATOM      8  C   UNL d   1      61.014  -2.159  28.518  0.00  0.00     0.102 C 
ATOM      9  C   UNL d   1      58.249  -2.261  29.233  0.00  0.00     0.003 A 
ATOM     10  C   UNL d   1      59.576  -2.967  28.552  0.00  0.00     0.018 A 
ATOM     11  C   UNL d   1      58.194  -3.019  28.909  0.00  0.00     0.000 A 
ATOM     12  C   UNL d   1      58.857  -3.371  28.569  0.00  0.00     0.002 A 
ENDROOT
BRANCH   3  13
ATOM     13  N   UNL d   1      58.359  -0.744  29.881  0.00  0.00    -0.242 NA
BRANCH  13  14
ATOM     14  C   UNL d   1      58.069  -1.017  30.603  0.00  0.00     0.100 C 
BRANCH  14  15
ATOM     15  C   UNL d   1      57.515  -0.573  31.020  0.00  0.00     0.030 A 
ATOM     16  C   UNL d   1      57.022  -0.948  31.565  0.00  0.00     0.059 A 
ATOM     17 CL   UNL d   1      57.078  -1.759  31.694  0.00  0.00    -0.082 Cl
ATOM     18  C   UNL d   1      56.468  -0.504  31.982  0.00  0.00     0.011 A 
ATOM     19  C   UNL d   1      56.408   0.314  31.855  0.00  0.00     0.001 A 
ATOM     20  C   UNL d   1      56.905   0.682  31.309  0.00  0.00     0.000 A 
ATOM     21  C   UNL d   1      57.459   0.237  30.892  0.00  0.00     0.002 A 
ENDBRANCH  14  15
ENDBRANCH  13  14
ENDBRANCH   3  13
BRANCH   1  22
ATOM     22  N   UNL d   1      59.805   0.069  29.846  0.00  0.00    -0.107 N 
ATOM     23  O   UNL d   1      59.353   0.682  29.532  0.00  0.00    -0.531 OA
ATOM     24  O   UNL d   1      60.311   0.214  30.485  0.00  0.00    -0.531 OA
ENDBRANCH   1  22
TORSDOF 4
ENDMDL
MODEL 3
REMARK VINA RESULT:      -0.0      2.034      2.589
REMARK  4 active torsions:
REMARK  status: ('A' for Active; 'I' for Inactive)
REMARK    1  A    between atoms: N_5  and  C_1 
REMARK    2  A    between atoms: N_8  and  C_3 
REMARK    3  A    between atoms: C_13  and  N_8 
REMARK    4  A    between atoms: C_12  and  C_13 
ROOT
ATOM      1  C   UNL d   1      59.203   0.676  31.409  0.00  0.00     0.200 A 
ATOM      2  C   UNL d   1      59.865   0.679  30.918  0.00  0.00     0.288 A 
ATOM      3  C   UNL d   1      58.435   0.674  31.086  0.00  0.00     0.109 A 
ATOM      4  N   UNL d   1      59.762   0.679  30.094  0.00  0.00    -0.270 N 
ATOM      5  C   UNL d   1      58.342   0.674  30.261  0.00  0.00     0.036 A 
ATOM      6  C   UNL d   1      59.005   0.677  29.767  0.00  0.00     0.069 A 
ATOM      7  O   UNL d   1      60.621   0.681  31.245  0.00  0.00    -0.265 OA
ATOM      8  C   UNL d   1      60.423   0.682  29.603  0.00  0.00     0.102 C 
ATOM      9  C   UNL d   1      57.585   0.671  29.934  0.00  0.00     0.003 A 
ATOM     10  C   UNL d   1      58.909   0.677  28.949  0.00  0.00     0.018 A 
ATOM     11  C   UNL d   1      57.490   0.672  29.113  0.00  0.00     0.000 A 
ATOM     12  C   UNL d   1      58.151   0.675  28.622  0.00  0.00     0.002 A 
ENDROOT
BRANCH   3  13
ATOM     13  N   UNL d   1      57.774   0.671  31.576  0.00  0.00    -0.242 NA
BRANCH  13  14
ATOM     14  C   UNL d   1      57.251   0.033  31.562  0.00  0.00     0.100 C 
BRANCH  14  15
ATOM     15  C   UNL d   1      56.651  -0.021  32.124  0.00  0.00     0.030 A 
ATOM     16  C   UNL d   1      56.327  -0.758  32.303  0.00  0.00     0.059 A 
ATOM     17 CL   UNL d   1      56.599  -1.439  31.926  0.00  0.00    -0.082 Cl
ATOM     18  C   UNL d   1      55.727  -0.813  32.864  0.00  0.00     0.011 A 
ATOM     19  C   UNL d   1      55.451  -0.129  33.246  0.00  0.00     0.001 A 
ATOM     20  C   UNL d   1      55.780   0.605  33.062  0.00  0.00     0.000 A 
ATOM     21  C   UNL d   1      56.380   0.659  32.500  0.00  0.00     0.002 A 
ENDBRANCH  14  15
ENDBRANCH  13  14
ENDBRANCH   3  13
BRANCH   1  22
ATOM     22  N   UNL d   1      59.297   0.676  32.234  0.00  0.00    -0.107 N 
ATOM     23  O   UNL d   1      60.053   0.673  32.561  0.00  0.00    -0.531 OA
ATOM     24  O   UNL d   1      58.634   0.678  32.729  0.00  0.00    -0.531 OA
ENDBRANCH   1  22
TORSDOF 4
ENDMDL
MODEL 4
REMARK VINA RESULT:       2.2      1.946      3.701
REMARK  4 active torsions:
REMARK  status: ('A' for Active; 'I' for Inactive)
REMARK    1  A    between atoms: N_5  and  C_1 
REMARK    2  A    between atoms: N_8  and  C_3 
REMARK    3  A    between atoms: C_13  and  N_8 
REMARK    4  A    between atoms: C_12  and  C_13 
ROOT
ATOM      1  C   UNL d   1      58.183  -1.404  30.083  0.00  0.00     0.200 A 
ATOM      2  C   UNL d   1      57.996  -0.694  30.456  0.00  0.00     0.288 A 
ATOM      3  C   UNL d   1      58.848  -1.459  29.584  0.00  0.00     0.109 A 
ATOM      4  N   UNL d   1      58.477  -0.028  30.332  0.00  0.00    -0.270 N 
ATOM      5  C   UNL d   1      59.323  -0.788  29.465  0.00  0.00     0.036 A 
ATOM      6  C   UNL d   1      59.137  -0.075  29.839  0.00  0.00     0.069 A 
ATOM      7  O   UNL d   1      57.337  -0.647  30.949  0.00  0.00    -0.265 OA
ATOM      8  C   UNL d   1      58.291   0.682  30.705  0.00  0.00     0.102 C 
ATOM      9  C   UNL d   1      59.983  -0.835  28.972  0.00  0.00     0.003 A 
ATOM     10  C   UNL d   1      59.610   0.589  29.719  0.00  0.00     0.018 A 
ATOM     11  C   UNL d   1      60.456  -0.168  28.853  0.00  0.00     0.000 A 
ATOM     12  C   UNL d   1      60.270   0.542  29.226  0.00  0.00     0.002 A 
ENDROOT
BRANCH   3  13
ATOM     13  N   UNL d   1      59.035  -2.169  29.210  0.00  0.00    -0.242 NA
BRANCH  13  14
ATOM     14  C   UNL d   1      59.607  -2.668  29.533  0.00  0.00     0.100 C 
BRANCH  14  15
ATOM     15  C   UNL d   1      59.763  -3.396  29.182  0.00  0.00     0.030 A 
ATOM     16  C   UNL d   1      60.528  -3.705  29.212  0.00  0.00     0.059 A 
ATOM     17 CL   UNL d   1      61.133  -3.292  29.588  0.00  0.00    -0.082 Cl
ATOM     18  C   UNL d   1      60.685  -4.433  28.861  0.00  0.00     0.011 A 
ATOM     19  C   UNL d   1      60.077  -4.853  28.481  0.00  0.00     0.001 A 
ATOM     20  C   UNL d   1      59.315  -4.537  28.455  0.00  0.00     0.000 A 
ATOM     21  C   UNL d   1      59.159  -3.809  28.806  0.00  0.00     0.002 A 
ENDBRANCH  14  15
ENDBRANCH  13  14
ENDBRANCH   3  13
BRANCH   1  22
ATOM     22  N   UNL d   1      57.708  -2.075  30.202  0.00  0.00    -0.107 N 
ATOM     23  O   UNL d   1      57.294  -2.401  29.569  0.00  0.00    -0.531 OA
ATOM     24  O   UNL d   1      57.649  -2.415  30.954  0.00  0.00    -0.531 OA
ENDBRANCH   1  22
TORSDOF 4
ENDMDL
MODEL 5
REMARK VINA RESULT:       2.3      2.985      4.807
REMARK  4 active torsions:
REMARK  status: ('A' for Active; 'I' for Inactive)
REMARK    1  A    between atoms: N_5  and  C_1 
REMARK    2  A    between atoms: N_8  and  C_3 
REMARK    3  A    between atoms: C_13  and  N_8 
REMARK    4  A    between atoms: C_12  and  C_13 
ROOT
ATOM      1  C   UNL d   1      55.670   0.278  33.443  0.00  0.00     0.200 A 
ATOM      2  C   UNL d   1      55.422   0.264  34.229  0.00  0.00     0.288 A 
ATOM      3  C   UNL d   1      56.474   0.386  33.254  0.00  0.00     0.109 A 
ATOM      4  N   UNL d   1      55.981   0.359  34.836  0.00  0.00    -0.270 N 
ATOM      5  C   UNL d   1      57.027   0.481  33.867  0.00  0.00     0.036 A 
ATOM      6  C   UNL d   1      56.779   0.467  34.656  0.00  0.00     0.069 A 
ATOM      7  O   UNL d   1      54.625   0.157  34.408  0.00  0.00    -0.265 OA
ATOM      8  C   UNL d   1      55.734   0.345  35.621  0.00  0.00     0.102 C 
ATOM      9  C   UNL d   1      57.825   0.588  33.687  0.00  0.00     0.003 A 
ATOM     10  C   UNL d   1      57.330   0.560  35.261  0.00  0.00     0.018 A 
ATOM     11  C   UNL d   1      58.375   0.682  34.296  0.00  0.00     0.000 A 
ATOM     12  C   UNL d   1      58.128   0.668  35.081  0.00  0.00     0.002 A 
ENDROOT
BRANCH   3  13
ATOM     13  N   UNL d   1      56.723   0.400  32.469  0.00  0.00    -0.242 NA
BRANCH  13  14
ATOM     14  C   UNL d   1      57.013  -0.286  32.115  0.00  0.00     0.100 C 
BRANCH  14  15
ATOM     15  C   UNL d   1      57.363  -0.248  31.370  0.00  0.00     0.030 A 
ATOM     16  C   UNL d   1      57.497  -0.945  30.949  0.00  0.00     0.059 A 
ATOM     17 CL   UNL d   1      57.284  -1.675  31.266  0.00  0.00    -0.082 Cl
ATOM     18  C   UNL d   1      57.847  -0.908  30.205  0.00  0.00     0.011 A 
ATOM     19  C   UNL d   1      58.063  -0.174  29.882  0.00  0.00     0.001 A 
ATOM     20  C   UNL d   1      57.926   0.518  30.309  0.00  0.00     0.000 A 
ATOM     21  C   UNL d   1      57.576   0.481  31.053  0.00  0.00     0.002 A 
ENDBRANCH  14  15
ENDBRANCH  13  14
ENDBRANCH   3  13
BRANCH   1  22
ATOM     22  N   UNL d   1      55.118   0.184  32.831  0.00  0.00    -0.107 N 
ATOM     23  O   UNL d   1      54.546  -0.407  32.882  0.00  0.00    -0.531 OA
ATOM     24  O   UNL d   1      55.140   0.681  32.170  0.00  0.00    -0.531 OA
ENDBRANCH   1  22
TORSDOF 4
ENDMDL
