MODEL 1
REMARK VINA RESULT:      42.9      0.000      0.000
REMARK  2 active torsions:
REMARK  status: ('A' for Active; 'I' for Inactive)
REMARK       I    between atoms: C_6  and  N_8 
REMARK    1  A    between atoms: C_7  and  C_6 
REMARK    2  A    between atoms: N_8  and  C_11 
ROOT
ATOM      1  N   UNL d   1     -50.873  24.374  33.348  0.00  0.00    -0.246 NA
ATOM      2  C   UNL d   1     -52.164  24.729  33.334  0.00  0.00     0.019 A 
ATOM      3  C   UNL d   1     -51.645  24.084  33.344  0.00  0.00     0.081 A 
ATOM      4  C   UNL d   1     -51.708  25.408  33.331  0.00  0.00     0.021 A 
ATOM      5  C   UNL d   1     -50.915  25.179  33.340  0.00  0.00     0.082 A 
ATOM      6  C   UNL d   1     -51.913  26.199  33.322  0.00  0.00     0.021 A 
ATOM      7  C   UNL d   1     -51.324  26.782  33.321  0.00  0.00     0.085 A 
ATOM      8  C   UNL d   1     -50.318  25.761  33.339  0.00  0.00     0.021 A 
ATOM      9  C   UNL d   1     -50.530  26.556  33.329  0.00  0.00     0.021 A 
ATOM     10  C   UNL d   1     -52.990  24.605  33.328  0.00  0.00     0.002 A 
ATOM     11  C   UNL d   1     -51.950  23.313  33.349  0.00  0.00     0.019 A 
ATOM     12  C   UNL d   1     -53.291  23.837  33.333  0.00  0.00     0.000 A 
ATOM     13  C   UNL d   1     -52.771  23.192  33.344  0.00  0.00     0.002 A 
ENDROOT
BRANCH   7  14
ATOM     14  N   UNL d   1     -51.539  27.600  33.311  0.00  0.00    -0.206 NA
ATOM     15  C   UNL d   1     -50.989  28.177  33.535  0.00  0.00     0.302 C 
ATOM     16  O   UNL d   1     -51.212  28.959  33.520  0.00  0.00    -0.263 OA
BRANCH  15  17
ATOM     17  C   UNL d   1     -50.215  27.950  33.772  0.00  0.00     0.158 A 
ATOM     18  O   UNL d   1     -49.934  27.450  34.368  0.00  0.00    -0.300 OA
ATOM     19  C   UNL d   1     -49.118  27.449  34.327  0.00  0.00     0.123 A 
ATOM     20  C   UNL d   1     -48.891  27.936  33.720  0.00  0.00     0.029 A 
ATOM     21  C   UNL d   1     -49.572  28.242  33.382  0.00  0.00     0.032 A 
ENDBRANCH  15  17
ENDBRANCH   7  14
TORSDOF 2
ENDMDL
MODEL 2
REMARK VINA RESULT:      45.7      1.160      1.740
REMARK  2 active torsions:
REMARK  status: ('A' for Active; 'I' for Inactive)
REMARK       I    between atoms: C_6  and  N_8 
REMARK    1  A    between atoms: C_7  and  C_6 
REMARK    2  A    between atoms: N_8  and  C_11 
ROOT
ATOM      1  N   UNL d   1     -52.439  25.670  33.312  0.00  0.00    -0.246 NA
ATOM      2  C   UNL d   1     -51.528  24.688  33.309  0.00  0.00     0.019 A 
ATOM      3  C   UNL d   1     -52.340  24.851  33.310  0.00  0.00     0.081 A 
ATOM      4  C   UNL d   1     -51.136  25.406  33.310  0.00  0.00     0.021 A 
ATOM      5  C   UNL d   1     -51.705  26.004  33.311  0.00  0.00     0.082 A 
ATOM      6  C   UNL d   1     -50.339  25.589  33.309  0.00  0.00     0.021 A 
ATOM      7  C   UNL d   1     -50.094  26.381  33.310  0.00  0.00     0.085 A 
ATOM      8  C   UNL d   1     -51.463  26.802  33.312  0.00  0.00     0.021 A 
ATOM      9  C   UNL d   1     -50.661  26.981  33.311  0.00  0.00     0.021 A 
ATOM     10  C   UNL d   1     -51.256  23.898  33.307  0.00  0.00     0.002 A 
ATOM     11  C   UNL d   1     -52.882  24.224  33.310  0.00  0.00     0.019 A 
ATOM     12  C   UNL d   1     -51.798  23.276  33.307  0.00  0.00     0.000 A 
ATOM     13  C   UNL d   1     -52.611  23.440  33.308  0.00  0.00     0.002 A 
ENDROOT
BRANCH   7  14
ATOM     14  N   UNL d   1     -49.269  26.567  33.309  0.00  0.00    -0.206 NA
ATOM     15  C   UNL d   1     -48.911  26.876  33.990  0.00  0.00     0.302 C 
ATOM     16  O   UNL d   1     -48.117  27.049  33.972  0.00  0.00    -0.263 OA
BRANCH  15  17
ATOM     17  C   UNL d   1     -49.369  27.004  34.682  0.00  0.00     0.158 A 
ATOM     18  O   UNL d   1     -49.970  26.569  35.047  0.00  0.00    -0.300 OA
ATOM     19  C   UNL d   1     -50.206  26.979  35.713  0.00  0.00     0.123 A 
ATOM     20  C   UNL d   1     -49.764  27.657  35.766  0.00  0.00     0.029 A 
ATOM     21  C   UNL d   1     -49.250  27.666  35.127  0.00  0.00     0.032 A 
ENDBRANCH  15  17
ENDBRANCH   7  14
TORSDOF 2
ENDMDL
