MODEL 1
REMARK VINA RESULT:      25.7      0.000      0.000
REMARK  0 active torsions:
REMARK  status: ('A' for Active; 'I' for Inactive)
ROOT
ATOM      1  C   UNL d   1      58.576  49.708  51.256  0.00  0.00     0.166 A 
ATOM      2  C   UNL d   1      58.514  49.708  50.431  0.00  0.00     0.117 A 
ATOM      3  N   UNL d   1      57.810  49.708  51.578  0.00  0.00    -0.288 N 
ATOM      4  C   UNL d   1      57.708  49.708  50.241  0.00  0.00     0.037 A 
ATOM      5  N   UNL d   1      59.315  49.708  51.628  0.00  0.00    -0.225 NA
ATOM      6  C   UNL d   1      57.291  49.708  50.947  0.00  0.00     0.067 A 
ATOM      7  N   UNL d   1      59.195  49.708  49.976  0.00  0.00    -0.241 NA
ATOM      8  C   UNL d   1      59.997  49.708  51.172  0.00  0.00     0.101 A 
ATOM      9  C   UNL d   1      59.935  49.708  50.343  0.00  0.00     0.099 A 
ATOM     10  C   UNL d   1      56.453  49.708  50.919  0.00  0.00     0.018 A 
ATOM     11  C   UNL d   1      57.321  49.708  49.498  0.00  0.00     0.003 A 
ATOM     12  C   UNL d   1      57.265  49.708  52.206  0.00  0.00     0.101 C 
ATOM     13  C   UNL d   1      56.512  49.708  49.481  0.00  0.00     0.000 A 
ATOM     14  C   UNL d   1      56.094  49.708  50.176  0.00  0.00     0.002 A 
ATOM     15  C   UNL d   1      60.607  49.708  49.921  0.00  0.00     0.021 A 
ATOM     16  C   UNL d   1      60.737  49.708  51.540  0.00  0.00     0.021 A 
ATOM     17  C   UNL d   1      56.081  49.708  48.832  0.00  0.00     0.000 C 
ATOM     18  C   UNL d   1      61.353  49.708  50.264  0.00  0.00     0.002 A 
ATOM     19  C   UNL d   1      61.416  49.708  51.087  0.00  0.00     0.002 A 
ENDROOT
TORSDOF 0
ENDMDL
