MODEL 1
REMARK VINA RESULT:      26.7      0.000      0.000
REMARK  3 active torsions:
REMARK  status: ('A' for Active; 'I' for Inactive)
REMARK    1  A    between atoms: C_10  and  C_2 
REMARK    2  A    between atoms: C_13  and  C_6 
REMARK    3  A    between atoms: O_17  and  C_10 
ROOT
ATOM      1  C   UNL d   1     -51.698  24.909  33.335  0.00  0.00     0.081 A 
ATOM      2  C   UNL d   1     -51.288  26.270  33.334  0.00  0.00     0.106 A 
ATOM      3  C   UNL d   1     -52.083  26.509  33.337  0.00  0.00     0.208 A 
ATOM      4  C   UNL d   1     -52.483  25.142  33.337  0.00  0.00     0.108 A 
ATOM      5  C   UNL d   1     -51.503  24.097  33.334  0.00  0.00     0.281 A 
ATOM      6  C   UNL d   1     -51.100  25.469  33.333  0.00  0.00     0.015 A 
ATOM      7  O   UNL d   1     -52.675  25.941  33.338  0.00  0.00    -0.288 OA
ATOM      8  N   UNL d   1     -52.102  23.528  33.335  0.00  0.00    -0.208 NA
ATOM      9  C   UNL d   1     -53.082  24.572  33.338  0.00  0.00     0.044 A 
ATOM     10  C   UNL d   1     -52.898  23.771  33.337  0.00  0.00     0.087 A 
ATOM     11  O   UNL d   1     -50.710  23.867  33.331  0.00  0.00    -0.265 OA
ATOM     12  N   UNL d   1     -52.264  27.312  33.338  0.00  0.00    -0.121 N 
ATOM     13  C   UNL d   1     -53.490  23.203  33.339  0.00  0.00     0.021 C 
ENDROOT
BRANCH   6  14
ATOM     14  C   UNL d   1     -50.306  25.236  33.331  0.00  0.00     0.004 A 
ATOM     15  C   UNL d   1     -49.711  25.815  33.351  0.00  0.00     0.021 A 
ATOM     16  C   UNL d   1     -48.920  25.585  33.349  0.00  0.00     0.099 A 
ATOM     17  N   UNL d   1     -48.720  24.780  33.327  0.00  0.00    -0.242 NA
ATOM     18  C   UNL d   1     -49.324  24.203  33.306  0.00  0.00     0.099 A 
ATOM     19  C   UNL d   1     -50.116  24.439  33.309  0.00  0.00     0.021 A 
ENDBRANCH   6  14
BRANCH   2  20
ATOM     20  C   UNL d   1     -50.688  26.836  33.333  0.00  0.00     0.299 C 
ATOM     21  O   UNL d   1     -49.895  26.605  33.310  0.00  0.00    -0.259 OA
BRANCH  20  22
ATOM     22  O   UNL d   1     -50.882  27.648  33.355  0.00  0.00    -0.296 OA
ATOM     23  C   UNL d   1     -50.282  28.205  33.317  0.00  0.00     0.185 C 
ENDBRANCH  20  22
ENDBRANCH   2  20
TORSDOF 3
ENDMDL
