MODEL 1
REMARK VINA RESULT:      59.5      0.000      0.000
REMARK  3 active torsions:
REMARK  status: ('A' for Active; 'I' for Inactive)
REMARK    1  A    between atoms: C_9  and  C_1 
REMARK    2  A    between atoms: C_4  and  C_9 
REMARK       I    between atoms: N_5  and  C_4 
REMARK    3  A    between atoms: C_10  and  N_8 
ROOT
ATOM      1  C   UNL d   1      13.495  12.586  -3.778  0.00  0.00     0.265 C 
ATOM      2  N   UNL d   1      13.494  13.294  -4.203  0.00  0.00    -0.269 N 
ATOM      3  N   UNL d   1      13.490  14.727  -5.051  0.00  0.00    -0.299 N 
ATOM      4  C   UNL d   1      13.235  13.997  -3.831  0.00  0.00     0.102 A 
ATOM      5  C   UNL d   1      13.744  13.312  -4.980  0.00  0.00     0.102 A 
ATOM      6  C   UNL d   1      13.741  14.024  -5.397  0.00  0.00     0.100 A 
ATOM      7  C   UNL d   1      13.231  14.709  -4.248  0.00  0.00     0.100 A 
ATOM      8  O   UNL d   1      13.750  11.893  -4.143  0.00  0.00    -0.267 OA
ENDROOT
BRANCH   1   9
ATOM      9  C   UNL d   1      13.241  12.566  -2.987  0.00  0.00     0.063 C 
BRANCH   9  10
ATOM     10  C   UNL d   1      13.781  12.374  -2.389  0.00  0.00     0.024 A 
ATOM     11  C   UNL d   1      14.593  12.338  -2.481  0.00  0.00     0.080 A 
ATOM     12  N   UNL d   1      14.922  12.128  -1.751  0.00  0.00    -0.303 N 
ATOM     13  C   UNL d   1      15.722  12.026  -1.583  0.00  0.00     0.100 C 
ATOM     14  C   UNL d   1      14.302  12.037  -1.218  0.00  0.00     0.064 A 
ATOM     15  C   UNL d   1      13.605  12.189  -1.613  0.00  0.00     0.018 A 
ATOM     16  C   UNL d   1      14.294  11.832  -0.415  0.00  0.00     0.018 A 
ATOM     17  C   UNL d   1      12.887  12.138  -1.210  0.00  0.00     0.002 A 
ATOM     18  C   UNL d   1      12.875  11.936  -0.417  0.00  0.00     0.000 A 
ATOM     19  C   UNL d   1      13.578  11.782  -0.016  0.00  0.00     0.002 A 
ENDBRANCH   9  10
ENDBRANCH   1   9
BRANCH   3  20
ATOM     20  C   UNL d   1      13.484  15.431  -5.458  0.00  0.00     0.092 A 
ATOM     21  C   UNL d   1      14.169  15.893  -5.508  0.00  0.00     0.156 A 
ATOM     22  F   UNL d   1      14.855  15.636  -5.145  0.00  0.00    -0.203 F 
ATOM     23  C   UNL d   1      14.153  16.608  -5.925  0.00  0.00     0.031 A 
ATOM     24  C   UNL d   1      13.450  16.855  -6.288  0.00  0.00     0.002 A 
ATOM     25  C   UNL d   1      12.777  16.396  -6.235  0.00  0.00     0.002 A 
ATOM     26  C   UNL d   1      12.796  15.684  -5.819  0.00  0.00     0.020 A 
ENDBRANCH   3  20
TORSDOF 3
ENDMDL
