MODEL 1
REMARK VINA RESULT:      33.5      0.000      0.000
REMARK  4 active torsions:
REMARK  status: ('A' for Active; 'I' for Inactive)
REMARK    1  A    between atoms: C_4  and  C_1 
REMARK       I    between atoms: N_6  and  C_4 
REMARK    2  A    between atoms: C_9  and  N_6 
REMARK    3  A    between atoms: C_12  and  N_6 
REMARK    4  A    between atoms: C_17  and  C_12 
ROOT
ATOM      1  C   UNL d   1      46.172 -17.632  43.578  0.00  0.00     0.272 C 
ATOM      2  N   UNL d   1      46.023 -17.863  44.354  0.00  0.00    -0.258 N 
ATOM      3  O   UNL d   1      46.237 -16.840  43.388  0.00  0.00    -0.266 OA
ENDROOT
BRANCH   2   4
ATOM      4  C   UNL d   1      45.955 -18.673  44.556  0.00  0.00     0.150 A 
ATOM      5  N   UNL d   1      46.647 -19.101  44.738  0.00  0.00    -0.227 NA
ATOM      6  C   UNL d   1      46.578 -19.908  44.939  0.00  0.00     0.101 A 
ATOM      7  C   UNL d   1      45.836 -20.270  44.955  0.00  0.00     0.021 A 
ATOM      8  C   UNL d   1      45.153 -19.837  44.772  0.00  0.00     0.005 A 
ATOM      9  C   UNL d   1      45.212 -19.039  44.573  0.00  0.00     0.037 A 
ENDBRANCH   2   4
BRANCH   2  10
ATOM     10  C   UNL d   1      45.937 -17.291  44.955  0.00  0.00     0.084 C 
BRANCH  10  11
ATOM     11  C   UNL d   1      45.650 -16.541  44.776  0.00  0.00     0.018 A 
ATOM     12  C   UNL d   1      44.843 -16.381  44.844  0.00  0.00     0.002 A 
ATOM     13  C   UNL d   1      44.559 -15.630  44.665  0.00  0.00     0.000 A 
ATOM     14  C   UNL d   1      45.074 -15.040  44.420  0.00  0.00     0.000 A 
ATOM     15  C   UNL d   1      45.892 -15.202  44.351  0.00  0.00     0.000 A 
ATOM     16  C   UNL d   1      46.167 -15.954  44.531  0.00  0.00     0.002 A 
ENDBRANCH  10  11
ENDBRANCH   2  10
BRANCH   1  17
ATOM     17  C   UNL d   1      46.255 -18.213  42.992  0.00  0.00     0.132 A 
ATOM     18  C   UNL d   1      46.017 -18.044  42.218  0.00  0.00     0.272 A 
ATOM     19  N   UNL d   1      46.094 -18.617  41.622  0.00  0.00    -0.265 N 
ATOM     20  O   UNL d   1      45.701 -17.306  42.029  0.00  0.00    -0.266 OA
ATOM     21  C   UNL d   1      45.911 -18.612  40.824  0.00  0.00     0.123 A 
ATOM     22  C   UNL d   1      46.410 -19.355  41.812  0.00  0.00     0.181 A 
ATOM     23  C   UNL d   1      46.110 -19.342  40.509  0.00  0.00     0.043 A 
ATOM     24  S   UNL d   1      46.422 -19.811  41.122  0.00  0.00    -0.049 SA
ATOM     25  N   UNL d   1      46.647 -19.525  42.581  0.00  0.00    -0.220 NA
ATOM     26  C   UNL d   1      46.570 -18.954  43.174  0.00  0.00     0.111 A 
ENDBRANCH   1  17
TORSDOF 4
ENDMDL
