MODEL 1
REMARK VINA RESULT:      -5.1      0.000      0.000
REMARK  2 active torsions:
REMARK  status: ('A' for Active; 'I' for Inactive)
REMARK    1  A    between atoms: C_5  and  N_1 
REMARK    2  A    between atoms: C_7  and  C_5 
ROOT
ATOM      1  N   UNL d   1      56.745   0.277  33.490  0.00  0.00    -0.288 N 
ATOM      2  C   UNL d   1      57.235   0.484  34.115  0.00  0.00     0.183 A 
ATOM      3  N   UNL d   1      56.737   0.678  34.774  0.00  0.00    -0.224 NA
ATOM      4  C   UNL d   1      55.976   0.331  33.723  0.00  0.00     0.083 A 
ATOM      5  C   UNL d   1      55.971   0.586  34.538  0.00  0.00     0.099 A 
ATOM      6  C   UNL d   1      55.265   0.192  33.331  0.00  0.00     0.019 A 
ATOM      7  C   UNL d   1      55.225   0.682  34.905  0.00  0.00     0.021 A 
ATOM      8  C   UNL d   1      54.547   0.297  33.725  0.00  0.00     0.002 A 
ATOM      9  C   UNL d   1      54.542   0.543  34.512  0.00  0.00     0.002 A 
ENDROOT
BRANCH   1  10
ATOM     10  C   UNL d   1      56.338   0.064  32.839  0.00  0.00     0.066 C 
ATOM     11  C   UNL d   1      55.527  -0.087  32.874  0.00  0.00     0.019 C 
BRANCH  10  12
ATOM     12  C   UNL d   1      56.739  -0.004  32.122  0.00  0.00     0.016 A 
ATOM     13  C   UNL d   1      56.920  -0.751  31.820  0.00  0.00     0.001 A 
ATOM     14  C   UNL d   1      57.322  -0.819  31.102  0.00  0.00     0.000 A 
ATOM     15  C   UNL d   1      57.544  -0.139  30.683  0.00  0.00     0.000 A 
ATOM     16  C   UNL d   1      57.363   0.607  30.985  0.00  0.00     0.000 A 
ATOM     17  C   UNL d   1      56.960   0.673  31.706  0.00  0.00     0.001 A 
ENDBRANCH  10  12
ENDBRANCH   1  10
TORSDOF 2
ENDMDL
MODEL 2
REMARK VINA RESULT:      -5.1      1.211      1.789
REMARK  2 active torsions:
REMARK  status: ('A' for Active; 'I' for Inactive)
REMARK    1  A    between atoms: C_5  and  N_1 
REMARK    2  A    between atoms: C_7  and  C_5 
ROOT
ATOM      1  N   UNL d   1      56.681  -0.678  31.951  0.00  0.00    -0.288 N 
ATOM      2  C   UNL d   1      56.511  -1.481  31.954  0.00  0.00     0.183 A 
ATOM      3  N   UNL d   1      55.954  -1.620  32.579  0.00  0.00    -0.224 NA
ATOM      4  C   UNL d   1      56.264  -0.313  32.536  0.00  0.00     0.083 A 
ATOM      5  C   UNL d   1      55.802  -0.911  32.934  0.00  0.00     0.099 A 
ATOM      6  C   UNL d   1      56.221   0.472  32.782  0.00  0.00     0.019 A 
ATOM      7  C   UNL d   1      55.319  -0.661  33.570  0.00  0.00     0.021 A 
ATOM      8  C   UNL d   1      55.733   0.682  33.413  0.00  0.00     0.002 A 
ATOM      9  C   UNL d   1      55.287   0.104  33.798  0.00  0.00     0.002 A 
ENDROOT
BRANCH   1  10
ATOM     10  C   UNL d   1      56.897   0.087  31.885  0.00  0.00     0.066 C 
ATOM     11  C   UNL d   1      56.516   0.676  32.319  0.00  0.00     0.019 C 
BRANCH  10  12
ATOM     12  C   UNL d   1      57.512   0.285  31.373  0.00  0.00     0.016 A 
ATOM     13  C   UNL d   1      57.382   0.300  30.559  0.00  0.00     0.001 A 
ATOM     14  C   UNL d   1      57.997   0.498  30.045  0.00  0.00     0.000 A 
ATOM     15  C   UNL d   1      58.747   0.682  30.347  0.00  0.00     0.000 A 
ATOM     16  C   UNL d   1      58.878   0.667  31.161  0.00  0.00     0.000 A 
ATOM     17  C   UNL d   1      58.258   0.468  31.674  0.00  0.00     0.001 A 
ENDBRANCH  10  12
ENDBRANCH   1  10
TORSDOF 2
ENDMDL
MODEL 3
REMARK VINA RESULT:      -4.2      1.515      3.751
REMARK  2 active torsions:
REMARK  status: ('A' for Active; 'I' for Inactive)
REMARK    1  A    between atoms: C_5  and  N_1 
REMARK    2  A    between atoms: C_7  and  C_5 
ROOT
ATOM      1  N   UNL d   1      58.219   0.448  31.697  0.00  0.00    -0.288 N 
ATOM      2  C   UNL d   1      58.965   0.481  32.037  0.00  0.00     0.183 A 
ATOM      3  N   UNL d   1      59.527   0.574  31.408  0.00  0.00    -0.224 NA
ATOM      4  C   UNL d   1      58.286   0.514  30.897  0.00  0.00     0.083 A 
ATOM      5  C   UNL d   1      59.116   0.594  30.713  0.00  0.00     0.099 A 
ATOM      6  C   UNL d   1      57.728   0.515  30.290  0.00  0.00     0.019 A 
ATOM      7  C   UNL d   1      59.325   0.672  29.907  0.00  0.00     0.021 A 
ATOM      8  C   UNL d   1      57.971   0.594  29.505  0.00  0.00     0.002 A 
ATOM      9  C   UNL d   1      58.773   0.672  29.328  0.00  0.00     0.002 A 
ENDROOT
BRANCH   1  10
ATOM     10  C   UNL d   1      57.464   0.407  31.442  0.00  0.00     0.066 C 
ATOM     11  C   UNL d   1      57.254   0.668  30.688  0.00  0.00     0.019 C 
BRANCH  10  12
ATOM     12  C   UNL d   1      56.890   0.098  31.946  0.00  0.00     0.016 A 
ATOM     13  C   UNL d   1      56.402   0.605  32.376  0.00  0.00     0.001 A 
ATOM     14  C   UNL d   1      55.827   0.296  32.881  0.00  0.00     0.000 A 
ATOM     15  C   UNL d   1      55.737  -0.525  32.956  0.00  0.00     0.000 A 
ATOM     16  C   UNL d   1      56.225  -1.033  32.526  0.00  0.00     0.000 A 
ATOM     17  C   UNL d   1      56.801  -0.720  32.020  0.00  0.00     0.001 A 
ENDBRANCH  10  12
ENDBRANCH   1  10
TORSDOF 2
ENDMDL
MODEL 4
REMARK VINA RESULT:      -3.6      9.418     10.619
REMARK  2 active torsions:
REMARK  status: ('A' for Active; 'I' for Inactive)
REMARK    1  A    between atoms: C_5  and  N_1 
REMARK    2  A    between atoms: C_7  and  C_5 
ROOT
ATOM      1  N   UNL d   1      59.080  -9.446  33.656  0.00  0.00    -0.288 N 
ATOM      2  C   UNL d   1      58.396  -9.509  33.208  0.00  0.00     0.183 A 
ATOM      3  N   UNL d   1      58.630  -9.664  32.408  0.00  0.00    -0.224 NA
ATOM      4  C   UNL d   1      59.722  -9.553  33.182  0.00  0.00     0.083 A 
ATOM      5  C   UNL d   1      59.437  -9.691  32.389  0.00  0.00     0.099 A 
ATOM      6  C   UNL d   1      60.533  -9.549  33.333  0.00  0.00     0.019 A 
ATOM      7  C   UNL d   1      60.010  -9.818  31.792  0.00  0.00     0.021 A 
ATOM      8  C   UNL d   1      61.068  -9.678  32.719  0.00  0.00     0.002 A 
ATOM      9  C   UNL d   1      60.793  -9.811  31.953  0.00  0.00     0.002 A 
ENDROOT
BRANCH   1  10
ATOM     10  C   UNL d   1      59.697  -9.372  34.157  0.00  0.00     0.066 C 
ATOM     11  C   UNL d   1      60.442  -9.666  33.962  0.00  0.00     0.019 C 
BRANCH  10  12
ATOM     12  C   UNL d   1      59.580  -8.993  34.880  0.00  0.00     0.016 A 
ATOM     13  C   UNL d   1      59.370  -9.433  35.546  0.00  0.00     0.001 A 
ATOM     14  C   UNL d   1      59.253  -9.054  36.270  0.00  0.00     0.000 A 
ATOM     15  C   UNL d   1      59.345  -8.232  36.330  0.00  0.00     0.000 A 
ATOM     16  C   UNL d   1      59.555  -7.793  35.664  0.00  0.00     0.000 A 
ATOM     17  C   UNL d   1      59.672  -8.175  34.938  0.00  0.00     0.001 A 
ENDBRANCH  10  12
ENDBRANCH   1  10
TORSDOF 2
ENDMDL
MODEL 5
REMARK VINA RESULT:      -3.2      9.371     10.127
REMARK  2 active torsions:
REMARK  status: ('A' for Active; 'I' for Inactive)
REMARK    1  A    between atoms: C_5  and  N_1 
REMARK    2  A    between atoms: C_7  and  C_5 
ROOT
ATOM      1  N   UNL d   1      59.722  -9.478  34.898  0.00  0.00    -0.288 N 
ATOM      2  C   UNL d   1      59.122  -9.818  35.343  0.00  0.00     0.183 A 
ATOM      3  N   UNL d   1      58.941  -9.283  35.976  0.00  0.00    -0.224 NA
ATOM      4  C   UNL d   1      59.922  -8.766  35.218  0.00  0.00     0.083 A 
ATOM      5  C   UNL d   1      59.427  -8.642  35.902  0.00  0.00     0.099 A 
ATOM      6  C   UNL d   1      60.479  -8.197  35.004  0.00  0.00     0.019 A 
ATOM      7  C   UNL d   1      59.535  -7.931  36.330  0.00  0.00     0.021 A 
ATOM      8  C   UNL d   1      60.558  -7.508  35.450  0.00  0.00     0.002 A 
ATOM      9  C   UNL d   1      60.079  -7.388  36.111  0.00  0.00     0.002 A 
ENDROOT
BRANCH   1  10
ATOM     10  C   UNL d   1      60.301  -9.215  34.418  0.00  0.00     0.066 C 
ATOM     11  C   UNL d   1      60.923  -8.757  34.711  0.00  0.00     0.019 C 
BRANCH  10  12
ATOM     12  C   UNL d   1      60.273  -9.406  33.617  0.00  0.00     0.016 A 
ATOM     13  C   UNL d   1      59.557  -9.626  33.270  0.00  0.00     0.001 A 
ATOM     14  C   UNL d   1      59.528  -9.818  32.468  0.00  0.00     0.000 A 
ATOM     15  C   UNL d   1      60.218  -9.789  32.008  0.00  0.00     0.000 A 
ATOM     16  C   UNL d   1      60.933  -9.569  32.354  0.00  0.00     0.000 A 
ATOM     17  C   UNL d   1      60.960  -9.377  33.160  0.00  0.00     0.001 A 
ENDBRANCH  10  12
ENDBRANCH   1  10
TORSDOF 2
ENDMDL
MODEL 6
REMARK VINA RESULT:      -3.0      4.326      6.010
REMARK  2 active torsions:
REMARK  status: ('A' for Active; 'I' for Inactive)
REMARK    1  A    between atoms: C_5  and  N_1 
REMARK    2  A    between atoms: C_7  and  C_5 
ROOT
ATOM      1  N   UNL d   1      59.947  -1.657  29.124  0.00  0.00    -0.288 N 
ATOM      2  C   UNL d   1      60.768  -1.641  29.125  0.00  0.00     0.183 A 
ATOM      3  N   UNL d   1      61.036  -2.421  28.925  0.00  0.00    -0.224 NA
ATOM      4  C   UNL d   1      59.693  -2.398  28.936  0.00  0.00     0.083 A 
ATOM      5  C   UNL d   1      60.385  -2.883  28.810  0.00  0.00     0.099 A 
ATOM      6  C   UNL d   1      58.941  -2.725  28.856  0.00  0.00     0.019 A 
ATOM      7  C   UNL d   1      60.259  -3.684  28.606  0.00  0.00     0.021 A 
ATOM      8  C   UNL d   1      58.855  -3.520  28.653  0.00  0.00     0.002 A 
ATOM      9  C   UNL d   1      59.523  -3.988  28.531  0.00  0.00     0.002 A 
ENDROOT
BRANCH   1  10
ATOM     10  C   UNL d   1      59.153  -1.593  29.144  0.00  0.00     0.066 C 
ATOM     11  C   UNL d   1      58.671  -2.262  29.153  0.00  0.00     0.019 C 
BRANCH  10  12
ATOM     12  C   UNL d   1      58.814  -0.841  29.156  0.00  0.00     0.016 A 
ATOM     13  C   UNL d   1      58.547  -0.520  29.867  0.00  0.00     0.001 A 
ATOM     14  C   UNL d   1      58.207   0.233  29.879  0.00  0.00     0.000 A 
ATOM     15  C   UNL d   1      58.134   0.667  29.176  0.00  0.00     0.000 A 
ATOM     16  C   UNL d   1      58.401   0.346  28.465  0.00  0.00     0.000 A 
ATOM     17  C   UNL d   1      58.741  -0.410  28.456  0.00  0.00     0.001 A 
ENDBRANCH  10  12
ENDBRANCH   1  10
TORSDOF 2
ENDMDL
