MODEL 1
REMARK VINA RESULT:       1.0      0.000      0.000
REMARK  5 active torsions:
REMARK  status: ('A' for Active; 'I' for Inactive)
REMARK    1  A    between atoms: N_7  and  C_1 
REMARK    2  A    between atoms: C_15  and  N_2 
REMARK    3  A    between atoms: C_5  and  C_10 
REMARK       I    between atoms: C_10  and  N_7 
REMARK    4  A    between atoms: C_13  and  C_11 
REMARK    5  A    between atoms: C_24  and  C_15 
ROOT
ATOM      1  N   UNL d   1      57.189  -0.722  31.177  0.00  0.00    -0.203 NA
ATOM      2  C   UNL d   1      57.879  -0.444  30.789  0.00  0.00     0.299 C 
ATOM      3  O   UNL d   1      58.179   0.257  31.011  0.00  0.00    -0.263 OA
ENDROOT
BRANCH   1   4
ATOM      4  C   UNL d   1      56.832  -0.258  31.787  0.00  0.00     0.121 A 
ATOM      5  C   UNL d   1      56.948  -0.341  32.614  0.00  0.00     0.102 A 
ATOM      6  N   UNL d   1      56.489   0.228  32.989  0.00  0.00    -0.227 N 
ATOM      7  C   UNL d   1      57.440  -0.902  32.982  0.00  0.00     0.022 C 
ATOM      8  N   UNL d   1      56.083   0.671  32.403  0.00  0.00    -0.164 NA
ATOM      9  C   UNL d   1      56.302   0.362  31.655  0.00  0.00     0.120 A 
ATOM     10  C   UNL d   1      56.042   0.621  30.900  0.00  0.00     0.024 C 
BRANCH   6  11
ATOM     11  C   UNL d   1      56.495   0.278  33.837  0.00  0.00     0.101 C 
BRANCH  11  12
ATOM     12  C   UNL d   1      55.775   0.371  34.249  0.00  0.00     0.019 A 
ATOM     13  C   UNL d   1      55.764   0.363  35.079  0.00  0.00     0.002 A 
ATOM     14  C   UNL d   1      55.048   0.456  35.499  0.00  0.00     0.000 A 
ATOM     15  C   UNL d   1      54.327   0.561  35.068  0.00  0.00     0.000 A 
ATOM     16  C   UNL d   1      54.337   0.569  34.256  0.00  0.00     0.000 A 
ATOM     17  C   UNL d   1      53.595   0.656  35.459  0.00  0.00     0.000 C 
ATOM     18  C   UNL d   1      55.058   0.475  33.832  0.00  0.00     0.002 A 
ENDBRANCH  11  12
ENDBRANCH   6  11
ENDBRANCH   1   4
BRANCH   2  19
ATOM     19  C   UNL d   1      58.511  -1.334  29.662  0.00  0.00     0.168 A 
ATOM     20  N   UNL d   1      58.675  -1.143  28.907  0.00  0.00    -0.121 NA
ATOM     21  O   UNL d   1      58.989  -1.771  28.552  0.00  0.00    -0.211 OA
ATOM     22  C   UNL d   1      59.028  -2.368  29.078  0.00  0.00     0.127 A 
ATOM     23  C   UNL d   1      58.732  -2.101  29.769  0.00  0.00     0.053 A 
BRANCH  22  24
ATOM     24  C   UNL d   1      59.313  -3.082  28.911  0.00  0.00     0.027 A 
ATOM     25  C   UNL d   1      60.089  -3.239  29.026  0.00  0.00     0.028 A 
ATOM     26  C   UNL d   1      60.371  -3.948  28.860  0.00  0.00     0.119 A 
ATOM     27  O   UNL d   1      61.100  -4.255  28.917  0.00  0.00    -0.300 OA
ATOM     28  C   UNL d   1      59.904  -4.524  28.575  0.00  0.00     0.119 A 
ATOM     29  C   UNL d   1      61.078  -5.007  28.672  0.00  0.00     0.304 A 
ATOM     30  O   UNL d   1      60.335  -5.173  28.460  0.00  0.00    -0.300 OA
ATOM     31  C   UNL d   1      59.127  -4.372  28.457  0.00  0.00     0.026 A 
ATOM     32  C   UNL d   1      58.838  -3.664  28.622  0.00  0.00     0.004 A 
ENDBRANCH  22  24
ENDBRANCH   2  19
TORSDOF 5
ENDMDL
MODEL 2
REMARK VINA RESULT:       2.0      1.568      7.110
REMARK  5 active torsions:
REMARK  status: ('A' for Active; 'I' for Inactive)
REMARK    1  A    between atoms: N_7  and  C_1 
REMARK    2  A    between atoms: C_15  and  N_2 
REMARK    3  A    between atoms: C_5  and  C_10 
REMARK       I    between atoms: C_10  and  N_7 
REMARK    4  A    between atoms: C_13  and  C_11 
REMARK    5  A    between atoms: C_24  and  C_15 
ROOT
ATOM      1  N   UNL d   1      58.116  -1.823  30.019  0.00  0.00    -0.203 NA
ATOM      2  C   UNL d   1      58.172  -0.985  30.023  0.00  0.00     0.299 C 
ATOM      3  O   UNL d   1      58.716  -0.643  29.555  0.00  0.00    -0.263 OA
ENDROOT
BRANCH   1   4
ATOM      4  C   UNL d   1      58.630  -2.278  29.525  0.00  0.00     0.121 A 
ATOM      5  C   UNL d   1      59.434  -2.466  29.675  0.00  0.00     0.102 A 
ATOM      6  N   UNL d   1      59.706  -2.918  29.044  0.00  0.00    -0.227 N 
ATOM      7  C   UNL d   1      59.871  -2.234  30.343  0.00  0.00     0.022 C 
ATOM      8  N   UNL d   1      59.078  -3.016  28.497  0.00  0.00    -0.164 NA
ATOM      9  C   UNL d   1      58.409  -2.614  28.804  0.00  0.00     0.120 A 
ATOM     10  C   UNL d   1      57.648  -2.553  28.456  0.00  0.00     0.024 C 
BRANCH   6  11
ATOM     11  C   UNL d   1      60.510  -3.191  29.043  0.00  0.00     0.101 C 
BRANCH  11  12
ATOM     12  C   UNL d   1      60.668  -4.008  29.103  0.00  0.00     0.019 A 
ATOM     13  C   UNL d   1      60.973  -4.326  29.806  0.00  0.00     0.002 A 
ATOM     14  C   UNL d   1      61.133  -5.143  29.873  0.00  0.00     0.000 A 
ATOM     15  C   UNL d   1      60.981  -5.650  29.213  0.00  0.00     0.000 A 
ATOM     16  C   UNL d   1      60.682  -5.340  28.524  0.00  0.00     0.000 A 
ATOM     17  C   UNL d   1      61.131  -6.471  29.249  0.00  0.00     0.000 C 
ATOM     18  C   UNL d   1      60.520  -4.516  28.455  0.00  0.00     0.002 A 
ENDBRANCH  11  12
ENDBRANCH   6  11
ENDBRANCH   1   4
BRANCH   2  19
ATOM     19  C   UNL d   1      57.202  -0.176  30.953  0.00  0.00     0.168 A 
ATOM     20  N   UNL d   1      56.668   0.379  30.755  0.00  0.00    -0.121 NA
ATOM     21  O   UNL d   1      56.311   0.629  31.410  0.00  0.00    -0.211 OA
ATOM     22  C   UNL d   1      56.614   0.233  32.032  0.00  0.00     0.127 A 
ATOM     23  C   UNL d   1      57.168  -0.268  31.751  0.00  0.00     0.053 A 
BRANCH  22  24
ATOM     24  C   UNL d   1      56.384   0.343  32.776  0.00  0.00     0.027 A 
ATOM     25  C   UNL d   1      55.605   0.374  32.953  0.00  0.00     0.028 A 
ATOM     26  C   UNL d   1      55.378   0.484  33.692  0.00  0.00     0.119 A 
ATOM     27  O   UNL d   1      54.659   0.537  34.024  0.00  0.00    -0.300 OA
ATOM     28  C   UNL d   1      55.906   0.566  34.280  0.00  0.00     0.119 A 
ATOM     29  C   UNL d   1      54.747   0.650  34.801  0.00  0.00     0.304 A 
ATOM     30  O   UNL d   1      55.521   0.668  34.960  0.00  0.00    -0.300 OA
ATOM     31  C   UNL d   1      56.687   0.536  34.108  0.00  0.00     0.026 A 
ATOM     32  C   UNL d   1      56.921   0.427  33.370  0.00  0.00     0.004 A 
ENDBRANCH  22  24
ENDBRANCH   2  19
TORSDOF 5
ENDMDL
MODEL 3
REMARK VINA RESULT:       3.7      1.219      1.806
REMARK  5 active torsions:
REMARK  status: ('A' for Active; 'I' for Inactive)
REMARK    1  A    between atoms: N_7  and  C_1 
REMARK    2  A    between atoms: C_15  and  N_2 
REMARK    3  A    between atoms: C_5  and  C_10 
REMARK       I    between atoms: C_10  and  N_7 
REMARK    4  A    between atoms: C_13  and  C_11 
REMARK    5  A    between atoms: C_24  and  C_15 
ROOT
ATOM      1  N   UNL d   1      56.545  -0.937  32.285  0.00  0.00    -0.203 NA
ATOM      2  C   UNL d   1      56.802  -0.317  31.782  0.00  0.00     0.299 C 
ATOM      3  O   UNL d   1      56.490   0.406  31.888  0.00  0.00    -0.263 OA
ENDROOT
BRANCH   1   4
ATOM      4  C   UNL d   1      55.969  -0.784  32.884  0.00  0.00     0.121 A 
ATOM      5  C   UNL d   1      55.815  -0.048  33.257  0.00  0.00     0.102 A 
ATOM      6  N   UNL d   1      55.210  -0.165  33.801  0.00  0.00    -0.227 N 
ATOM      7  C   UNL d   1      56.208   0.668  33.099  0.00  0.00     0.022 C 
ATOM      8  N   UNL d   1      54.981  -0.972  33.774  0.00  0.00    -0.164 NA
ATOM      9  C   UNL d   1      55.459  -1.352  33.200  0.00  0.00     0.120 A 
ATOM     10  C   UNL d   1      55.437  -2.160  32.973  0.00  0.00     0.024 C 
BRANCH   6  11
ATOM     11  C   UNL d   1      54.934   0.489  34.266  0.00  0.00     0.101 C 
BRANCH  11  12
ATOM     12  C   UNL d   1      54.126   0.538  34.472  0.00  0.00     0.019 A 
ATOM     13  C   UNL d   1      53.901   0.632  35.265  0.00  0.00     0.002 A 
ATOM     14  C   UNL d   1      53.095   0.682  35.478  0.00  0.00     0.000 A 
ATOM     15  C   UNL d   1      52.504   0.635  34.874  0.00  0.00     0.000 A 
ATOM     16  C   UNL d   1      52.724   0.542  34.097  0.00  0.00     0.000 A 
ATOM     17  C   UNL d   1      51.689   0.681  35.056  0.00  0.00     0.000 C 
ATOM     18  C   UNL d   1      53.536   0.492  33.881  0.00  0.00     0.002 A 
ENDBRANCH  11  12
ENDBRANCH   6  11
ENDBRANCH   1   4
BRANCH   2  19
ATOM     19  C   UNL d   1      57.873  -0.641  30.683  0.00  0.00     0.168 A 
ATOM     20  N   UNL d   1      58.306  -0.139  30.243  0.00  0.00    -0.121 NA
ATOM     21  O   UNL d   1      58.769  -0.558  29.765  0.00  0.00    -0.211 OA
ATOM     22  C   UNL d   1      58.635  -1.333  29.896  0.00  0.00     0.127 A 
ATOM     23  C   UNL d   1      58.078  -1.388  30.465  0.00  0.00     0.053 A 
BRANCH  22  24
ATOM     24  C   UNL d   1      59.003  -1.912  29.513  0.00  0.00     0.027 A 
ATOM     25  C   UNL d   1      58.830  -2.675  29.680  0.00  0.00     0.028 A 
ATOM     26  C   UNL d   1      59.197  -3.249  29.299  0.00  0.00     0.119 A 
ATOM     27  O   UNL d   1      59.139  -4.039  29.347  0.00  0.00    -0.300 OA
ATOM     28  C   UNL d   1      59.744  -3.095  28.744  0.00  0.00     0.119 A 
ATOM     29  C   UNL d   1      59.643  -4.362  28.830  0.00  0.00     0.304 A 
ATOM     30  O   UNL d   1      60.018  -3.776  28.456  0.00  0.00    -0.300 OA
ATOM     31  C   UNL d   1      59.921  -2.334  28.573  0.00  0.00     0.026 A 
ATOM     32  C   UNL d   1      59.558  -1.754  28.951  0.00  0.00     0.004 A 
ENDBRANCH  22  24
ENDBRANCH   2  19
TORSDOF 5
ENDMDL
