MODEL 1
REMARK VINA RESULT:      -7.6      0.000      0.000
REMARK  7 active torsions:
REMARK  status: ('A' for Active; 'I' for Inactive)
REMARK    1  A    between atoms: C_4  and  S_1 
REMARK    2  A    between atoms: N_6  and  S_1 
REMARK    3  A    between atoms: N_3  and  C_2 
REMARK    4  A    between atoms: C_15  and  N_6 
REMARK    5  A    between atoms: C_16  and  N_6 
REMARK    6  A    between atoms: C_18  and  C_15 
REMARK    7  A    between atoms: C_17  and  C_16 
ROOT
ATOM      1  C   UNL d   1      52.993  30.898  53.170  0.00  0.00     0.138 A 
ATOM      2  C   UNL d   1      52.997  32.307  53.410  0.00  0.00     0.106 A 
ATOM      3  C   UNL d   1      52.627  31.635  53.107  0.00  0.00     0.037 A 
ATOM      4  C   UNL d   1      53.728  30.833  53.536  0.00  0.00     0.080 A 
ATOM      5  C   UNL d   1      53.734  32.242  53.777  0.00  0.00     0.014 A 
ATOM      6  C   UNL d   1      54.100  31.505  53.840  0.00  0.00     0.014 A 
ATOM      7 CL   UNL d   1      54.093  30.096  53.599  0.00  0.00    -0.081 Cl
ENDROOT
BRANCH   2   8
ATOM      8  S   UNL d   1      52.631  33.043  53.346  0.00  0.00     0.271 S 
ATOM      9  O   UNL d   1      52.333  32.961  54.111  0.00  0.00    -0.200 OA
ATOM     10  O   UNL d   1      52.929  33.126  52.582  0.00  0.00    -0.200 OA
BRANCH   8  11
ATOM     11  N   UNL d   1      52.265  33.780  53.283  0.00  0.00    -0.229 N 
BRANCH  11  12
ATOM     12  C   UNL d   1      51.754  33.934  52.653  0.00  0.00     0.092 C 
BRANCH  12  13
ATOM     13  C   UNL d   1      50.975  34.165  52.802  0.00  0.00     0.020 C 
ATOM     14  C   UNL d   1      50.446  34.270  52.177  0.00  0.00     0.002 C 
ENDBRANCH  12  13
ENDBRANCH  11  12
BRANCH  11  15
ATOM     15  C   UNL d   1      52.411  34.362  53.848  0.00  0.00     0.092 C 
BRANCH  15  16
ATOM     16  C   UNL d   1      52.817  35.050  53.637  0.00  0.00     0.020 C 
ATOM     17  C   UNL d   1      53.027  35.604  54.222  0.00  0.00     0.002 C 
ENDBRANCH  15  16
ENDBRANCH  11  15
ENDBRANCH   8  11
ENDBRANCH   2   8
BRANCH   1  18
ATOM     18  N   UNL d   1      52.617  30.224  52.864  0.00  0.00    -0.113 N 
ATOM     19  O   UNL d   1      52.087  29.799  53.328  0.00  0.00    -0.532 OA
ATOM     20  O   UNL d   1      52.777  29.982  52.092  0.00  0.00    -0.532 OA
ENDBRANCH   1  18
TORSDOF 7
ENDMDL
MODEL 2
REMARK VINA RESULT:      -7.5      1.462      2.291
REMARK  7 active torsions:
REMARK  status: ('A' for Active; 'I' for Inactive)
REMARK    1  A    between atoms: C_4  and  S_1 
REMARK    2  A    between atoms: N_6  and  S_1 
REMARK    3  A    between atoms: N_3  and  C_2 
REMARK    4  A    between atoms: C_15  and  N_6 
REMARK    5  A    between atoms: C_16  and  N_6 
REMARK    6  A    between atoms: C_18  and  C_15 
REMARK    7  A    between atoms: C_17  and  C_16 
ROOT
ATOM      1  C   UNL d   1      53.292  30.367  53.684  0.00  0.00     0.138 A 
ATOM      2  C   UNL d   1      53.284  31.790  53.567  0.00  0.00     0.106 A 
ATOM      3  C   UNL d   1      53.519  31.108  53.966  0.00  0.00     0.037 A 
ATOM      4  C   UNL d   1      52.831  30.307  53.005  0.00  0.00     0.080 A 
ATOM      5  C   UNL d   1      52.821  31.731  52.885  0.00  0.00     0.014 A 
ATOM      6  C   UNL d   1      52.595  30.990  52.604  0.00  0.00     0.014 A 
ATOM      7 CL   UNL d   1      52.604  29.565  52.723  0.00  0.00    -0.081 Cl
ENDROOT
BRANCH   2   8
ATOM      8  S   UNL d   1      53.511  32.532  53.849  0.00  0.00     0.271 S 
ATOM      9  O   UNL d   1      54.099  32.571  53.272  0.00  0.00    -0.200 OA
ATOM     10  O   UNL d   1      52.923  32.493  54.426  0.00  0.00    -0.200 OA
BRANCH   8  11
ATOM     11  N   UNL d   1      53.738  33.274  54.130  0.00  0.00    -0.229 N 
BRANCH  11  12
ATOM     12  C   UNL d   1      54.526  33.415  54.331  0.00  0.00     0.092 C 
BRANCH  12  13
ATOM     13  C   UNL d   1      54.722  33.636  55.102  0.00  0.00     0.020 C 
ATOM     14  C   UNL d   1      55.506  33.801  55.302  0.00  0.00     0.002 C 
ENDBRANCH  12  13
ENDBRANCH  11  12
BRANCH  11  15
ATOM     15  C   UNL d   1      53.178  33.872  54.211  0.00  0.00     0.092 C 
BRANCH  15  16
ATOM     16  C   UNL d   1      53.251  34.568  53.771  0.00  0.00     0.020 C 
ATOM     17  C   UNL d   1      52.678  35.167  53.843  0.00  0.00     0.002 C 
ENDBRANCH  15  16
ENDBRANCH  11  15
ENDBRANCH   8  11
ENDBRANCH   2   8
BRANCH   1  18
ATOM     18  N   UNL d   1      53.531  29.682  54.089  0.00  0.00    -0.113 N 
ATOM     19  O   UNL d   1      53.025  29.322  54.629  0.00  0.00    -0.532 OA
ATOM     20  O   UNL d   1      54.278  29.363  53.948  0.00  0.00    -0.532 OA
ENDBRANCH   1  18
TORSDOF 7
ENDMDL
MODEL 3
REMARK VINA RESULT:      -6.0      2.047      3.492
REMARK  7 active torsions:
REMARK  status: ('A' for Active; 'I' for Inactive)
REMARK    1  A    between atoms: C_4  and  S_1 
REMARK    2  A    between atoms: N_6  and  S_1 
REMARK    3  A    between atoms: N_3  and  C_2 
REMARK    4  A    between atoms: C_15  and  N_6 
REMARK    5  A    between atoms: C_16  and  N_6 
REMARK    6  A    between atoms: C_18  and  C_15 
REMARK    7  A    between atoms: C_17  and  C_16 
ROOT
ATOM      1  C   UNL d   1      51.115  33.835  52.904  0.00  0.00     0.138 A 
ATOM      2  C   UNL d   1      52.478  33.467  53.117  0.00  0.00     0.106 A 
ATOM      3  C   UNL d   1      51.686  33.430  53.340  0.00  0.00     0.037 A 
ATOM      4  C   UNL d   1      51.336  34.278  52.245  0.00  0.00     0.080 A 
ATOM      5  C   UNL d   1      52.701  33.911  52.457  0.00  0.00     0.014 A 
ATOM      6  C   UNL d   1      52.130  34.316  52.021  0.00  0.00     0.014 A 
ATOM      7 CL   UNL d   1      50.765  34.683  51.809  0.00  0.00    -0.081 Cl
ENDROOT
BRANCH   2   8
ATOM      8  S   UNL d   1      53.050  33.062  53.553  0.00  0.00     0.271 S 
ATOM      9  O   UNL d   1      53.371  32.763  52.855  0.00  0.00    -0.200 OA
ATOM     10  O   UNL d   1      52.728  33.360  54.252  0.00  0.00    -0.200 OA
BRANCH   8  11
ATOM     11  N   UNL d   1      53.621  32.657  53.989  0.00  0.00    -0.229 N 
BRANCH  11  12
ATOM     12  C   UNL d   1      53.855  31.899  53.758  0.00  0.00     0.092 C 
BRANCH  12  13
ATOM     13  C   UNL d   1      53.615  31.242  54.196  0.00  0.00     0.020 C 
ATOM     14  C   UNL d   1      53.720  30.480  53.895  0.00  0.00     0.002 C 
ENDBRANCH  12  13
ENDBRANCH  11  12
BRANCH  11  15
ATOM     15  C   UNL d   1      53.957  33.007  54.655  0.00  0.00     0.092 C 
BRANCH  15  16
ATOM     16  C   UNL d   1      54.762  33.192  54.662  0.00  0.00     0.020 C 
ATOM     17  C   UNL d   1      55.081  33.636  55.290  0.00  0.00     0.002 C 
ENDBRANCH  15  16
ENDBRANCH  11  15
ENDBRANCH   8  11
ENDBRANCH   2   8
BRANCH   1  18
ATOM     18  N   UNL d   1      50.317  33.795  53.132  0.00  0.00    -0.113 N 
ATOM     19  O   UNL d   1      49.918  34.477  53.361  0.00  0.00    -0.532 OA
ATOM     20  O   UNL d   1      49.926  33.069  53.128  0.00  0.00    -0.532 OA
ENDBRANCH   1  18
TORSDOF 7
ENDMDL
MODEL 4
REMARK VINA RESULT:      -6.0      2.050      3.718
REMARK  7 active torsions:
REMARK  status: ('A' for Active; 'I' for Inactive)
REMARK    1  A    between atoms: C_4  and  S_1 
REMARK    2  A    between atoms: N_6  and  S_1 
REMARK    3  A    between atoms: N_3  and  C_2 
REMARK    4  A    between atoms: C_15  and  N_6 
REMARK    5  A    between atoms: C_16  and  N_6 
REMARK    6  A    between atoms: C_18  and  C_15 
REMARK    7  A    between atoms: C_17  and  C_16 
ROOT
ATOM      1  C   UNL d   1      51.122  33.838  52.899  0.00  0.00     0.138 A 
ATOM      2  C   UNL d   1      52.486  33.476  53.121  0.00  0.00     0.106 A 
ATOM      3  C   UNL d   1      51.692  33.435  53.339  0.00  0.00     0.037 A 
ATOM      4  C   UNL d   1      51.345  34.281  52.242  0.00  0.00     0.080 A 
ATOM      5  C   UNL d   1      52.710  33.921  52.462  0.00  0.00     0.014 A 
ATOM      6  C   UNL d   1      52.140  34.323  52.022  0.00  0.00     0.014 A 
ATOM      7 CL   UNL d   1      50.774  34.683  51.803  0.00  0.00    -0.081 Cl
ENDROOT
BRANCH   2   8
ATOM      8  S   UNL d   1      53.056  33.074  53.561  0.00  0.00     0.271 S 
ATOM      9  O   UNL d   1      53.383  32.776  52.864  0.00  0.00    -0.200 OA
ATOM     10  O   UNL d   1      52.730  33.372  54.257  0.00  0.00    -0.200 OA
BRANCH   8  11
ATOM     11  N   UNL d   1      53.627  32.671  54.000  0.00  0.00    -0.229 N 
BRANCH  11  12
ATOM     12  C   UNL d   1      53.957  33.026  54.669  0.00  0.00     0.092 C 
BRANCH  12  13
ATOM     13  C   UNL d   1      54.762  33.210  54.683  0.00  0.00     0.020 C 
ATOM     14  C   UNL d   1      55.079  33.646  55.308  0.00  0.00     0.002 C 
ENDBRANCH  12  13
ENDBRANCH  11  12
BRANCH  11  15
ATOM     15  C   UNL d   1      53.866  31.917  53.773  0.00  0.00     0.092 C 
BRANCH  15  16
ATOM     16  C   UNL d   1      53.628  31.258  54.209  0.00  0.00     0.020 C 
ATOM     17  C   UNL d   1      53.738  30.493  53.901  0.00  0.00     0.002 C 
ENDBRANCH  15  16
ENDBRANCH  11  15
ENDBRANCH   8  11
ENDBRANCH   2   8
BRANCH   1  18
ATOM     18  N   UNL d   1      50.323  33.794  53.123  0.00  0.00    -0.113 N 
ATOM     19  O   UNL d   1      49.918  34.474  53.348  0.00  0.00    -0.532 OA
ATOM     20  O   UNL d   1      49.936  33.065  53.117  0.00  0.00    -0.532 OA
ENDBRANCH   1  18
TORSDOF 7
ENDMDL
MODEL 5
REMARK VINA RESULT:      -5.9      1.996      3.484
REMARK  7 active torsions:
REMARK  status: ('A' for Active; 'I' for Inactive)
REMARK    1  A    between atoms: C_4  and  S_1 
REMARK    2  A    between atoms: N_6  and  S_1 
REMARK    3  A    between atoms: N_3  and  C_2 
REMARK    4  A    between atoms: C_15  and  N_6 
REMARK    5  A    between atoms: C_16  and  N_6 
REMARK    6  A    between atoms: C_18  and  C_15 
REMARK    7  A    between atoms: C_17  and  C_16 
ROOT
ATOM      1  C   UNL d   1      54.541  33.647  54.910  0.00  0.00     0.138 A 
ATOM      2  C   UNL d   1      54.011  32.780  53.906  0.00  0.00     0.106 A 
ATOM      3  C   UNL d   1      53.913  33.211  54.602  0.00  0.00     0.037 A 
ATOM      4  C   UNL d   1      55.268  33.653  54.523  0.00  0.00     0.080 A 
ATOM      5  C   UNL d   1      54.741  32.785  53.518  0.00  0.00     0.014 A 
ATOM      6  C   UNL d   1      55.369  33.222  53.826  0.00  0.00     0.014 A 
ATOM      7 CL   UNL d   1      55.896  34.090  54.832  0.00  0.00    -0.081 Cl
ENDROOT
BRANCH   2   8
ATOM      8  S   UNL d   1      53.383  32.343  53.598  0.00  0.00     0.271 S 
ATOM      9  O   UNL d   1      53.413  32.789  52.904  0.00  0.00    -0.200 OA
ATOM     10  O   UNL d   1      53.353  31.897  54.291  0.00  0.00    -0.200 OA
BRANCH   8  11
ATOM     11  N   UNL d   1      52.755  31.906  53.289  0.00  0.00    -0.229 N 
BRANCH  11  12
ATOM     12  C   UNL d   1      52.153  32.288  52.872  0.00  0.00     0.092 C 
BRANCH  12  13
ATOM     13  C   UNL d   1      51.411  32.390  53.219  0.00  0.00     0.020 C 
ATOM     14  C   UNL d   1      50.866  32.915  52.890  0.00  0.00     0.002 C 
ENDBRANCH  12  13
ENDBRANCH  11  12
BRANCH  11  15
ATOM     15  C   UNL d   1      52.728  31.090  53.398  0.00  0.00     0.092 C 
BRANCH  15  16
ATOM     16  C   UNL d   1      52.762  30.585  52.745  0.00  0.00     0.020 C 
ATOM     17  C   UNL d   1      52.778  29.761  52.858  0.00  0.00     0.002 C 
ENDBRANCH  15  16
ENDBRANCH  11  15
ENDBRANCH   8  11
ENDBRANCH   2   8
BRANCH   1  18
ATOM     18  N   UNL d   1      54.437  34.080  55.611  0.00  0.00    -0.113 N 
ATOM     19  O   UNL d   1      54.879  33.897  56.280  0.00  0.00    -0.532 OA
ATOM     20  O   UNL d   1      53.888  34.696  55.635  0.00  0.00    -0.532 OA
ENDBRANCH   1  18
TORSDOF 7
ENDMDL
