MODEL 1
REMARK VINA RESULT:       8.5      0.000      0.000
REMARK  5 active torsions:
REMARK  status: ('A' for Active; 'I' for Inactive)
REMARK    1  A    between atoms: C_2  and  N_1 
REMARK    2  A    between atoms: O_4  and  N_1 
REMARK    3  A    between atoms: C_8  and  C_2 
REMARK    4  A    between atoms: C_3  and  O_4 
REMARK    5  A    between atoms: C_5  and  C_3 
ROOT
ATOM      1  O   UNL d   1      45.990 -16.610  43.964  0.00  0.00    -0.168 OA
ENDROOT
BRANCH   1   2
ATOM      2  C   UNL d   1      45.443 -16.103  44.490  0.00  0.00     0.319 C 
ATOM      3  O   UNL d   1      44.774 -16.484  44.954  0.00  0.00    -0.257 OA
BRANCH   2   4
ATOM      4  C   UNL d   1      45.562 -15.283  44.543  0.00  0.00     0.065 A 
ATOM      5  C   UNL d   1      46.318 -14.976  44.639  0.00  0.00     0.006 A 
ATOM      6  C   UNL d   1      46.424 -14.177  44.689  0.00  0.00     0.007 A 
ATOM      7  C   UNL d   1      45.792 -13.648  44.647  0.00  0.00     0.035 A 
ATOM      8  C   UNL d   1      45.034 -13.957  44.550  0.00  0.00     0.007 A 
ATOM      9 BR   UNL d   1      45.903 -12.831  44.699  0.00  0.00    -0.049 Br
ATOM     10  C   UNL d   1      44.903 -14.777  44.496  0.00  0.00     0.006 A 
ENDBRANCH   2   4
ENDBRANCH   1   2
BRANCH   1  11
ATOM     11  N   UNL d   1      46.102 -17.404  44.114  0.00  0.00    -0.102 NA
BRANCH  11  12
ATOM     12  C   UNL d   1      46.295 -17.930  43.514  0.00  0.00     0.210 C 
ATOM     13  N   UNL d   1      46.405 -17.644  42.748  0.00  0.00    -0.125 N 
BRANCH  12  14
ATOM     14  C   UNL d   1      46.381 -18.732  43.657  0.00  0.00     0.043 A 
ATOM     15  C   UNL d   1      46.298 -19.282  43.060  0.00  0.00     0.024 A 
ATOM     16  C   UNL d   1      46.384 -20.086  43.203  0.00  0.00     0.099 A 
ATOM     17  N   UNL d   1      46.560 -20.330  43.974  0.00  0.00    -0.242 NA
ATOM     18  C   UNL d   1      46.647 -19.793  44.585  0.00  0.00     0.099 A 
ATOM     19  C   UNL d   1      46.556 -18.989  44.423  0.00  0.00     0.024 A 
ENDBRANCH  12  14
ENDBRANCH  11  12
ENDBRANCH   1  11
TORSDOF 5
ENDMDL
