MODEL 1
REMARK VINA RESULT:      46.6      0.000      0.000
REMARK  7 active torsions:
REMARK  status: ('A' for Active; 'I' for Inactive)
REMARK    1  A    between atoms: S_10  and  C_4 
REMARK    2  A    between atoms: C_19  and  C_9 
REMARK    3  A    between atoms: C_13  and  S_10 
REMARK    4  A    between atoms: C_11  and  C_13 
REMARK       I    between atoms: N_14  and  C_11 
REMARK    5  A    between atoms: C_16  and  N_14 
REMARK    6  A    between atoms: C_20  and  C_16 
REMARK    7  A    between atoms: C_18  and  C_20 
ROOT
ATOM      1  C   UNL d   1      13.753  13.388  -2.902  0.00  0.00     0.141 A 
ATOM      2  C   UNL d   1      13.824  12.577  -2.769  0.00  0.00     0.110 A 
ATOM      3  O   UNL d   1      14.077  13.782  -2.252  0.00  0.00    -0.303 OA
ATOM      4  C   UNL d   1      13.403  13.664  -3.596  0.00  0.00     0.137 A 
ATOM      5  N   UNL d   1      13.123  13.128  -4.158  0.00  0.00    -0.218 NA
ATOM      6  C   UNL d   1      14.191  12.470  -2.038  0.00  0.00     0.043 A 
ATOM      7  N   UNL d   1      13.544  12.042  -3.331  0.00  0.00    -0.225 NA
ATOM      8  C   UNL d   1      14.347  13.214  -1.719  0.00  0.00     0.102 A 
ATOM      9  C   UNL d   1      13.194  12.318  -4.025  0.00  0.00     0.163 A 
ATOM     10  C   UNL d   1      14.404  11.789  -1.622  0.00  0.00     0.004 A 
ATOM     11  C   UNL d   1      14.716  13.279  -0.984  0.00  0.00     0.025 A 
ATOM     12  C   UNL d   1      14.773  11.854  -0.886  0.00  0.00     0.000 A 
ATOM     13  C   UNL d   1      14.929  12.598  -0.567  0.00  0.00     0.002 A 
ENDROOT
BRANCH   4  14
ATOM     14  S   UNL d   1      13.332  14.476  -3.728  0.00  0.00    -0.060 SA
BRANCH  14  15
ATOM     15  C   UNL d   1      13.750  14.830  -4.344  0.00  0.00     0.099 C 
BRANCH  15  16
ATOM     16  C   UNL d   1      13.733  15.651  -4.433  0.00  0.00     0.286 C 
ATOM     17  O   UNL d   1      13.494  16.129  -3.803  0.00  0.00    -0.265 OA
ATOM     18  N   UNL d   1      13.953  15.993  -5.150  0.00  0.00    -0.206 NA
BRANCH  18  19
ATOM     19  C   UNL d   1      13.936  16.813  -5.239  0.00  0.00     0.102 C 
BRANCH  19  20
ATOM     20  C   UNL d   1      14.032  17.150  -5.985  0.00  0.00     0.021 C 
BRANCH  20  21
ATOM     21  C   UNL d   1      13.923  17.961  -6.090  0.00  0.00     0.002 A 
ATOM     22  C   UNL d   1      14.561  18.479  -6.001  0.00  0.00     0.000 A 
ATOM     23  C   UNL d   1      14.453  19.289  -6.105  0.00  0.00     0.000 A 
ATOM     24  C   UNL d   1      13.708  19.584  -6.299  0.00  0.00     0.000 A 
ATOM     25  C   UNL d   1      13.070  19.069  -6.389  0.00  0.00     0.000 A 
ATOM     26  C   UNL d   1      13.178  18.256  -6.284  0.00  0.00     0.000 A 
ENDBRANCH  20  21
ENDBRANCH  19  20
ENDBRANCH  18  19
ENDBRANCH  15  16
ENDBRANCH  14  15
ENDBRANCH   4  14
BRANCH   9  27
ATOM     27  C   UNL d   1      12.915  11.781  -4.587  0.00  0.00     0.039 C 
ATOM     28  C   UNL d   1      13.220  11.791  -5.354  0.00  0.00     0.003 C 
ENDBRANCH   9  27
TORSDOF 7
ENDMDL
