MODEL 1
REMARK VINA RESULT:      -3.3      0.000      0.000
REMARK  5 active torsions:
REMARK  status: ('A' for Active; 'I' for Inactive)
REMARK    1  A    between atoms: S_2  and  C_12 
REMARK    2  A    between atoms: N_7  and  S_2 
REMARK    3  A    between atoms: C_5  and  N_7 
REMARK    4  A    between atoms: O_26  and  C_22 
REMARK    5  A    between atoms: C_27  and  O_26 
ROOT
ATOM      1  S   UNL d   1      33.217  18.831 -23.098  0.00  0.00     0.287 S 
ATOM      2  O   UNL d   1      33.240  18.327 -22.437  0.00  0.00    -0.198 OA
ATOM      3  O   UNL d   1      33.192  19.342 -23.763  0.00  0.00    -0.198 OA
ENDROOT
BRANCH   1   4
ATOM      4  C   UNL d   1      33.214  19.496 -22.590  0.00  0.00     0.107 A 
ATOM      5  C   UNL d   1      33.223  20.261 -22.907  0.00  0.00     0.032 A 
ATOM      6  C   UNL d   1      33.220  20.914 -22.408  0.00  0.00     0.085 A 
ATOM      7  N   UNL d   1      33.228  21.726 -22.555  0.00  0.00    -0.256 N 
ATOM      8  C   UNL d   1      33.208  20.809 -21.585  0.00  0.00     0.085 A 
ATOM      9  C   UNL d   1      33.220  22.115 -21.824  0.00  0.00     0.339 A 
ATOM     10  C   UNL d   1      33.241  22.088 -23.291  0.00  0.00     0.104 C 
ATOM     11  N   UNL d   1      33.208  21.558 -21.234  0.00  0.00    -0.256 N 
ATOM     12  O   UNL d   1      33.224  22.935 -21.705  0.00  0.00    -0.245 OA
ATOM     13  C   UNL d   1      33.197  21.708 -20.427  0.00  0.00     0.104 C 
ATOM     14  C   UNL d   1      33.198  20.041 -21.276  0.00  0.00     0.020 A 
ATOM     15  C   UNL d   1      33.201  19.388 -21.776  0.00  0.00     0.015 A 
ENDBRANCH   1   4
BRANCH   1  16
ATOM     16  N   UNL d   1      33.219  18.174 -23.609  0.00  0.00    -0.132 NA
BRANCH  16  17
ATOM     17  C   UNL d   1      32.533  17.732 -23.724  0.00  0.00     0.206 A 
ATOM     18  N   UNL d   1      32.487  16.958 -23.450  0.00  0.00    -0.220 NA
ATOM     19  C   UNL d   1      31.736  16.663 -23.646  0.00  0.00     0.090 A 
ATOM     20  C   UNL d   1      31.372  15.935 -23.520  0.00  0.00     0.022 A 
ATOM     21  C   UNL d   1      31.329  17.266 -24.040  0.00  0.00     0.052 A 
ATOM     22  C   UNL d   1      30.611  15.806 -23.783  0.00  0.00     0.026 A 
ATOM     23  C   UNL d   1      30.199  16.401 -24.176  0.00  0.00     0.101 A 
ATOM     24  C   UNL d   1      30.561  17.133 -24.304  0.00  0.00     0.033 A 
ATOM     25  S   UNL d   1      31.803  17.920 -24.093  0.00  0.00    -0.046 SA
BRANCH  23  26
ATOM     26  O   UNL d   1      29.427  16.275 -24.445  0.00  0.00    -0.305 OA
BRANCH  26  27
ATOM     27  C   UNL d   1      28.802  16.281 -23.896  0.00  0.00     0.123 C 
ATOM     28  C   UNL d   1      28.097  15.890 -24.070  0.00  0.00     0.029 C 
ENDBRANCH  26  27
ENDBRANCH  23  26
ENDBRANCH  16  17
ENDBRANCH   1  16
TORSDOF 5
ENDMDL
MODEL 2
REMARK VINA RESULT:      -2.5      1.269      5.560
REMARK  5 active torsions:
REMARK  status: ('A' for Active; 'I' for Inactive)
REMARK    1  A    between atoms: S_2  and  C_12 
REMARK    2  A    between atoms: N_7  and  S_2 
REMARK    3  A    between atoms: C_5  and  N_7 
REMARK    4  A    between atoms: O_26  and  C_22 
REMARK    5  A    between atoms: C_27  and  O_26 
ROOT
ATOM      1  S   UNL d   1      32.132  17.694 -23.804  0.00  0.00     0.287 S 
ATOM      2  O   UNL d   1      31.894  17.731 -23.008  0.00  0.00    -0.198 OA
ATOM      3  O   UNL d   1      32.368  17.655 -24.609  0.00  0.00    -0.198 OA
ENDROOT
BRANCH   1   4
ATOM      4  C   UNL d   1      31.383  17.384 -24.012  0.00  0.00     0.107 A 
ATOM      5  C   UNL d   1      30.995  16.858 -23.504  0.00  0.00     0.032 A 
ATOM      6  C   UNL d   1      30.260  16.554 -23.708  0.00  0.00     0.085 A 
ATOM      7  N   UNL d   1      29.749  16.031 -23.325  0.00  0.00    -0.256 N 
ATOM      8  C   UNL d   1      29.904  16.772 -24.425  0.00  0.00     0.085 A 
ATOM      9  C   UNL d   1      29.083  15.931 -23.807  0.00  0.00     0.339 A 
ATOM     10  C   UNL d   1      29.873  15.672 -22.598  0.00  0.00     0.104 C 
ATOM     11  N   UNL d   1      29.176  16.381 -24.475  0.00  0.00    -0.256 N 
ATOM     12  O   UNL d   1      28.426  15.453 -23.642  0.00  0.00    -0.245 OA
ATOM     13  C   UNL d   1      28.643  16.441 -25.097  0.00  0.00     0.104 C 
ATOM     14  C   UNL d   1      30.297  17.299 -24.928  0.00  0.00     0.020 A 
ATOM     15  C   UNL d   1      31.033  17.603 -24.723  0.00  0.00     0.015 A 
ENDBRANCH   1   4
BRANCH   1  16
ATOM     16  N   UNL d   1      32.879  18.002 -23.605  0.00  0.00    -0.132 NA
BRANCH  16  17
ATOM     17  C   UNL d   1      32.940  18.717 -23.199  0.00  0.00     0.206 A 
ATOM     18  N   UNL d   1      33.084  19.416 -23.607  0.00  0.00    -0.220 NA
ATOM     19  C   UNL d   1      33.115  20.033 -23.053  0.00  0.00     0.090 A 
ATOM     20  C   UNL d   1      33.241  20.844 -23.126  0.00  0.00     0.022 A 
ATOM     21  C   UNL d   1      32.988  19.701 -22.306  0.00  0.00     0.052 A 
ATOM     22  C   UNL d   1      33.240  21.320 -22.464  0.00  0.00     0.026 A 
ATOM     23  C   UNL d   1      33.114  20.998 -21.717  0.00  0.00     0.101 A 
ATOM     24  C   UNL d   1      32.988  20.184 -21.640  0.00  0.00     0.033 A 
ATOM     25  S   UNL d   1      32.880  18.902 -22.382  0.00  0.00    -0.046 SA
BRANCH  23  26
ATOM     26  O   UNL d   1      33.112  21.476 -21.043  0.00  0.00    -0.305 OA
BRANCH  26  27
ATOM     27  C   UNL d   1      32.674  22.183 -21.051  0.00  0.00     0.123 C 
ATOM     28  C   UNL d   1      32.737  22.714 -20.423  0.00  0.00     0.029 C 
ENDBRANCH  26  27
ENDBRANCH  23  26
ENDBRANCH  16  17
ENDBRANCH   1  16
TORSDOF 5
ENDMDL
MODEL 3
REMARK VINA RESULT:      -0.8      2.023      5.972
REMARK  5 active torsions:
REMARK  status: ('A' for Active; 'I' for Inactive)
REMARK    1  A    between atoms: S_2  and  C_12 
REMARK    2  A    between atoms: N_7  and  S_2 
REMARK    3  A    between atoms: C_5  and  N_7 
REMARK    4  A    between atoms: O_26  and  C_22 
REMARK    5  A    between atoms: C_27  and  O_26 
ROOT
ATOM      1  S   UNL d   1      32.480  20.823 -22.284  0.00  0.00     0.287 S 
ATOM      2  O   UNL d   1      31.727  20.666 -21.967  0.00  0.00    -0.198 OA
ATOM      3  O   UNL d   1      33.240  20.977 -22.605  0.00  0.00    -0.198 OA
ENDROOT
BRANCH   1   4
ATOM      4  C   UNL d   1      32.604  20.003 -22.393  0.00  0.00     0.107 A 
ATOM      5  C   UNL d   1      32.320  19.626 -23.074  0.00  0.00     0.032 A 
ATOM      6  C   UNL d   1      32.442  18.821 -23.180  0.00  0.00     0.085 A 
ATOM      7  N   UNL d   1      32.230  18.302 -23.787  0.00  0.00    -0.256 N 
ATOM      8  C   UNL d   1      32.850  18.382 -22.607  0.00  0.00     0.085 A 
ATOM      9  C   UNL d   1      32.508  17.549 -23.583  0.00  0.00     0.339 A 
ATOM     10  C   UNL d   1      31.819  18.492 -24.470  0.00  0.00     0.104 C 
ATOM     11  N   UNL d   1      32.885  17.597 -22.866  0.00  0.00    -0.256 N 
ATOM     12  O   UNL d   1      32.421  16.857 -24.030  0.00  0.00    -0.245 OA
ATOM     13  C   UNL d   1      33.241  16.976 -22.463  0.00  0.00     0.104 C 
ATOM     14  C   UNL d   1      33.131  18.765 -21.929  0.00  0.00     0.020 A 
ATOM     15  C   UNL d   1      33.009  19.572 -21.822  0.00  0.00     0.015 A 
ENDBRANCH   1   4
BRANCH   1  16
ATOM     16  N   UNL d   1      32.363  21.640 -22.179  0.00  0.00    -0.132 NA
BRANCH  16  17
ATOM     17  C   UNL d   1      32.521  21.993 -21.451  0.00  0.00     0.206 A 
ATOM     18  N   UNL d   1      32.831  22.754 -21.416  0.00  0.00    -0.220 NA
ATOM     19  C   UNL d   1      32.928  22.954 -20.617  0.00  0.00     0.090 A 
ATOM     20  C   UNL d   1      33.210  23.630 -20.240  0.00  0.00     0.022 A 
ATOM     21  C   UNL d   1      32.674  22.307 -20.168  0.00  0.00     0.052 A 
ATOM     22  C   UNL d   1      33.239  23.663 -19.426  0.00  0.00     0.026 A 
ATOM     23  C   UNL d   1      32.989  23.024 -18.972  0.00  0.00     0.101 A 
ATOM     24  C   UNL d   1      32.705  22.343 -19.347  0.00  0.00     0.033 A 
ATOM     25  S   UNL d   1      32.425  21.717 -20.664  0.00  0.00    -0.046 SA
BRANCH  23  26
ATOM     26  O   UNL d   1      33.017  23.053 -18.146  0.00  0.00    -0.305 OA
BRANCH  26  27
ATOM     27  C   UNL d   1      32.549  23.610 -17.745  0.00  0.00     0.123 C 
ATOM     28  C   UNL d   1      32.353  23.491 -16.952  0.00  0.00     0.029 C 
ENDBRANCH  26  27
ENDBRANCH  23  26
ENDBRANCH  16  17
ENDBRANCH   1  16
TORSDOF 5
ENDMDL
