MODEL 1
REMARK VINA RESULT:      22.0      0.000      0.000
REMARK  1 active torsions:
REMARK  status: ('A' for Active; 'I' for Inactive)
REMARK    1  A    between atoms: C_12  and  C_8 
ROOT
ATOM      1  N   UNL d   1      59.708  49.695  51.206  0.00  0.00    -0.123 N 
ATOM      2  N   UNL d   1      60.992  49.702  50.595  0.00  0.00    -0.180 NA
ATOM      3  C   UNL d   1      60.182  49.698  50.530  0.00  0.00     0.217 A 
ATOM      4  N   UNL d   1      60.059  49.695  51.955  0.00  0.00    -0.141 NA
ATOM      5  N   UNL d   1      58.890  49.691  51.154  0.00  0.00    -0.146 NA
ATOM      6  C   UNL d   1      61.347  49.702  51.329  0.00  0.00     0.300 A 
ATOM      7  C   UNL d   1      60.880  49.699  52.009  0.00  0.00     0.161 A 
ATOM      8  C   UNL d   1      58.533  49.691  50.400  0.00  0.00     0.110 A 
ATOM      9  S   UNL d   1      59.824  49.698  49.793  0.00  0.00    -0.045 SA
ATOM     10  C   UNL d   1      59.000  49.694  49.719  0.00  0.00     0.059 A 
ATOM     11  O   UNL d   1      62.171  49.706  51.393  0.00  0.00    -0.263 OA
ATOM     12  C   UNL d   1      61.238  49.699  52.754  0.00  0.00     0.028 C 
ENDROOT
BRANCH   8  13
ATOM     13  C   UNL d   1      57.713  49.687  50.337  0.00  0.00     0.020 A 
ATOM     14  C   UNL d   1      57.361  49.679  49.590  0.00  0.00     0.002 A 
ATOM     15  C   UNL d   1      56.536  49.675  49.525  0.00  0.00     0.000 A 
ATOM     16  C   UNL d   1      56.069  49.679  50.205  0.00  0.00     0.000 A 
ATOM     17  C   UNL d   1      56.428  49.687  50.950  0.00  0.00     0.000 A 
ATOM     18  C   UNL d   1      57.249  49.691  51.014  0.00  0.00     0.002 A 
ENDBRANCH   8  13
TORSDOF 1
ENDMDL
