MODEL 1
REMARK VINA RESULT:      40.3      0.000      0.000
REMARK  4 active torsions:
REMARK  status: ('A' for Active; 'I' for Inactive)
REMARK    1  A    between atoms: C_6  and  C_1 
REMARK    2  A    between atoms: C_8  and  N_3 
REMARK    3  A    between atoms: C_7  and  C_4 
REMARK    4  A    between atoms: O_16  and  C_13 
ROOT
ATOM      1  C   UNL d   1      13.499  12.963  -3.484  0.00  0.00     0.103 A 
ATOM      2  N   UNL d   1      14.067  14.051  -2.753  0.00  0.00    -0.165 NA
ATOM      3  N   UNL d   1      14.028  12.755  -2.173  0.00  0.00    -0.228 N 
ATOM      4  C   UNL d   1      13.704  13.760  -3.428  0.00  0.00     0.109 A 
ATOM      5  C   UNL d   1      13.665  12.463  -2.848  0.00  0.00     0.108 A 
ENDROOT
BRANCH   4   6
ATOM      6  C   UNL d   1      13.542  14.263  -4.056  0.00  0.00     0.020 A 
ATOM      7  C   UNL d   1      13.987  14.212  -4.752  0.00  0.00     0.004 A 
ATOM      8  C   UNL d   1      13.822  14.722  -5.387  0.00  0.00     0.024 A 
ATOM      9  C   UNL d   1      13.217  15.276  -5.322  0.00  0.00     0.094 A 
ATOM     10  C   UNL d   1      12.772  15.327  -4.627  0.00  0.00     0.024 A 
ATOM     11  C   UNL d   1      12.937  14.817  -3.991  0.00  0.00     0.004 A 
BRANCH   9  12
ATOM     12  O   UNL d   1      13.046  15.801  -5.974  0.00  0.00    -0.328 OA
ATOM     13  C   UNL d   1      13.536  16.478  -6.108  0.00  0.00     0.181 C 
ENDBRANCH   9  12
ENDBRANCH   4   6
BRANCH   1  14
ATOM     14  C   UNL d   1      13.136  12.671  -4.160  0.00  0.00     0.214 C 
ATOM     15  O   UNL d   1      12.789  13.184  -4.706  0.00  0.00    -0.644 OA
ATOM     16  O   UNL d   1      13.113  11.825  -4.306  0.00  0.00    -0.644 OA
ENDBRANCH   1  14
BRANCH   3  17
ATOM     17  C   UNL d   1      14.270  12.430  -1.454  0.00  0.00     0.083 A 
ATOM     18  C   UNL d   1      15.071  12.324  -1.298  0.00  0.00     0.019 A 
ATOM     19  C   UNL d   1      15.313  12.000  -0.578  0.00  0.00     0.002 A 
ATOM     20  C   UNL d   1      14.752  11.782  -0.016  0.00  0.00     0.000 A 
ATOM     21  C   UNL d   1      13.952  11.888  -0.172  0.00  0.00     0.002 A 
ATOM     22  C   UNL d   1      13.710  12.212  -0.890  0.00  0.00     0.019 A 
ENDBRANCH   3  17
TORSDOF 4
ENDMDL
