MODEL 1
REMARK VINA RESULT:       2.9      0.000      0.000
REMARK  7 active torsions:
REMARK  status: ('A' for Active; 'I' for Inactive)
REMARK    1  A    between atoms: S_2  and  C_1 
REMARK    2  A    between atoms: C_7  and  S_2 
REMARK    3  A    between atoms: C_9  and  N_3 
REMARK    4  A    between atoms: C_11  and  C_7 
REMARK    5  A    between atoms: C_8  and  C_9 
REMARK       I    between atoms: N_10  and  C_8 
REMARK       I    between atoms: N_15  and  C_11 
REMARK    6  A    between atoms: C_12  and  C_16 
REMARK    7  A    between atoms: C_23  and  N_15 
ROOT
ATOM      1  C   UNL d   1      32.839  18.938 -23.973  0.00  0.00     0.107 A 
ATOM      2  N   UNL d   1      33.096  20.244 -23.975  0.00  0.00    -0.299 N 
ATOM      3  C   UNL d   1      32.940  19.599 -24.462  0.00  0.00     0.092 A 
ATOM      4  C   UNL d   1      32.933  19.181 -23.190  0.00  0.00     0.028 A 
ATOM      5  C   UNL d   1      33.092  19.992 -23.193  0.00  0.00     0.065 A 
ATOM      6  C   UNL d   1      32.894  18.770 -22.479  0.00  0.00     0.002 A 
ATOM      7  C   UNL d   1      33.212  20.385 -22.479  0.00  0.00     0.018 A 
ATOM      8  C   UNL d   1      33.014  19.164 -21.760  0.00  0.00     0.000 A 
ATOM      9  C   UNL d   1      33.173  19.975 -21.767  0.00  0.00     0.002 A 
ENDROOT
BRANCH   1  10
ATOM     10  S   UNL d   1      32.672  18.167 -24.227  0.00  0.00     0.217 S 
ATOM     11  O   UNL d   1      33.222  17.835 -23.719  0.00  0.00    -0.217 OA
ATOM     12  O   UNL d   1      32.114  18.508 -24.741  0.00  0.00    -0.217 OA
BRANCH  10  13
ATOM     13  C   UNL d   1      32.501  17.397 -24.484  0.00  0.00     0.161 C 
BRANCH  13  14
ATOM     14  C   UNL d   1      31.772  17.069 -24.329  0.00  0.00     0.291 C 
ATOM     15  N   UNL d   1      31.091  17.384 -24.671  0.00  0.00    -0.207 NA
ATOM     16  O   UNL d   1      31.712  16.415 -23.824  0.00  0.00    -0.264 OA
BRANCH  15  17
ATOM     17  C   UNL d   1      30.355  17.049 -24.512  0.00  0.00     0.085 A 
ATOM     18  C   UNL d   1      29.934  17.267 -23.833  0.00  0.00     0.019 A 
ATOM     19  C   UNL d   1      29.200  16.938 -23.668  0.00  0.00     0.006 A 
ATOM     20  C   UNL d   1      28.870  16.377 -24.187  0.00  0.00     0.059 A 
ATOM     21  C   UNL d   1      29.280  16.152 -24.868  0.00  0.00     0.006 A 
ATOM     22  C   UNL d   1      30.028  16.488 -25.034  0.00  0.00     0.019 A 
BRANCH  20  23
ATOM     23  C   UNL d   1      28.139  16.043 -24.033  0.00  0.00     0.297 C 
ATOM     24  O   UNL d   1      27.827  15.453 -24.523  0.00  0.00    -0.264 OA
ATOM     25  N   UNL d   1      27.700  16.302 -23.367  0.00  0.00    -0.102 N 
ENDBRANCH  20  23
ENDBRANCH  15  17
ENDBRANCH  13  14
ENDBRANCH  10  13
ENDBRANCH   1  10
BRANCH   2  26
ATOM     26  C   UNL d   1      33.233  21.016 -24.231  0.00  0.00     0.142 C 
BRANCH  26  27
ATOM     27  C   UNL d   1      32.660  21.413 -24.666  0.00  0.00     0.282 C 
ATOM     28  N   UNL d   1      32.653  22.237 -24.683  0.00  0.00    -0.271 N 
ATOM     29  C   UNL d   1      33.178  22.738 -24.298  0.00  0.00     0.083 A 
ATOM     30  C   UNL d   1      32.111  22.711 -25.096  0.00  0.00     0.083 A 
ATOM     31  C   UNL d   1      32.971  23.515 -24.464  0.00  0.00     0.021 A 
ATOM     32  C   UNL d   1      32.311  23.502 -24.958  0.00  0.00     0.021 A 
ATOM     33  O   UNL d   1      32.094  20.987 -25.083  0.00  0.00    -0.265 OA
ENDBRANCH  26  27
ENDBRANCH   2  26
TORSDOF 7
ENDMDL
