MODEL 1
REMARK VINA RESULT:      -2.4      0.000      0.000
REMARK  5 active torsions:
REMARK  status: ('A' for Active; 'I' for Inactive)
REMARK    1  A    between atoms: N_4  and  C_2 
REMARK    2  A    between atoms: S_8  and  C_3 
REMARK    3  A    between atoms: C_10  and  S_8 
REMARK    4  A    between atoms: C_9  and  C_10 
REMARK    5  A    between atoms: C_12  and  C_9 
ROOT
ATOM      1  N   UNL d   1      57.044   0.137  31.671  0.00  0.00    -0.203 NA
ATOM      2  C   UNL d   1      57.056   0.209  32.499  0.00  0.00     0.152 A 
ATOM      3  C   UNL d   1      57.729   0.238  31.248  0.00  0.00     0.196 A 
ATOM      4  C   UNL d   1      57.719   0.374  32.884  0.00  0.00     0.057 A 
ATOM      5  N   UNL d   1      58.425   0.412  31.653  0.00  0.00    -0.221 NA
ATOM      6  C   UNL d   1      58.438   0.484  32.482  0.00  0.00     0.087 A 
ATOM      7  C   UNL d   1      59.124   0.658  32.920  0.00  0.00     0.021 C 
ENDROOT
BRANCH   3   8
ATOM      8  S   UNL d   1      57.754   0.174  30.434  0.00  0.00    -0.045 SA
BRANCH   8   9
ATOM      9  C   UNL d   1      58.412  -0.179  30.083  0.00  0.00     0.080 C 
BRANCH   9  10
ATOM     10  C   UNL d   1      58.447  -0.341  29.262  0.00  0.00     0.202 C 
ATOM     11  O   UNL d   1      57.887  -0.057  28.738  0.00  0.00    -0.286 OA
BRANCH  10  12
ATOM     12  C   UNL d   1      59.081  -0.800  29.031  0.00  0.00     0.040 A 
ATOM     13  C   UNL d   1      58.982  -1.648  29.011  0.00  0.00     0.003 A 
ATOM     14  C   UNL d   1      59.578  -2.117  28.792  0.00  0.00     0.000 A 
ATOM     15  C   UNL d   1      60.309  -1.801  28.577  0.00  0.00     0.000 A 
ATOM     16  C   UNL d   1      60.410  -0.996  28.594  0.00  0.00     0.000 A 
ATOM     17  C   UNL d   1      59.812  -0.485  28.816  0.00  0.00     0.003 A 
ENDBRANCH  10  12
ENDBRANCH   9  10
ENDBRANCH   8   9
ENDBRANCH   3   8
BRANCH   2  18
ATOM     18  N   UNL d   1      56.330   0.099  32.914  0.00  0.00    -0.285 N 
ATOM     19  C   UNL d   1      55.809   0.682  32.975  0.00  0.00     0.108 A 
ATOM     20  C   UNL d   1      55.082   0.590  33.384  0.00  0.00     0.142 A 
ATOM     21  O   UNL d   1      54.944  -0.170  33.726  0.00  0.00    -0.300 OA
ATOM     22  C   UNL d   1      55.490  -0.728  33.643  0.00  0.00     0.142 A 
ATOM     23  C   UNL d   1      56.187  -0.647  33.253  0.00  0.00     0.108 A 
ENDBRANCH   2  18
TORSDOF 5
ENDMDL
MODEL 2
REMARK VINA RESULT:      -1.4      8.829      9.417
REMARK  5 active torsions:
REMARK  status: ('A' for Active; 'I' for Inactive)
REMARK    1  A    between atoms: N_4  and  C_2 
REMARK    2  A    between atoms: S_8  and  C_3 
REMARK    3  A    between atoms: C_10  and  S_8 
REMARK    4  A    between atoms: C_9  and  C_10 
REMARK    5  A    between atoms: C_12  and  C_9 
ROOT
ATOM      1  N   UNL d   1      59.625  -8.487  34.795  0.00  0.00    -0.203 NA
ATOM      2  C   UNL d   1      60.050  -8.138  35.419  0.00  0.00     0.152 A 
ATOM      3  C   UNL d   1      59.673  -9.288  34.676  0.00  0.00     0.196 A 
ATOM      4  C   UNL d   1      60.498  -8.567  35.898  0.00  0.00     0.057 A 
ATOM      5  N   UNL d   1      60.144  -9.739  35.179  0.00  0.00    -0.221 NA
ATOM      6  C   UNL d   1      60.569  -9.390  35.803  0.00  0.00     0.087 A 
ATOM      7  C   UNL d   1      61.053  -9.818  36.329  0.00  0.00     0.021 C 
ENDROOT
BRANCH   3   8
ATOM      8  S   UNL d   1      59.269  -9.665  34.073  0.00  0.00    -0.045 SA
BRANCH   8   9
ATOM      9  C   UNL d   1      59.665  -9.816  33.365  0.00  0.00     0.080 C 
BRANCH   9  10
ATOM     10  C   UNL d   1      59.276  -9.793  32.623  0.00  0.00     0.202 C 
ATOM     11  O   UNL d   1      58.460  -9.779  32.559  0.00  0.00    -0.286 OA
BRANCH  10  12
ATOM     12  C   UNL d   1      59.773  -9.785  31.977  0.00  0.00     0.040 A 
ATOM     13  C   UNL d   1      59.427  -9.768  31.196  0.00  0.00     0.003 A 
ATOM     14  C   UNL d   1      59.884  -9.760  30.554  0.00  0.00     0.000 A 
ATOM     15  C   UNL d   1      60.707  -9.767  30.618  0.00  0.00     0.000 A 
ATOM     16  C   UNL d   1      61.043  -9.784  31.356  0.00  0.00     0.000 A 
ATOM     17  C   UNL d   1      60.596  -9.793  32.041  0.00  0.00     0.003 A 
ENDBRANCH  10  12
ENDBRANCH   9  10
ENDBRANCH   8   9
ENDBRANCH   3   8
BRANCH   2  18
ATOM     18  N   UNL d   1      59.983  -7.303  35.521  0.00  0.00    -0.285 N 
ATOM     19  C   UNL d   1      60.621  -6.855  35.601  0.00  0.00     0.108 A 
ATOM     20  C   UNL d   1      60.574  -6.023  35.704  0.00  0.00     0.142 A 
ATOM     21  O   UNL d   1      59.794  -5.697  35.715  0.00  0.00    -0.300 OA
ATOM     22  C   UNL d   1      59.180  -6.179  35.632  0.00  0.00     0.142 A 
ATOM     23  C   UNL d   1      59.219  -6.975  35.534  0.00  0.00     0.108 A 
ENDBRANCH   2  18
TORSDOF 5
ENDMDL
MODEL 3
REMARK VINA RESULT:      -1.1      1.494      2.360
REMARK  5 active torsions:
REMARK  status: ('A' for Active; 'I' for Inactive)
REMARK    1  A    between atoms: N_4  and  C_2 
REMARK    2  A    between atoms: S_8  and  C_3 
REMARK    3  A    between atoms: C_10  and  S_8 
REMARK    4  A    between atoms: C_9  and  C_10 
REMARK    5  A    between atoms: C_12  and  C_9 
ROOT
ATOM      1  N   UNL d   1      58.538  -0.178  30.703  0.00  0.00    -0.203 NA
ATOM      2  C   UNL d   1      57.764   0.109  30.805  0.00  0.00     0.152 A 
ATOM      3  C   UNL d   1      58.871  -0.180  29.963  0.00  0.00     0.196 A 
ATOM      4  C   UNL d   1      57.345   0.378  30.200  0.00  0.00     0.057 A 
ATOM      5  N   UNL d   1      58.430   0.103  29.326  0.00  0.00    -0.221 NA
ATOM      6  C   UNL d   1      57.656   0.389  29.429  0.00  0.00     0.087 A 
ATOM      7  C   UNL d   1      57.186   0.682  28.807  0.00  0.00     0.021 C 
ENDROOT
BRANCH   3   8
ATOM      8  S   UNL d   1      59.629  -0.454  29.825  0.00  0.00    -0.045 SA
BRANCH   8   9
ATOM      9  C   UNL d   1      59.727  -1.147  29.389  0.00  0.00     0.080 C 
BRANCH   9  10
ATOM     10  C   UNL d   1      60.484  -1.433  29.169  0.00  0.00     0.202 C 
ATOM     11  O   UNL d   1      61.097  -0.930  28.968  0.00  0.00    -0.286 OA
BRANCH  10  12
ATOM     12  C   UNL d   1      60.557  -2.245  29.174  0.00  0.00     0.040 A 
ATOM     13  C   UNL d   1      60.320  -2.679  28.478  0.00  0.00     0.003 A 
ATOM     14  C   UNL d   1      60.379  -3.465  28.455  0.00  0.00     0.000 A 
ATOM     15  C   UNL d   1      60.670  -3.888  29.101  0.00  0.00     0.000 A 
ATOM     16  C   UNL d   1      60.898  -3.483  29.766  0.00  0.00     0.000 A 
ATOM     17  C   UNL d   1      60.848  -2.668  29.820  0.00  0.00     0.003 A 
ENDBRANCH  10  12
ENDBRANCH   9  10
ENDBRANCH   8   9
ENDBRANCH   3   8
BRANCH   2  18
ATOM     18  N   UNL d   1      57.442   0.100  31.585  0.00  0.00    -0.285 N 
ATOM     19  C   UNL d   1      57.639   0.650  32.108  0.00  0.00     0.108 A 
ATOM     20  C   UNL d   1      57.329   0.657  32.887  0.00  0.00     0.142 A 
ATOM     21  O   UNL d   1      56.791   0.034  33.076  0.00  0.00    -0.300 OA
ATOM     22  C   UNL d   1      56.618  -0.499  32.525  0.00  0.00     0.142 A 
ATOM     23  C   UNL d   1      56.912  -0.511  31.778  0.00  0.00     0.108 A 
ENDBRANCH   2  18
TORSDOF 5
ENDMDL
MODEL 4
REMARK VINA RESULT:      -1.0      1.455      2.000
REMARK  5 active torsions:
REMARK  status: ('A' for Active; 'I' for Inactive)
REMARK    1  A    between atoms: N_4  and  C_2 
REMARK    2  A    between atoms: S_8  and  C_3 
REMARK    3  A    between atoms: C_10  and  S_8 
REMARK    4  A    between atoms: C_9  and  C_10 
REMARK    5  A    between atoms: C_12  and  C_9 
ROOT
ATOM      1  N   UNL d   1      56.258   0.267  32.542  0.00  0.00    -0.203 NA
ATOM      2  C   UNL d   1      55.882  -0.260  33.063  0.00  0.00     0.152 A 
ATOM      3  C   UNL d   1      56.644  -0.020  31.889  0.00  0.00     0.196 A 
ATOM      4  C   UNL d   1      55.892  -1.034  32.938  0.00  0.00     0.057 A 
ATOM      5  N   UNL d   1      56.655  -0.833  31.757  0.00  0.00    -0.221 NA
ATOM      6  C   UNL d   1      56.279  -1.361  32.279  0.00  0.00     0.087 A 
ATOM      7  C   UNL d   1      56.272  -2.187  32.174  0.00  0.00     0.021 C 
ENDROOT
BRANCH   3   8
ATOM      8  S   UNL d   1      57.024   0.469  31.355  0.00  0.00    -0.045 SA
BRANCH   8   9
ATOM      9  C   UNL d   1      57.698   0.189  30.970  0.00  0.00     0.080 C 
BRANCH   9  10
ATOM     10  C   UNL d   1      57.929   0.469  30.214  0.00  0.00     0.202 C 
ATOM     11  O   UNL d   1      57.383   0.678  29.642  0.00  0.00    -0.286 OA
BRANCH  10  12
ATOM     12  C   UNL d   1      58.735   0.515  30.099  0.00  0.00     0.040 A 
ATOM     13  C   UNL d   1      59.038   0.437  29.305  0.00  0.00     0.003 A 
ATOM     14  C   UNL d   1      59.813   0.478  29.164  0.00  0.00     0.000 A 
ATOM     15  C   UNL d   1      60.350   0.595  29.779  0.00  0.00     0.000 A 
ATOM     16  C   UNL d   1      60.070   0.670  30.537  0.00  0.00     0.000 A 
ATOM     17  C   UNL d   1      59.273   0.633  30.714  0.00  0.00     0.003 A 
ENDBRANCH  10  12
ENDBRANCH   9  10
ENDBRANCH   8   9
ENDBRANCH   3   8
BRANCH   2  18
ATOM     18  N   UNL d   1      55.488   0.065  33.735  0.00  0.00    -0.285 N 
ATOM     19  C   UNL d   1      54.757   0.342  33.677  0.00  0.00     0.108 A 
ATOM     20  C   UNL d   1      54.349   0.668  34.333  0.00  0.00     0.142 A 
ATOM     21  O   UNL d   1      54.776   0.681  35.063  0.00  0.00    -0.300 OA
ATOM     22  C   UNL d   1      55.506   0.394  35.081  0.00  0.00     0.142 A 
ATOM     23  C   UNL d   1      55.901   0.081  34.456  0.00  0.00     0.108 A 
ENDBRANCH   2  18
TORSDOF 5
ENDMDL
MODEL 5
REMARK VINA RESULT:      -0.6      1.559      5.056
REMARK  5 active torsions:
REMARK  status: ('A' for Active; 'I' for Inactive)
REMARK    1  A    between atoms: N_4  and  C_2 
REMARK    2  A    between atoms: S_8  and  C_3 
REMARK    3  A    between atoms: C_10  and  S_8 
REMARK    4  A    between atoms: C_9  and  C_10 
REMARK    5  A    between atoms: C_12  and  C_9 
ROOT
ATOM      1  N   UNL d   1      58.556   0.374  30.359  0.00  0.00    -0.203 NA
ATOM      2  C   UNL d   1      59.008  -0.155  29.905  0.00  0.00     0.152 A 
ATOM      3  C   UNL d   1      57.864   0.122  30.700  0.00  0.00     0.196 A 
ATOM      4  C   UNL d   1      58.781  -0.898  29.798  0.00  0.00     0.057 A 
ATOM      5  N   UNL d   1      57.626  -0.659  30.588  0.00  0.00    -0.221 NA
ATOM      6  C   UNL d   1      58.078  -1.189  30.134  0.00  0.00     0.087 A 
ATOM      7  C   UNL d   1      57.865  -1.983  30.001  0.00  0.00     0.021 C 
ENDROOT
BRANCH   3   8
ATOM      8  S   UNL d   1      57.395   0.615  31.153  0.00  0.00    -0.045 SA
BRANCH   8   9
ATOM      9  C   UNL d   1      57.089   0.329  31.864  0.00  0.00     0.080 C 
BRANCH   9  10
ATOM     10  C   UNL d   1      56.308   0.503  32.115  0.00  0.00     0.202 C 
ATOM     11  O   UNL d   1      55.710   0.681  31.587  0.00  0.00    -0.286 OA
BRANCH  10  12
ATOM     12  C   UNL d   1      56.197   0.479  32.923  0.00  0.00     0.040 A 
ATOM     13  C   UNL d   1      55.400   0.417  33.222  0.00  0.00     0.003 A 
ATOM     14  C   UNL d   1      55.263   0.392  33.999  0.00  0.00     0.000 A 
ATOM     15  C   UNL d   1      55.884   0.424  34.541  0.00  0.00     0.000 A 
ATOM     16  C   UNL d   1      56.645   0.483  34.264  0.00  0.00     0.000 A 
ATOM     17  C   UNL d   1      56.818   0.511  33.465  0.00  0.00     0.003 A 
ENDBRANCH  10  12
ENDBRANCH   9  10
ENDBRANCH   8   9
ENDBRANCH   3   8
BRANCH   2  18
ATOM     18  N   UNL d   1      59.722   0.133  29.561  0.00  0.00    -0.285 N 
ATOM     19  C   UNL d   1      59.742   0.371  28.814  0.00  0.00     0.108 A 
ATOM     20  C   UNL d   1      60.443   0.661  28.455  0.00  0.00     0.142 A 
ATOM     21  O   UNL d   1      61.128   0.680  28.949  0.00  0.00    -0.300 OA
ATOM     22  C   UNL d   1      61.069   0.433  29.692  0.00  0.00     0.142 A 
ATOM     23  C   UNL d   1      60.401   0.155  30.040  0.00  0.00     0.108 A 
ENDBRANCH   2  18
TORSDOF 5
ENDMDL
