MODEL 1
REMARK VINA RESULT:      39.3      0.000      0.000
REMARK  4 active torsions:
REMARK  status: ('A' for Active; 'I' for Inactive)
REMARK    1  A    between atoms: C_6  and  C_1 
REMARK    2  A    between atoms: C_8  and  C_5 
REMARK    3  A    between atoms: C_9  and  C_8 
REMARK    4  A    between atoms: C_13  and  C_9 
ROOT
ATOM      1  C   UNL d   1     -51.515  25.361  33.325  0.00  0.00     0.210 A 
ATOM      2  N   UNL d   1     -51.968  26.052  33.306  0.00  0.00    -0.120 NA
ATOM      3  O   UNL d   1     -50.741  25.552  33.350  0.00  0.00    -0.268 OA
ATOM      4  N   UNL d   1     -51.428  26.678  33.320  0.00  0.00    -0.121 NA
ATOM      5  C   UNL d   1     -50.672  26.416  33.347  0.00  0.00     0.205 A 
ENDROOT
BRANCH   5   6
ATOM      6  C   UNL d   1     -50.007  26.898  33.367  0.00  0.00     0.046 C 
BRANCH   6   7
ATOM      7  C   UNL d   1     -50.083  27.686  33.564  0.00  0.00     0.004 C 
BRANCH   7   8
ATOM      8  C   UNL d   1     -49.517  28.056  34.040  0.00  0.00     0.000 A 
ATOM      9  C   UNL d   1     -49.330  28.870  33.926  0.00  0.00     0.002 A 
ATOM     10  C   UNL d   1     -48.762  29.240  34.405  0.00  0.00     0.030 A 
ATOM     11  C   UNL d   1     -48.384  28.804  34.991  0.00  0.00     0.140 A 
ATOM     12  C   UNL d   1     -48.567  27.990  35.109  0.00  0.00     0.030 A 
ATOM     13  F   UNL d   1     -47.814  29.174  35.472  0.00  0.00    -0.204 F 
ATOM     14  C   UNL d   1     -49.129  27.639  34.629  0.00  0.00     0.002 A 
ENDBRANCH   7   8
ENDBRANCH   6   7
ENDBRANCH   5   6
BRANCH   1  15
ATOM     15  C   UNL d   1     -51.812  24.585  33.320  0.00  0.00     0.072 A 
ATOM     16  S   UNL d   1     -52.607  24.357  33.309  0.00  0.00    -0.083 SA
ATOM     17  C   UNL d   1     -52.638  23.531  33.307  0.00  0.00     0.035 A 
ATOM     18  C   UNL d   1     -51.865  23.248  33.317  0.00  0.00     0.008 A 
ATOM     19  C   UNL d   1     -51.352  23.905  33.325  0.00  0.00     0.011 A 
ENDBRANCH   1  15
TORSDOF 4
ENDMDL
MODEL 2
REMARK VINA RESULT:      41.4      0.801      1.197
REMARK  4 active torsions:
REMARK  status: ('A' for Active; 'I' for Inactive)
REMARK    1  A    between atoms: C_6  and  C_1 
REMARK    2  A    between atoms: C_8  and  C_5 
REMARK    3  A    between atoms: C_9  and  C_8 
REMARK    4  A    between atoms: C_13  and  C_9 
ROOT
ATOM      1  C   UNL d   1     -50.745  26.117  33.509  0.00  0.00     0.210 A 
ATOM      2  N   UNL d   1     -51.149  26.809  33.307  0.00  0.00    -0.120 NA
ATOM      3  O   UNL d   1     -50.020  26.306  33.786  0.00  0.00    -0.268 OA
ATOM      4  N   UNL d   1     -50.632  27.433  33.475  0.00  0.00    -0.121 NA
ATOM      5  C   UNL d   1     -49.936  27.168  33.768  0.00  0.00     0.205 A 
ENDROOT
BRANCH   5   6
ATOM      6  C   UNL d   1     -49.306  27.647  33.990  0.00  0.00     0.046 C 
BRANCH   6   7
ATOM      7  C   UNL d   1     -49.223  27.873  34.770  0.00  0.00     0.004 C 
BRANCH   7   8
ATOM      8  C   UNL d   1     -48.676  28.457  34.981  0.00  0.00     0.000 A 
ATOM      9  C   UNL d   1     -48.667  29.197  34.580  0.00  0.00     0.002 A 
ATOM     10  C   UNL d   1     -48.118  29.782  34.794  0.00  0.00     0.030 A 
ATOM     11  C   UNL d   1     -47.584  29.630  35.401  0.00  0.00     0.140 A 
ATOM     12  C   UNL d   1     -47.589  28.891  35.805  0.00  0.00     0.030 A 
ATOM     13  F   UNL d   1     -47.032  30.215  35.616  0.00  0.00    -0.204 F 
ATOM     14  C   UNL d   1     -48.137  28.324  35.583  0.00  0.00     0.002 A 
ENDBRANCH   7   8
ENDBRANCH   6   7
ENDBRANCH   5   6
BRANCH   1  15
ATOM     15  C   UNL d   1     -51.039  25.344  33.438  0.00  0.00     0.072 A 
ATOM     16  S   UNL d   1     -51.833  25.112  33.431  0.00  0.00    -0.083 SA
ATOM     17  C   UNL d   1     -51.861  24.291  33.350  0.00  0.00     0.035 A 
ATOM     18  C   UNL d   1     -51.087  24.013  33.308  0.00  0.00     0.008 A 
ATOM     19  C   UNL d   1     -50.576  24.670  33.363  0.00  0.00     0.011 A 
ENDBRANCH   1  15
TORSDOF 4
ENDMDL
