MODEL 1
REMARK VINA RESULT:      49.6      0.000      0.000
REMARK  4 active torsions:
REMARK  status: ('A' for Active; 'I' for Inactive)
REMARK       I    between atoms: C_3  and  N_1 
REMARK    1  A    between atoms: C_7  and  C_3 
REMARK    2  A    between atoms: C_9  and  C_4 
REMARK    3  A    between atoms: C_12  and  C_5 
REMARK    4  A    between atoms: O_20  and  C_17 
ROOT
ATOM      1  N   UNL d   1      14.272  12.746  -2.211  0.00  0.00    -0.194 N 
ATOM      2  N   UNL d   1      14.039  12.216  -2.789  0.00  0.00    -0.163 NA
ATOM      3  C   UNL d   1      14.421  12.563  -1.397  0.00  0.00     0.286 C 
ATOM      4  C   UNL d   1      14.334  13.488  -2.564  0.00  0.00     0.088 A 
ATOM      5  C   UNL d   1      13.955  12.616  -3.498  0.00  0.00     0.103 A 
ATOM      6  C   UNL d   1      14.139  13.404  -3.355  0.00  0.00     0.040 A 
ATOM      7  O   UNL d   1      14.326  11.780  -1.155  0.00  0.00    -0.265 OA
ENDROOT
BRANCH   4   8
ATOM      8  C   UNL d   1      14.564  14.156  -2.118  0.00  0.00     0.018 A 
ATOM      9  C   UNL d   1      15.248  14.133  -1.632  0.00  0.00     0.004 A 
ATOM     10  C   UNL d   1      15.460  14.802  -1.197  0.00  0.00     0.024 A 
ATOM     11  C   UNL d   1      15.009  15.500  -1.231  0.00  0.00     0.094 A 
ATOM     12  C   UNL d   1      14.324  15.523  -1.717  0.00  0.00     0.024 A 
ATOM     13  C   UNL d   1      14.110  14.848  -2.155  0.00  0.00     0.004 A 
BRANCH  11  14
ATOM     14  O   UNL d   1      15.238  16.169  -0.784  0.00  0.00    -0.328 OA
ATOM     15  C   UNL d   1      15.158  16.935  -1.121  0.00  0.00     0.181 C 
ENDBRANCH  11  14
ENDBRANCH   4   8
BRANCH   3  16
ATOM     16  C   UNL d   1      14.652  13.138  -0.867  0.00  0.00     0.087 A 
ATOM     17  S   UNL d   1      14.277  13.820  -0.558  0.00  0.00    -0.082 SA
ATOM     18  C   UNL d   1      14.794  14.180  -0.043  0.00  0.00     0.036 A 
ATOM     19  C   UNL d   1      15.488  13.748  -0.015  0.00  0.00     0.008 A 
ATOM     20  C   UNL d   1      15.406  13.112  -0.516  0.00  0.00     0.012 A 
ENDBRANCH   3  16
BRANCH   5  21
ATOM     21  C   UNL d   1      13.736  12.361  -4.250  0.00  0.00     0.019 A 
ATOM     22  C   UNL d   1      14.273  12.437  -4.876  0.00  0.00     0.002 A 
ATOM     23  C   UNL d   1      14.050  12.183  -5.623  0.00  0.00     0.000 A 
ATOM     24  C   UNL d   1      13.308  11.856  -5.757  0.00  0.00     0.000 A 
ATOM     25  C   UNL d   1      12.770  11.780  -5.131  0.00  0.00     0.000 A 
ATOM     26  C   UNL d   1      12.994  12.036  -4.380  0.00  0.00     0.002 A 
ENDBRANCH   5  21
TORSDOF 4
ENDMDL
