MODEL 1
REMARK VINA RESULT:      37.4      0.000      0.000
REMARK  2 active torsions:
REMARK  status: ('A' for Active; 'I' for Inactive)
REMARK    1  A    between atoms: C_12  and  C_4 
REMARK    2  A    between atoms: C_10  and  C_5 
ROOT
ATOM      1  N   UNL d   1      46.027 -17.771  42.987  0.00  0.00    -0.208 N 
ATOM      2  N   UNL d   1      45.867 -16.958  42.961  0.00  0.00    -0.163 NA
ATOM      3  C   UNL d   1      46.135 -17.983  43.778  0.00  0.00     0.088 A 
ATOM      4  C   UNL d   1      46.085 -18.333  42.394  0.00  0.00     0.183 A 
ATOM      5  C   UNL d   1      45.876 -16.670  43.732  0.00  0.00     0.109 A 
ATOM      6  O   UNL d   1      46.254 -19.114  42.590  0.00  0.00    -0.289 OA
ATOM      7  C   UNL d   1      46.041 -17.300  44.239  0.00  0.00     0.041 A 
ATOM      8  C   UNL d   1      46.302 -18.758  43.972  0.00  0.00     0.041 A 
ATOM      9  C   UNL d   1      46.363 -19.331  43.378  0.00  0.00     0.103 A 
ATOM     10  C   UNL d   1      46.410 -18.975  44.760  0.00  0.00     0.004 A 
ATOM     11  C   UNL d   1      46.531 -20.112  43.572  0.00  0.00     0.025 A 
ATOM     12  C   UNL d   1      46.579 -19.755  44.955  0.00  0.00     0.000 A 
ATOM     13  C   UNL d   1      46.639 -20.326  44.359  0.00  0.00     0.002 A 
ENDROOT
BRANCH   4  14
ATOM     14  C   UNL d   1      45.977 -18.118  41.605  0.00  0.00     0.041 A 
ATOM     15  C   UNL d   1      46.626 -17.935  41.147  0.00  0.00     0.004 A 
ATOM     16  C   UNL d   1      46.521 -17.718  40.351  0.00  0.00     0.000 A 
ATOM     17  C   UNL d   1      45.755 -17.688  40.029  0.00  0.00     0.000 A 
ATOM     18  C   UNL d   1      45.105 -17.877  40.507  0.00  0.00     0.000 A 
ATOM     19  C   UNL d   1      45.212 -18.091  41.293  0.00  0.00     0.004 A 
ENDBRANCH   4  14
BRANCH   5  20
ATOM     20  C   UNL d   1      45.744 -15.891  43.962  0.00  0.00     0.049 A 
ATOM     21  S   UNL d   1      45.118 -15.621  44.420  0.00  0.00    -0.085 SA
ATOM     22  C   UNL d   1      45.204 -14.807  44.515  0.00  0.00     0.035 A 
ATOM     23  C   UNL d   1      45.888 -14.571  44.114  0.00  0.00     0.007 A 
ATOM     24  C   UNL d   1      46.226 -15.233  43.771  0.00  0.00     0.009 A 
ENDBRANCH   5  20
TORSDOF 2
ENDMDL
