MODEL 1
REMARK VINA RESULT:      -3.8      0.000      0.000
REMARK  7 active torsions:
REMARK  status: ('A' for Active; 'I' for Inactive)
REMARK    1  A    between atoms: N_2  and  S_1 
REMARK    2  A    between atoms: C_3  and  S_1 
REMARK    3  A    between atoms: C_9  and  N_2 
REMARK    4  A    between atoms: C_6  and  O_7 
REMARK    5  A    between atoms: O_7  and  C_14 
REMARK    6  A    between atoms: C_13  and  C_9 
REMARK    7  A    between atoms: O_17  and  C_10 
ROOT
ATOM      1  C   UNL d   1      57.724  -0.497  30.551  0.00  0.00     0.105 A 
ATOM      2  C   UNL d   1      57.687   0.318  30.603  0.00  0.00     0.015 A 
ATOM      3  C   UNL d   1      57.300  -0.967  31.085  0.00  0.00     0.015 A 
ATOM      4  C   UNL d   1      56.804   0.199  31.717  0.00  0.00     0.100 A 
ATOM      5  C   UNL d   1      57.229   0.669  31.183  0.00  0.00     0.025 A 
ATOM      6  C   UNL d   1      56.842  -0.616  31.664  0.00  0.00     0.025 A 
ENDROOT
BRANCH   1   7
ATOM      7  S   UNL d   1      58.190  -0.844  29.961  0.00  0.00     0.285 S 
ATOM      8  O   UNL d   1      58.461  -0.388  29.328  0.00  0.00    -0.198 OA
ATOM      9  O   UNL d   1      58.381  -1.645  30.008  0.00  0.00    -0.198 OA
BRANCH   7  10
ATOM     10  N   UNL d   1      58.630  -1.363  29.488  0.00  0.00    -0.155 NA
BRANCH  10  11
ATOM     11  C   UNL d   1      58.730  -2.159  29.728  0.00  0.00     0.131 C 
BRANCH  11  12
ATOM     12  C   UNL d   1      59.288  -2.636  29.338  0.00  0.00     0.101 A 
ATOM     13  N   UNL d   1      59.046  -3.340  28.982  0.00  0.00    -0.242 NA
ATOM     14  C   UNL d   1      59.592  -3.819  28.593  0.00  0.00     0.099 A 
ATOM     15  C   UNL d   1      60.394  -3.591  28.558  0.00  0.00     0.021 A 
ATOM     16  C   UNL d   1      60.631  -2.875  28.921  0.00  0.00     0.003 A 
ATOM     17  C   UNL d   1      60.080  -2.402  29.308  0.00  0.00     0.021 A 
ENDBRANCH  11  12
ENDBRANCH  10  11
ENDBRANCH   7  10
ENDBRANCH   1   7
BRANCH   4  18
ATOM     18  O   UNL d   1      56.340   0.557  32.305  0.00  0.00    -0.305 OA
BRANCH  18  19
ATOM     19  C   UNL d   1      56.607   0.589  33.089  0.00  0.00     0.122 A 
ATOM     20  C   UNL d   1      56.063   0.616  33.705  0.00  0.00     0.117 A 
ATOM     21  C   UNL d   1      56.331   0.648  34.485  0.00  0.00     0.026 A 
ATOM     22  C   UNL d   1      57.135   0.653  34.643  0.00  0.00     0.002 A 
ATOM     23  C   UNL d   1      57.680   0.626  34.023  0.00  0.00     0.002 A 
ATOM     24  C   UNL d   1      57.412   0.594  33.243  0.00  0.00     0.027 A 
BRANCH  20  25
ATOM     25  O   UNL d   1      55.261   0.611  33.538  0.00  0.00    -0.326 OA
ATOM     26  C   UNL d   1      54.723   0.378  34.101  0.00  0.00     0.181 C 
ENDBRANCH  20  25
ENDBRANCH  18  19
ENDBRANCH   4  18
TORSDOF 7
ENDMDL
MODEL 2
REMARK VINA RESULT:      -3.6      1.695      5.631
REMARK  7 active torsions:
REMARK  status: ('A' for Active; 'I' for Inactive)
REMARK    1  A    between atoms: N_2  and  S_1 
REMARK    2  A    between atoms: C_3  and  S_1 
REMARK    3  A    between atoms: C_9  and  N_2 
REMARK    4  A    between atoms: C_6  and  O_7 
REMARK    5  A    between atoms: O_7  and  C_14 
REMARK    6  A    between atoms: C_13  and  C_9 
REMARK    7  A    between atoms: O_17  and  C_10 
ROOT
ATOM      1  C   UNL d   1      57.709  -0.083  31.093  0.00  0.00     0.105 A 
ATOM      2  C   UNL d   1      57.558  -0.879  30.980  0.00  0.00     0.015 A 
ATOM      3  C   UNL d   1      58.125   0.347  30.521  0.00  0.00     0.015 A 
ATOM      4  C   UNL d   1      58.236  -0.820  29.726  0.00  0.00     0.100 A 
ATOM      5  C   UNL d   1      57.820  -1.249  30.299  0.00  0.00     0.025 A 
ATOM      6  C   UNL d   1      58.387  -0.024  29.841  0.00  0.00     0.025 A 
ENDROOT
BRANCH   1   7
ATOM      7  S   UNL d   1      57.440   0.285  31.785  0.00  0.00     0.285 S 
ATOM      8  O   UNL d   1      57.974   0.682  32.275  0.00  0.00    -0.198 OA
ATOM      9  O   UNL d   1      56.641   0.254  31.981  0.00  0.00    -0.198 OA
BRANCH   7  10
ATOM     10  N   UNL d   1      56.986   0.580  32.412  0.00  0.00    -0.155 NA
BRANCH  10  11
ATOM     11  C   UNL d   1      56.183   0.356  32.483  0.00  0.00     0.131 C 
BRANCH  11  12
ATOM     12  C   UNL d   1      55.792   0.465  33.209  0.00  0.00     0.101 A 
ATOM     13  N   UNL d   1      56.233   0.525  33.905  0.00  0.00    -0.242 NA
ATOM     14  C   UNL d   1      55.854   0.633  34.629  0.00  0.00     0.099 A 
ATOM     15  C   UNL d   1      55.022   0.682  34.659  0.00  0.00     0.021 A 
ATOM     16  C   UNL d   1      54.583   0.620  33.949  0.00  0.00     0.003 A 
ATOM     17  C   UNL d   1      54.968   0.512  33.230  0.00  0.00     0.021 A 
ENDBRANCH  11  12
ENDBRANCH  10  11
ENDBRANCH   7  10
ENDBRANCH   1   7
BRANCH   4  18
ATOM     18  O   UNL d   1      58.501  -1.198  29.036  0.00  0.00    -0.305 OA
BRANCH  18  19
ATOM     19  C   UNL d   1      59.296  -1.421  28.958  0.00  0.00     0.122 A 
ATOM     20  C   UNL d   1      59.491  -2.214  28.870  0.00  0.00     0.117 A 
ATOM     21  C   UNL d   1      60.282  -2.434  28.792  0.00  0.00     0.026 A 
ATOM     22  C   UNL d   1      60.870  -1.862  28.802  0.00  0.00     0.002 A 
ATOM     23  C   UNL d   1      60.672  -1.066  28.891  0.00  0.00     0.002 A 
ATOM     24  C   UNL d   1      59.881  -0.846  28.969  0.00  0.00     0.027 A 
BRANCH  20  25
ATOM     25  O   UNL d   1      58.897  -2.779  28.860  0.00  0.00    -0.326 OA
ATOM     26  C   UNL d   1      59.011  -3.491  28.484  0.00  0.00     0.181 C 
ENDBRANCH  20  25
ENDBRANCH  18  19
ENDBRANCH   4  18
TORSDOF 7
ENDMDL
MODEL 3
REMARK VINA RESULT:      -1.5      1.554      5.579
REMARK  7 active torsions:
REMARK  status: ('A' for Active; 'I' for Inactive)
REMARK    1  A    between atoms: N_2  and  S_1 
REMARK    2  A    between atoms: C_3  and  S_1 
REMARK    3  A    between atoms: C_9  and  N_2 
REMARK    4  A    between atoms: C_6  and  O_7 
REMARK    5  A    between atoms: O_7  and  C_14 
REMARK    6  A    between atoms: C_13  and  C_9 
REMARK    7  A    between atoms: O_17  and  C_10 
ROOT
ATOM      1  C   UNL d   1      57.983  -0.507  30.516  0.00  0.00     0.105 A 
ATOM      2  C   UNL d   1      58.059  -1.305  30.682  0.00  0.00     0.015 A 
ATOM      3  C   UNL d   1      58.172  -0.221  29.762  0.00  0.00     0.015 A 
ATOM      4  C   UNL d   1      58.512  -1.532  29.349  0.00  0.00     0.100 A 
ATOM      5  C   UNL d   1      58.323  -1.818  30.103  0.00  0.00     0.025 A 
ATOM      6  C   UNL d   1      58.435  -0.735  29.183  0.00  0.00     0.025 A 
ENDROOT
BRANCH   1   7
ATOM      7  S   UNL d   1      57.716   0.006  31.107  0.00  0.00     0.285 S 
ATOM      8  O   UNL d   1      58.255   0.346  31.633  0.00  0.00    -0.198 OA
ATOM      9  O   UNL d   1      56.912   0.176  31.170  0.00  0.00    -0.198 OA
BRANCH   7  10
ATOM     10  N   UNL d   1      57.262   0.479  31.614  0.00  0.00    -0.155 NA
BRANCH  10  11
ATOM     11  C   UNL d   1      56.479   0.250  31.804  0.00  0.00     0.131 C 
BRANCH  11  12
ATOM     12  C   UNL d   1      56.205   0.342  32.583  0.00  0.00     0.101 A 
ATOM     13  N   UNL d   1      55.428   0.588  32.717  0.00  0.00    -0.242 NA
ATOM     14  C   UNL d   1      55.148   0.682  33.486  0.00  0.00     0.099 A 
ATOM     15  C   UNL d   1      55.651   0.528  34.133  0.00  0.00     0.021 A 
ATOM     16  C   UNL d   1      56.437   0.280  33.989  0.00  0.00     0.003 A 
ATOM     17  C   UNL d   1      56.710   0.188  33.218  0.00  0.00     0.021 A 
ENDBRANCH  11  12
ENDBRANCH  10  11
ENDBRANCH   7  10
ENDBRANCH   1   7
BRANCH   4  18
ATOM     18  O   UNL d   1      58.779  -2.056  28.762  0.00  0.00    -0.305 OA
BRANCH  18  19
ATOM     19  C   UNL d   1      59.517  -2.425  28.833  0.00  0.00     0.122 A 
ATOM     20  C   UNL d   1      59.562  -3.245  28.862  0.00  0.00     0.117 A 
ATOM     21  C   UNL d   1      60.299  -3.611  28.933  0.00  0.00     0.026 A 
ATOM     22  C   UNL d   1      60.981  -3.157  28.974  0.00  0.00     0.002 A 
ATOM     23  C   UNL d   1      60.933  -2.334  28.945  0.00  0.00     0.002 A 
ATOM     24  C   UNL d   1      60.197  -1.968  28.874  0.00  0.00     0.027 A 
BRANCH  20  25
ATOM     25  O   UNL d   1      58.876  -3.691  28.820  0.00  0.00    -0.326 OA
ATOM     26  C   UNL d   1      58.878  -4.419  28.457  0.00  0.00     0.181 C 
ENDBRANCH  20  25
ENDBRANCH  18  19
ENDBRANCH   4  18
TORSDOF 7
ENDMDL
