MODEL 1
REMARK VINA RESULT:      37.1      0.000      0.000
REMARK  3 active torsions:
REMARK  status: ('A' for Active; 'I' for Inactive)
REMARK       I    between atoms: N_2  and  C_1 
REMARK       I    between atoms: N_5  and  C_1 
REMARK       I    between atoms: C_4  and  N_3 
REMARK    1  A    between atoms: O_14  and  C_4 
REMARK    2  A    between atoms: C_12  and  N_5 
REMARK    3  A    between atoms: C_20  and  O_14 
ROOT
ATOM      1  C   UNL d   1     -59.348 -98.787 -44.616  0.00  0.00     0.354 C 
ATOM      2  N   UNL d   1     -58.518 -98.787 -44.675  0.00  0.00    -0.253 N 
ATOM      3  N   UNL d   1     -56.893 -98.784 -44.761  0.00  0.00    -0.249 N 
ATOM      4  C   UNL d   1     -56.046 -98.783 -44.798  0.00  0.00     0.378 C 
ATOM      5  N   UNL d   1     -59.814 -98.811 -45.320  0.00  0.00    -0.192 NA
ATOM      6  O   UNL d   1     -59.742 -98.765 -43.884  0.00  0.00    -0.244 OA
ATOM      7  C   UNL d   1     -58.133 -98.808 -45.412  0.00  0.00     0.104 A 
ATOM      8  C   UNL d   1     -58.081 -98.764 -43.990  0.00  0.00     0.104 A 
ATOM      9  C   UNL d   1     -57.250 -98.763 -44.038  0.00  0.00     0.104 A 
ATOM     10  C   UNL d   1     -57.316 -98.807 -45.437  0.00  0.00     0.104 A 
ATOM     11  O   UNL d   1     -55.648 -98.804 -45.507  0.00  0.00    -0.237 OA
ENDROOT
BRANCH   5  12
ATOM     12  C   UNL d   1     -59.455 -98.832 -46.032  0.00  0.00     0.087 A 
ATOM     13  C   UNL d   1     -59.875 -98.784 -46.737  0.00  0.00     0.031 A 
ATOM     14  C   UNL d   1     -59.498 -98.807 -47.443  0.00  0.00     0.059 A 
ATOM     15 CL   UNL d   1     -59.960 -98.755 -48.143  0.00  0.00    -0.082 Cl
ATOM     16  C   UNL d   1     -58.678 -98.879 -47.482  0.00  0.00     0.011 A 
ATOM     17  C   UNL d   1     -58.248 -98.928 -46.775  0.00  0.00     0.002 A 
ATOM     18  C   UNL d   1     -58.624 -98.905 -46.068  0.00  0.00     0.019 A 
ENDBRANCH   5  12
BRANCH   4  19
ATOM     19  O   UNL d   1     -55.613 -98.760 -44.094  0.00  0.00    -0.257 OA
BRANCH  19  20
ATOM     20  C   UNL d   1     -54.931 -99.203 -44.022  0.00  0.00     0.128 C 
ATOM     21  C   UNL d   1     -54.966-100.027 -44.011  0.00  0.00     0.029 C 
ENDBRANCH  19  20
ENDBRANCH   4  19
TORSDOF 3
ENDMDL
