MODEL 1
REMARK VINA RESULT:      46.4      0.000      0.000
REMARK  5 active torsions:
REMARK  status: ('A' for Active; 'I' for Inactive)
REMARK    1  A    between atoms: C_2  and  N_1 
REMARK       I    between atoms: C_3  and  N_1 
REMARK    2  A    between atoms: N_7  and  C_2 
REMARK    3  A    between atoms: C_4  and  C_3 
REMARK    4  A    between atoms: N_5  and  C_9 
REMARK    5  A    between atoms: C_17  and  N_7 
ROOT
ATOM      1  C   UNL d   1     -55.068-102.199 -38.597  0.00  0.00     0.064 A 
ATOM      2  C   UNL d   1     -55.168-102.873 -39.060  0.00  0.00     0.019 A 
ATOM      3  C   UNL d   1     -54.843-101.481 -38.963  0.00  0.00     0.019 A 
ATOM      4  C   UNL d   1     -54.826-102.130 -40.235  0.00  0.00     0.084 A 
ATOM      5  C   UNL d   1     -54.722-101.446 -39.783  0.00  0.00     0.021 A 
ATOM      6  C   UNL d   1     -55.051-102.845 -39.867  0.00  0.00     0.021 A 
ENDROOT
BRANCH   4   7
ATOM      7  N   UNL d   1     -54.711-102.107 -41.033  0.00  0.00    -0.217 NA
BRANCH   7   8
ATOM      8  C   UNL d   1     -55.232-101.683 -41.514  0.00  0.00     0.224 C 
ATOM      9  S   UNL d   1     -56.016-101.609 -41.300  0.00  0.00    -0.037 SA
BRANCH   8  10
ATOM     10  N   UNL d   1     -54.944-101.333 -42.221  0.00  0.00    -0.178 NA
ATOM     11  C   UNL d   1     -55.455-101.197 -42.830  0.00  0.00     0.287 C 
ATOM     12  O   UNL d   1     -56.249-101.401 -42.754  0.00  0.00    -0.265 OA
BRANCH  11  13
ATOM     13  C   UNL d   1     -55.190-100.859 -43.516  0.00  0.00     0.087 A 
ATOM     14  S   UNL d   1     -55.075-100.055 -43.644  0.00  0.00    -0.082 SA
ATOM     15  C   UNL d   1     -54.795 -99.951 -44.432  0.00  0.00     0.036 A 
ATOM     16  C   UNL d   1     -54.748-100.695 -44.761  0.00  0.00     0.008 A 
ATOM     17  C   UNL d   1     -54.985-101.262 -44.218  0.00  0.00     0.012 A 
ENDBRANCH  11  13
ENDBRANCH   8  10
ENDBRANCH   7   8
ENDBRANCH   4   7
BRANCH   1  18
ATOM     18  N   UNL d   1     -55.186-102.233 -37.795  0.00  0.00    -0.300 N 
ATOM     19  C   UNL d   1     -54.861-101.663 -37.306  0.00  0.00     0.107 A 
ATOM     20  C   UNL d   1     -54.975-101.688 -36.488  0.00  0.00     0.142 A 
ATOM     21  O   UNL d   1     -55.421-102.290 -36.157  0.00  0.00    -0.300 OA
ATOM     22  C   UNL d   1     -55.754-102.871 -36.641  0.00  0.00     0.142 A 
ATOM     23  C   UNL d   1     -55.640-102.847 -37.461  0.00  0.00     0.107 A 
ENDBRANCH   1  18
TORSDOF 5
ENDMDL
