MODEL 1
REMARK VINA RESULT:      56.1      0.000      0.000
REMARK  8 active torsions:
REMARK  status: ('A' for Active; 'I' for Inactive)
REMARK    1  A    between atoms: N_3  and  C_1 
REMARK       I    between atoms: C_8  and  N_3 
REMARK    2  A    between atoms: O_12  and  C_4 
REMARK    3  A    between atoms: S_20  and  C_5 
REMARK    4  A    between atoms: C_13  and  C_8 
REMARK    5  A    between atoms: C_9  and  O_12 
REMARK    6  A    between atoms: C_14  and  C_9 
REMARK    7  A    between atoms: C_16  and  C_28 
REMARK    8  A    between atoms: C_28  and  S_20 
ROOT
ATOM      1  C   UNL d   1     -50.101  26.537  33.865  0.00  0.00     0.167 A 
ATOM      2  C   UNL d   1     -50.437  26.859  34.542  0.00  0.00     0.222 A 
ATOM      3  C   UNL d   1     -49.935  27.242  35.082  0.00  0.00     0.069 A 
ATOM      4  C   UNL d   1     -49.291  26.590  33.724  0.00  0.00     0.151 A 
ATOM      5  C   UNL d   1     -49.125  27.295  34.940  0.00  0.00     0.110 A 
ATOM      6  O   UNL d   1     -48.808  26.967  34.258  0.00  0.00    -0.302 OA
ATOM      7  O   UNL d   1     -51.239  26.806  34.682  0.00  0.00    -0.284 OA
ENDROOT
BRANCH   5   8
ATOM      8  C   UNL d   1     -48.637  27.676  35.481  0.00  0.00     0.062 C 
BRANCH   8   9
ATOM      9  S   UNL d   1     -48.141  28.283  35.224  0.00  0.00    -0.057 SA
BRANCH   9  10
ATOM     10  C   UNL d   1     -48.003  29.207  35.084  0.00  0.00     0.166 A 
ATOM     11  S   UNL d   1     -48.045  29.821  34.537  0.00  0.00    -0.006 SA
ATOM     12  C   UNL d   1     -47.801  30.517  34.908  0.00  0.00     0.269 A 
ATOM     13  N   UNL d   1     -47.606  30.329  35.691  0.00  0.00    -0.107 NA
ATOM     14  N   UNL d   1     -47.731  29.521  35.799  0.00  0.00    -0.132 NA
BRANCH  12  15
ATOM     15  N   UNL d   1     -47.676  31.325  34.800  0.00  0.00    -0.337 NA
ATOM     16  C   UNL d   1     -47.551  32.133  34.691  0.00  0.00     0.330 C 
ATOM     17  O   UNL d   1     -47.283  32.187  35.469  0.00  0.00    -0.251 OA
BRANCH  16  18
ATOM     18  C   UNL d   1     -47.652  32.664  34.065  0.00  0.00     0.070 A 
ATOM     19  C   UNL d   1     -48.042  33.313  33.740  0.00  0.00     0.006 A 
ATOM     20  C   UNL d   1     -47.434  32.929  33.308  0.00  0.00     0.006 A 
ENDBRANCH  16  18
ENDBRANCH  12  15
ENDBRANCH   9  10
ENDBRANCH   8   9
ENDBRANCH   5   8
BRANCH   1  21
ATOM     21  O   UNL d   1     -50.592  26.151  33.317  0.00  0.00    -0.268 OA
BRANCH  21  22
ATOM     22  C   UNL d   1     -51.400  26.066  33.477  0.00  0.00     0.300 C 
ATOM     23  O   UNL d   1     -51.853  26.731  33.675  0.00  0.00    -0.259 OA
BRANCH  22  24
ATOM     24  C   UNL d   1     -51.753  25.306  33.436  0.00  0.00     0.064 A 
ATOM     25  C   UNL d   1     -52.575  25.242  33.397  0.00  0.00     0.005 A 
ATOM     26  C   UNL d   1     -52.937  24.487  33.357  0.00  0.00     0.000 A 
ATOM     27  C   UNL d   1     -53.759  24.431  33.317  0.00  0.00     0.000 C 
ATOM     28  C   UNL d   1     -52.456  23.812  33.357  0.00  0.00     0.000 A 
ATOM     29  C   UNL d   1     -51.623  23.876  33.397  0.00  0.00     0.000 A 
ATOM     30  C   UNL d   1     -51.288  24.622  33.436  0.00  0.00     0.005 A 
ATOM     31  C   UNL d   1     -51.169  23.195  33.396  0.00  0.00     0.000 C 
ENDBRANCH  22  24
ENDBRANCH  21  22
ENDBRANCH   1  21
TORSDOF 8
ENDMDL
