MODEL 1
REMARK VINA RESULT:      -3.6      0.000      0.000
REMARK  7 active torsions:
REMARK  status: ('A' for Active; 'I' for Inactive)
REMARK    1  A    between atoms: C_13  and  N_1 
REMARK    2  A    between atoms: C_2  and  N_6 
REMARK    3  A    between atoms: C_8  and  C_5 
REMARK       I    between atoms: N_6  and  C_8 
REMARK    4  A    between atoms: S_20  and  C_9 
REMARK    5  A    between atoms: C_14  and  C_19 
REMARK    6  A    between atoms: C_19  and  C_23 
REMARK    7  A    between atoms: C_23  and  S_20 
ROOT
ATOM      1  N   UNL d   1      32.699  19.242 -23.166  0.00  0.00    -0.181 NA
ATOM      2  C   UNL d   1      32.973  19.497 -22.493  0.00  0.00     0.283 C 
ATOM      3  O   UNL d   1      33.237  18.996 -21.970  0.00  0.00    -0.265 OA
ENDROOT
BRANCH   2   4
ATOM      4  C   UNL d   1      32.983  20.249 -22.345  0.00  0.00     0.080 A 
ATOM      5  C   UNL d   1      32.818  20.584 -21.676  0.00  0.00     0.088 A 
ATOM      6  N   UNL d   1      32.895  21.344 -21.764  0.00  0.00    -0.273 N 
ATOM      7  C   UNL d   1      33.106  21.478 -22.486  0.00  0.00     0.265 A 
ATOM      8  C   UNL d   1      33.162  20.799 -22.852  0.00  0.00     0.067 A 
ATOM      9  O   UNL d   1      33.241  22.172 -22.800  0.00  0.00    -0.267 OA
BRANCH   6  10
ATOM     10  C   UNL d   1      32.769  21.917 -21.175  0.00  0.00     0.067 A 
ATOM     11  C   UNL d   1      32.269  22.556 -21.330  0.00  0.00     0.020 A 
ATOM     12  C   UNL d   1      32.150  23.121 -20.738  0.00  0.00     0.031 A 
ATOM     13  C   UNL d   1      32.519  23.052 -20.010  0.00  0.00     0.140 A 
ATOM     14  C   UNL d   1      33.019  22.407 -19.862  0.00  0.00     0.031 A 
ATOM     15  F   UNL d   1      32.396  23.624 -19.415  0.00  0.00    -0.204 F 
ATOM     16  C   UNL d   1      33.143  21.847 -20.437  0.00  0.00     0.020 A 
ENDBRANCH   6  10
ENDBRANCH   2   4
BRANCH   1  17
ATOM     17  C   UNL d   1      32.688  18.488 -23.320  0.00  0.00     0.219 A 
ATOM     18  S   UNL d   1      32.125  18.108 -23.682  0.00  0.00    -0.019 SA
ATOM     19  C   UNL d   1      32.325  17.374 -23.724  0.00  0.00     0.165 A 
ATOM     20  N   UNL d   1      33.013  17.283 -23.389  0.00  0.00    -0.133 NA
ATOM     21  N   UNL d   1      33.241  17.985 -23.135  0.00  0.00    -0.120 NA
BRANCH  19  22
ATOM     22  S   UNL d   1      31.232  16.327 -24.488  0.00  0.00    -0.059 SA
BRANCH  22  23
ATOM     23  C   UNL d   1      30.421  16.403 -24.354  0.00  0.00     0.042 C 
BRANCH  23  24
ATOM     24  C   UNL d   1      29.942  15.727 -24.333  0.00  0.00     0.058 C 
BRANCH  24  25
ATOM     25  C   UNL d   1      29.185  15.784 -24.010  0.00  0.00     0.204 A 
ATOM     26  O   UNL d   1      28.480  15.535 -24.372  0.00  0.00    -0.281 OA
ATOM     27  C   UNL d   1      27.857  15.699 -23.849  0.00  0.00     0.152 A 
ATOM     28  C   UNL d   1      28.178  16.048 -23.170  0.00  0.00     0.152 A 
ATOM     29  O   UNL d   1      28.997  16.102 -23.266  0.00  0.00    -0.281 OA
ENDBRANCH  24  25
ENDBRANCH  23  24
ENDBRANCH  22  23
ENDBRANCH  19  22
ENDBRANCH   1  17
TORSDOF 7
ENDMDL
MODEL 2
REMARK VINA RESULT:      -2.7      1.570      2.427
REMARK  7 active torsions:
REMARK  status: ('A' for Active; 'I' for Inactive)
REMARK    1  A    between atoms: C_13  and  N_1 
REMARK    2  A    between atoms: C_2  and  N_6 
REMARK    3  A    between atoms: C_8  and  C_5 
REMARK       I    between atoms: N_6  and  C_8 
REMARK    4  A    between atoms: S_20  and  C_9 
REMARK    5  A    between atoms: C_14  and  C_19 
REMARK    6  A    between atoms: C_19  and  C_23 
REMARK    7  A    between atoms: C_23  and  S_20 
ROOT
ATOM      1  N   UNL d   1      33.239  21.039 -21.892  0.00  0.00    -0.181 NA
ATOM      2  C   UNL d   1      32.643  21.350 -21.516  0.00  0.00     0.283 C 
ATOM      3  O   UNL d   1      31.925  21.125 -21.681  0.00  0.00    -0.265 OA
ENDROOT
BRANCH   2   4
ATOM      4  C   UNL d   1      32.766  21.882 -20.978  0.00  0.00     0.080 A 
ATOM      5  C   UNL d   1      32.704  21.788 -20.220  0.00  0.00     0.088 A 
ATOM      6  N   UNL d   1      32.874  22.457 -19.882  0.00  0.00    -0.273 N 
ATOM      7  C   UNL d   1      33.040  22.963 -20.430  0.00  0.00     0.265 A 
ATOM      8  C   UNL d   1      32.975  22.610 -21.115  0.00  0.00     0.067 A 
ATOM      9  O   UNL d   1      33.241  23.702 -20.321  0.00  0.00    -0.267 OA
BRANCH   6  10
ATOM     10  C   UNL d   1      32.876  22.601 -19.063  0.00  0.00     0.067 A 
ATOM     11  C   UNL d   1      32.528  23.291 -18.772  0.00  0.00     0.020 A 
ATOM     12  C   UNL d   1      32.534  23.426 -17.956  0.00  0.00     0.031 A 
ATOM     13  C   UNL d   1      32.878  22.887 -17.443  0.00  0.00     0.140 A 
ATOM     14  C   UNL d   1      33.225  22.197 -17.744  0.00  0.00     0.031 A 
ATOM     15  F   UNL d   1      32.882  23.026 -16.621  0.00  0.00    -0.204 F 
ATOM     16  C   UNL d   1      33.224  22.055 -18.544  0.00  0.00     0.020 A 
ENDBRANCH   6  10
ENDBRANCH   2   4
BRANCH   1  17
ATOM     17  C   UNL d   1      33.121  20.505 -22.432  0.00  0.00     0.219 A 
ATOM     18  S   UNL d   1      33.087  19.744 -22.318  0.00  0.00    -0.019 SA
ATOM     19  C   UNL d   1      32.962  19.409 -22.991  0.00  0.00     0.165 A 
ATOM     20  N   UNL d   1      32.916  19.952 -23.536  0.00  0.00    -0.133 NA
ATOM     21  N   UNL d   1      33.017  20.642 -23.183  0.00  0.00    -0.120 NA
BRANCH  19  22
ATOM     22  S   UNL d   1      32.847  17.718 -22.994  0.00  0.00    -0.059 SA
BRANCH  22  23
ATOM     23  C   UNL d   1      32.134  17.351 -23.187  0.00  0.00     0.042 C 
BRANCH  23  24
ATOM     24  C   UNL d   1      32.119  16.760 -23.768  0.00  0.00     0.058 C 
BRANCH  24  25
ATOM     25  C   UNL d   1      31.459  16.266 -23.819  0.00  0.00     0.204 A 
ATOM     26  O   UNL d   1      31.158  15.925 -24.514  0.00  0.00    -0.281 OA
ATOM     27  C   UNL d   1      30.494  15.473 -24.304  0.00  0.00     0.152 A 
ATOM     28  C   UNL d   1      30.388  15.538 -23.485  0.00  0.00     0.152 A 
ATOM     29  O   UNL d   1      30.982  16.026 -23.183  0.00  0.00    -0.281 OA
ENDBRANCH  24  25
ENDBRANCH  23  24
ENDBRANCH  22  23
ENDBRANCH  19  22
ENDBRANCH   1  17
TORSDOF 7
ENDMDL
MODEL 3
REMARK VINA RESULT:      -2.4      2.458      6.567
REMARK  7 active torsions:
REMARK  status: ('A' for Active; 'I' for Inactive)
REMARK    1  A    between atoms: C_13  and  N_1 
REMARK    2  A    between atoms: C_2  and  N_6 
REMARK    3  A    between atoms: C_8  and  C_5 
REMARK       I    between atoms: N_6  and  C_8 
REMARK    4  A    between atoms: S_20  and  C_9 
REMARK    5  A    between atoms: C_14  and  C_19 
REMARK    6  A    between atoms: C_19  and  C_23 
REMARK    7  A    between atoms: C_23  and  S_20 
ROOT
ATOM      1  N   UNL d   1      31.873  18.296 -23.178  0.00  0.00    -0.181 NA
ATOM      2  C   UNL d   1      32.132  17.740 -23.644  0.00  0.00     0.283 C 
ATOM      3  O   UNL d   1      32.871  17.733 -23.861  0.00  0.00    -0.265 OA
ENDROOT
BRANCH   2   4
ATOM      4  C   UNL d   1      31.654  17.194 -23.890  0.00  0.00     0.080 A 
ATOM      5  C   UNL d   1      30.905  17.140 -23.737  0.00  0.00     0.088 A 
ATOM      6  N   UNL d   1      30.633  16.513 -24.090  0.00  0.00    -0.273 N 
ATOM      7  C   UNL d   1      31.213  16.181 -24.459  0.00  0.00     0.265 A 
ATOM      8  C   UNL d   1      31.851  16.600 -24.338  0.00  0.00     0.067 A 
ATOM      9  O   UNL d   1      31.172  15.534 -24.883  0.00  0.00    -0.267 OA
BRANCH   6  10
ATOM     10  C   UNL d   1      29.846  16.248 -24.070  0.00  0.00     0.067 A 
ATOM     11  C   UNL d   1      29.335  16.447 -24.687  0.00  0.00     0.020 A 
ATOM     12  C   UNL d   1      28.553  16.179 -24.659  0.00  0.00     0.031 A 
ATOM     13  C   UNL d   1      28.287  15.722 -24.033  0.00  0.00     0.140 A 
ATOM     14  C   UNL d   1      28.807  15.526 -23.417  0.00  0.00     0.031 A 
ATOM     15  F   UNL d   1      27.498  15.453 -24.008  0.00  0.00    -0.204 F 
ATOM     16  C   UNL d   1      29.577  15.785 -23.435  0.00  0.00     0.020 A 
ENDBRANCH   6  10
ENDBRANCH   2   4
BRANCH   1  17
ATOM     17  C   UNL d   1      32.350  18.846 -22.929  0.00  0.00     0.219 A 
ATOM     18  S   UNL d   1      32.381  19.571 -23.187  0.00  0.00    -0.019 SA
ATOM     19  C   UNL d   1      32.924  19.937 -22.798  0.00  0.00     0.165 A 
ATOM     20  N   UNL d   1      33.241  19.450 -22.292  0.00  0.00    -0.133 NA
ATOM     21  N   UNL d   1      32.879  18.763 -22.375  0.00  0.00    -0.120 NA
BRANCH  19  22
ATOM     22  S   UNL d   1      33.181  21.565 -23.194  0.00  0.00    -0.059 SA
BRANCH  22  23
ATOM     23  C   UNL d   1      33.208  22.138 -22.600  0.00  0.00     0.042 C 
BRANCH  23  24
ATOM     24  C   UNL d   1      32.591  22.686 -22.529  0.00  0.00     0.058 C 
BRANCH  24  25
ATOM     25  C   UNL d   1      32.457  23.044 -21.797  0.00  0.00     0.204 A 
ATOM     26  O   UNL d   1      31.722  23.298 -21.506  0.00  0.00    -0.281 OA
ATOM     27  C   UNL d   1      31.849  23.622 -20.752  0.00  0.00     0.152 A 
ATOM     28  C   UNL d   1      32.657  23.567 -20.582  0.00  0.00     0.152 A 
ATOM     29  O   UNL d   1      33.036  23.211 -21.225  0.00  0.00    -0.281 OA
ENDBRANCH  24  25
ENDBRANCH  23  24
ENDBRANCH  22  23
ENDBRANCH  19  22
ENDBRANCH   1  17
TORSDOF 7
ENDMDL
