MODEL 1
REMARK VINA RESULT:      38.5      0.000      0.000
REMARK  8 active torsions:
REMARK  status: ('A' for Active; 'I' for Inactive)
REMARK    1  A    between atoms: C_2  and  C_1 
REMARK    2  A    between atoms: C_5  and  C_1 
REMARK    3  A    between atoms: O_11  and  C_2 
REMARK    4  A    between atoms: C_13  and  C_3 
REMARK    5  A    between atoms: C_6  and  C_5 
REMARK    6  A    between atoms: C_23  and  O_11 
REMARK    7  A    between atoms: C_12  and  S_14 
REMARK    8  A    between atoms: S_14  and  C_18 
ROOT
ATOM      1  C   UNL d   1      46.564 -18.742  41.497  0.00  0.00     0.134 C 
ATOM      2  C   UNL d   1      46.603 -19.536  41.278  0.00  0.00     0.106 C 
ATOM      3  N   UNL d   1      46.643 -20.329  41.054  0.00  0.00    -0.191 NA
ENDROOT
BRANCH   1   4
ATOM      4  C   UNL d   1      46.493 -18.543  42.296  0.00  0.00     0.310 C 
ATOM      5  O   UNL d   1      46.644 -17.772  42.546  0.00  0.00    -0.258 OA
BRANCH   4   6
ATOM      6  O   UNL d   1      46.269 -19.117  42.849  0.00  0.00    -0.273 OA
BRANCH   6   7
ATOM      7  C   UNL d   1      46.070 -18.894  43.611  0.00  0.00     0.103 C 
ATOM      8  C   UNL d   1      45.771 -19.449  44.143  0.00  0.00     0.027 C 
ATOM      9  C   UNL d   1      46.168 -18.108  43.850  0.00  0.00     0.027 C 
ENDBRANCH   6   7
ENDBRANCH   4   6
ENDBRANCH   1   4
BRANCH   1  10
ATOM     10  C   UNL d   1      46.596 -18.150  40.930  0.00  0.00     0.040 C 
BRANCH  10  11
ATOM     11  C   UNL d   1      45.919 -17.952  40.515  0.00  0.00     0.101 A 
ATOM     12  O   UNL d   1      46.027 -17.530  39.819  0.00  0.00    -0.307 OA
ATOM     13  C   UNL d   1      45.288 -17.387  39.488  0.00  0.00     0.100 A 
ATOM     14  C   UNL d   1      44.719 -17.723  39.982  0.00  0.00     0.027 A 
ATOM     15  C   UNL d   1      45.097 -18.069  40.611  0.00  0.00     0.027 A 
BRANCH  13  16
ATOM     16  C   UNL d   1      45.137 -16.983  38.792  0.00  0.00     0.023 A 
ATOM     17  C   UNL d   1      45.595 -16.289  38.792  0.00  0.00     0.003 A 
ATOM     18  C   UNL d   1      45.553 -15.768  38.148  0.00  0.00     0.007 A 
ATOM     19  C   UNL d   1      45.060 -15.937  37.511  0.00  0.00     0.034 A 
ATOM     20  C   UNL d   1      44.606 -16.625  37.512  0.00  0.00     0.007 A 
ATOM     21  C   UNL d   1      44.641 -17.150  38.149  0.00  0.00     0.003 A 
BRANCH  19  22
ATOM     22  S   UNL d   1      45.021 -15.418  36.875  0.00  0.00    -0.028 SA
BRANCH  22  23
ATOM     23  C   UNL d   1      45.620 -14.867  36.759  0.00  0.00     0.309 C 
ATOM     24  F   UNL d   1      46.294 -15.074  36.330  0.00  0.00    -0.165 F 
ATOM     25  F   UNL d   1      45.549 -14.107  37.070  0.00  0.00    -0.165 F 
ENDBRANCH  22  23
ENDBRANCH  19  22
ENDBRANCH  13  16
ENDBRANCH  10  11
ENDBRANCH   1  10
TORSDOF 8
ENDMDL
MODEL 2
REMARK VINA RESULT:      40.7      3.220      5.613
REMARK  8 active torsions:
REMARK  status: ('A' for Active; 'I' for Inactive)
REMARK    1  A    between atoms: C_2  and  C_1 
REMARK    2  A    between atoms: C_5  and  C_1 
REMARK    3  A    between atoms: O_11  and  C_2 
REMARK    4  A    between atoms: C_13  and  C_3 
REMARK    5  A    between atoms: C_6  and  C_5 
REMARK    6  A    between atoms: C_23  and  O_11 
REMARK    7  A    between atoms: C_12  and  S_14 
REMARK    8  A    between atoms: S_14  and  C_18 
ROOT
ATOM      1  C   UNL d   1      44.938 -15.833  37.465  0.00  0.00     0.134 C 
ATOM      2  C   UNL d   1      44.133 -15.716  37.602  0.00  0.00     0.106 C 
ATOM      3  N   UNL d   1      43.328 -15.604  37.742  0.00  0.00    -0.191 NA
ENDROOT
BRANCH   1   4
ATOM      4  C   UNL d   1      45.373 -15.248  37.077  0.00  0.00     0.310 C 
ATOM      5  O   UNL d   1      45.118 -14.957  36.348  0.00  0.00    -0.258 OA
BRANCH   4   6
ATOM      6  O   UNL d   1      46.067 -14.951  37.416  0.00  0.00    -0.273 OA
BRANCH   6   7
ATOM      7  C   UNL d   1      46.406 -14.267  37.121  0.00  0.00     0.103 C 
ATOM      8  C   UNL d   1      46.647 -14.227  36.333  0.00  0.00     0.027 C 
ATOM      9  C   UNL d   1      46.506 -13.611  37.615  0.00  0.00     0.027 C 
ENDBRANCH   6   7
ENDBRANCH   4   6
ENDBRANCH   1   4
BRANCH   1  10
ATOM     10  C   UNL d   1      45.308 -16.523  37.710  0.00  0.00     0.040 C 
BRANCH  10  11
ATOM     11  C   UNL d   1      45.045 -16.905  38.384  0.00  0.00     0.101 A 
ATOM     12  O   UNL d   1      45.616 -17.100  38.941  0.00  0.00    -0.307 OA
ATOM     13  C   UNL d   1      45.244 -17.475  39.570  0.00  0.00     0.100 A 
ATOM     14  C   UNL d   1      44.437 -17.513  39.402  0.00  0.00     0.027 A 
ATOM     15  C   UNL d   1      44.308 -17.167  38.680  0.00  0.00     0.027 A 
BRANCH  13  16
ATOM     16  C   UNL d   1      45.604 -17.763  40.247  0.00  0.00     0.023 A 
ATOM     17  C   UNL d   1      45.649 -18.591  40.183  0.00  0.00     0.003 A 
ATOM     18  C   UNL d   1      45.992 -19.033  40.795  0.00  0.00     0.007 A 
ATOM     19  C   UNL d   1      46.287 -18.655  41.463  0.00  0.00     0.034 A 
ATOM     20  C   UNL d   1      46.243 -17.835  41.526  0.00  0.00     0.007 A 
ATOM     21  C   UNL d   1      45.903 -17.385  40.922  0.00  0.00     0.003 A 
BRANCH  19  22
ATOM     22  S   UNL d   1      46.627 -19.097  42.067  0.00  0.00    -0.028 SA
BRANCH  22  23
ATOM     23  C   UNL d   1      46.236 -19.173  42.788  0.00  0.00     0.309 C 
ATOM     24  F   UNL d   1      45.801 -19.855  42.951  0.00  0.00    -0.165 F 
ATOM     25  F   UNL d   1      46.280 -18.569  43.346  0.00  0.00    -0.165 F 
ENDBRANCH  22  23
ENDBRANCH  19  22
ENDBRANCH  13  16
ENDBRANCH  10  11
ENDBRANCH   1  10
TORSDOF 8
ENDMDL
MODEL 3
REMARK VINA RESULT:      41.1      3.336      5.696
REMARK  8 active torsions:
REMARK  status: ('A' for Active; 'I' for Inactive)
REMARK    1  A    between atoms: C_2  and  C_1 
REMARK    2  A    between atoms: C_5  and  C_1 
REMARK    3  A    between atoms: O_11  and  C_2 
REMARK    4  A    between atoms: C_13  and  C_3 
REMARK    5  A    between atoms: C_6  and  C_5 
REMARK    6  A    between atoms: C_23  and  O_11 
REMARK    7  A    between atoms: C_12  and  S_14 
REMARK    8  A    between atoms: S_14  and  C_18 
ROOT
ATOM      1  C   UNL d   1      45.040 -16.249  37.941  0.00  0.00     0.134 C 
ATOM      2  C   UNL d   1      45.731 -15.799  37.957  0.00  0.00     0.106 C 
ATOM      3  N   UNL d   1      46.424 -15.351  37.977  0.00  0.00    -0.191 NA
ENDROOT
BRANCH   1   4
ATOM      4  C   UNL d   1      44.458 -16.079  37.380  0.00  0.00     0.310 C 
ATOM      5  O   UNL d   1      44.496 -16.417  36.628  0.00  0.00    -0.258 OA
BRANCH   4   6
ATOM      6  O   UNL d   1      43.833 -15.571  37.569  0.00  0.00    -0.273 OA
BRANCH   6   7
ATOM      7  C   UNL d   1      43.239 -15.433  37.023  0.00  0.00     0.103 C 
ATOM      8  C   UNL d   1      43.399 -15.015  36.330  0.00  0.00     0.027 C 
ATOM      9  C   UNL d   1      42.474 -15.714  37.166  0.00  0.00     0.027 C 
ENDBRANCH   6   7
ENDBRANCH   4   6
ENDBRANCH   1   4
BRANCH   1  10
ATOM     10  C   UNL d   1      44.928 -16.861  38.474  0.00  0.00     0.040 C 
BRANCH  10  11
ATOM     11  C   UNL d   1      45.539 -17.081  38.972  0.00  0.00     0.101 A 
ATOM     12  O   UNL d   1      45.357 -17.627  39.558  0.00  0.00    -0.307 OA
ATOM     13  C   UNL d   1      46.039 -17.773  39.994  0.00  0.00     0.100 A 
ATOM     14  C   UNL d   1      46.647 -17.315  39.676  0.00  0.00     0.027 A 
ATOM     15  C   UNL d   1      46.350 -16.890  39.052  0.00  0.00     0.027 A 
BRANCH  13  16
ATOM     16  C   UNL d   1      46.108 -18.281  40.631  0.00  0.00     0.023 A 
ATOM     17  C   UNL d   1      46.499 -17.876  41.244  0.00  0.00     0.003 A 
ATOM     18  C   UNL d   1      46.647 -18.261  41.964  0.00  0.00     0.007 A 
ATOM     19  C   UNL d   1      46.407 -19.040  42.073  0.00  0.00     0.034 A 
ATOM     20  C   UNL d   1      46.020 -19.441  41.466  0.00  0.00     0.007 A 
ATOM     21  C   UNL d   1      45.868 -19.067  40.745  0.00  0.00     0.003 A 
BRANCH  19  22
ATOM     22  S   UNL d   1      46.555 -19.417  42.788  0.00  0.00    -0.028 SA
BRANCH  22  23
ATOM     23  C   UNL d   1      46.094 -19.242  43.446  0.00  0.00     0.309 C 
ATOM     24  F   UNL d   1      45.918 -18.456  43.629  0.00  0.00    -0.165 F 
ATOM     25  F   UNL d   1      45.807 -19.849  43.923  0.00  0.00    -0.165 F 
ENDBRANCH  22  23
ENDBRANCH  19  22
ENDBRANCH  13  16
ENDBRANCH  10  11
ENDBRANCH   1  10
TORSDOF 8
ENDMDL
