MODEL 1
REMARK VINA RESULT:      29.3      0.000      0.000
REMARK  4 active torsions:
REMARK  status: ('A' for Active; 'I' for Inactive)
REMARK    1  A    between atoms: C_7  and  C_1 
REMARK    2  A    between atoms: C_9  and  C_3 
REMARK    3  A    between atoms: O_13  and  C_7 
REMARK    4  A    between atoms: C_18  and  O_13 
ROOT
ATOM      1  C   UNL d   1     -58.431 -98.779 -44.664  0.00  0.00     0.099 A 
ATOM      2  C   UNL d   1     -59.220 -98.784 -44.478  0.00  0.00     0.093 A 
ATOM      3  C   UNL d   1     -57.854 -98.773 -44.048  0.00  0.00     0.093 A 
ATOM      4  C   UNL d   1     -58.892 -98.777 -43.082  0.00  0.00     0.369 A 
ATOM      5  N   UNL d   1     -59.461 -98.783 -43.670  0.00  0.00    -0.191 NA
ATOM      6  N   UNL d   1     -58.082 -98.772 -43.273  0.00  0.00    -0.191 NA
ATOM      7  O   UNL d   1     -59.150 -98.776 -42.285  0.00  0.00    -0.242 OA
ATOM      8  C   UNL d   1     -59.790 -98.790 -45.070  0.00  0.00     0.021 C 
ENDROOT
BRANCH   3   9
ATOM      9  C   UNL d   1     -57.041 -98.768 -44.240  0.00  0.00     0.018 A 
ATOM     10  C   UNL d   1     -56.469 -98.769 -43.622  0.00  0.00     0.002 A 
ATOM     11  C   UNL d   1     -55.670 -98.764 -43.810  0.00  0.00     0.000 A 
ATOM     12  C   UNL d   1     -55.437 -98.758 -44.617  0.00  0.00     0.000 A 
ATOM     13  C   UNL d   1     -55.999 -98.758 -45.206  0.00  0.00     0.000 A 
ATOM     14  C   UNL d   1     -56.809 -98.763 -45.015  0.00  0.00     0.002 A 
ENDBRANCH   3   9
BRANCH   1  15
ATOM     15  C   UNL d   1     -58.189 -98.780 -45.466  0.00  0.00     0.303 C 
ATOM     16  O   UNL d   1     -57.389 -98.801 -45.667  0.00  0.00    -0.259 OA
BRANCH  15  17
ATOM     17  O   UNL d   1     -58.756 -98.761 -46.045  0.00  0.00    -0.271 OA
BRANCH  17  18
ATOM     18  C   UNL d   1     -58.577 -99.037 -46.803  0.00  0.00     0.126 C 
ATOM     19  C   UNL d   1     -59.131 -99.000 -47.392  0.00  0.00     0.029 C 
ENDBRANCH  17  18
ENDBRANCH  15  17
ENDBRANCH   1  15
TORSDOF 4
ENDMDL
