MODEL 1
REMARK VINA RESULT:      -1.0      0.000      0.000
REMARK  7 active torsions:
REMARK  status: ('A' for Active; 'I' for Inactive)
REMARK    1  A    between atoms: C_4  and  S_1 
REMARK    2  A    between atoms: N_6  and  S_1 
REMARK    3  A    between atoms: S_2  and  N_3 
REMARK    4  A    between atoms: C_8  and  S_2 
REMARK    5  A    between atoms: N_3  and  C_7 
REMARK    6  A    between atoms: C_20  and  N_13 
REMARK    7  A    between atoms: C_18  and  C_20 
ROOT
ATOM      1  C   UNL d   1      58.770  -1.327  29.061  0.00  0.00     0.105 A 
ATOM      2  C   UNL d   1      58.801  -0.925  29.779  0.00  0.00     0.029 A 
ATOM      3  C   UNL d   1      58.334  -0.255  29.899  0.00  0.00     0.076 A 
ATOM      4  C   UNL d   1      58.264  -1.053  28.455  0.00  0.00     0.013 A 
ATOM      5  C   UNL d   1      57.837   0.012  29.305  0.00  0.00     0.017 A 
ATOM      6  C   UNL d   1      57.800  -0.383  28.583  0.00  0.00     0.002 A 
ATOM      7  C   UNL d   1      59.301  -1.196  30.375  0.00  0.00     0.002 C 
ATOM      8  C   UNL d   1      57.372   0.682  29.429  0.00  0.00     0.002 C 
ENDROOT
BRANCH   1   9
ATOM      9  S   UNL d   1      59.237  -1.996  28.940  0.00  0.00     0.272 S 
ATOM     10  O   UNL d   1      58.892  -2.742  28.930  0.00  0.00    -0.200 OA
ATOM     11  O   UNL d   1      60.052  -1.913  28.829  0.00  0.00    -0.200 OA
BRANCH   9  12
ATOM     12  N   UNL d   1      59.711  -2.661  28.819  0.00  0.00    -0.226 N 
ATOM     13  C   UNL d   1      60.519  -2.568  28.717  0.00  0.00     0.111 A 
ATOM     14  C   UNL d   1      60.992  -3.233  28.596  0.00  0.00     0.100 A 
ATOM     15  N   UNL d   1      60.653  -3.984  28.577  0.00  0.00    -0.300 N 
ATOM     16  C   UNL d   1      59.841  -4.068  28.679  0.00  0.00     0.100 A 
ATOM     17  C   UNL d   1      59.367  -3.404  28.801  0.00  0.00     0.111 A 
BRANCH  15  18
ATOM     18  C   UNL d   1      61.133  -4.644  28.455  0.00  0.00     0.080 C 
BRANCH  18  19
ATOM     19  C   UNL d   1      61.068  -5.305  28.947  0.00  0.00     0.018 C 
ATOM     20  C   UNL d   1      60.946  -6.052  28.618  0.00  0.00     0.002 C 
ATOM     21  C   UNL d   1      61.125  -5.219  29.764  0.00  0.00     0.002 C 
ENDBRANCH  18  19
ENDBRANCH  15  18
ENDBRANCH   9  12
ENDBRANCH   1   9
BRANCH   3  22
ATOM     22  N   UNL d   1      58.371   0.140  30.620  0.00  0.00    -0.229 N 
ATOM     23  C   UNL d   1      58.995   0.665  30.777  0.00  0.00     0.111 C 
BRANCH  22  24
ATOM     24  S   UNL d   1      57.788   0.016  31.190  0.00  0.00     0.271 S 
ATOM     25  O   UNL d   1      58.489   0.402  31.396  0.00  0.00    -0.200 OA
ATOM     26  O   UNL d   1      57.677  -0.243  30.411  0.00  0.00    -0.200 OA
BRANCH  24  27
ATOM     27  C   UNL d   1      57.204  -0.108  31.760  0.00  0.00     0.104 A 
ATOM     28  C   UNL d   1      57.023  -0.873  32.006  0.00  0.00     0.013 A 
ATOM     29  C   UNL d   1      56.449  -0.995  32.567  0.00  0.00     0.001 A 
ATOM     30  C   UNL d   1      56.047  -0.362  32.891  0.00  0.00     0.000 A 
ATOM     31  C   UNL d   1      56.218   0.408  32.654  0.00  0.00     0.001 A 
ATOM     32  C   UNL d   1      55.464  -0.486  33.461  0.00  0.00     0.000 C 
ATOM     33  C   UNL d   1      56.800   0.537  32.085  0.00  0.00     0.013 A 
ENDBRANCH  24  27
ENDBRANCH  22  24
ENDBRANCH   3  22
TORSDOF 7
ENDMDL
