MODEL 1
REMARK VINA RESULT:      64.8      0.000      0.000
REMARK  5 active torsions:
REMARK  status: ('A' for Active; 'I' for Inactive)
REMARK    1  A    between atoms: C_4  and  C_1 
REMARK    2  A    between atoms: C_9  and  C_4 
REMARK    3  A    between atoms: N_5  and  C_9 
REMARK    4  A    between atoms: C_19  and  N_6 
REMARK    5  A    between atoms: C_18  and  C_19 
ROOT
ATOM      1  N   UNL d   1     -49.715  27.412  34.552  0.00  0.00    -0.297 N 
ATOM      2  N   UNL d   1     -50.097  26.025  33.728  0.00  0.00    -0.300 N 
ATOM      3  C   UNL d   1     -50.251  26.876  34.864  0.00  0.00     0.100 A 
ATOM      4  C   UNL d   1     -49.360  27.257  33.814  0.00  0.00     0.100 A 
ATOM      5  C   UNL d   1     -49.558  26.560  33.409  0.00  0.00     0.100 A 
ATOM      6  C   UNL d   1     -50.448  26.179  34.458  0.00  0.00     0.100 A 
ENDROOT
BRANCH   1   7
ATOM      7  C   UNL d   1     -49.522  28.101  34.957  0.00  0.00     0.123 C 
BRANCH   7   8
ATOM      8  C   UNL d   1     -48.780  28.187  35.306  0.00  0.00     0.216 C 
ATOM      9  O   UNL d   1     -48.406  27.535  35.647  0.00  0.00    -0.285 OA
BRANCH   8  10
ATOM     10  C   UNL d   1     -48.407  28.929  35.315  0.00  0.00     0.080 A 
ATOM     11  C   UNL d   1     -48.087  29.218  36.004  0.00  0.00     0.202 A 
ATOM     12  C   UNL d   1     -47.719  29.950  36.015  0.00  0.00     0.078 A 
ATOM     13  O   UNL d   1     -48.134  28.770  36.695  0.00  0.00    -0.286 OA
ATOM     14  C   UNL d   1     -47.395  30.239  36.718  0.00  0.00     0.007 C 
ATOM     15  C   UNL d   1     -47.669  30.406  35.320  0.00  0.00     0.199 A 
ATOM     16  C   UNL d   1     -47.997  30.108  34.617  0.00  0.00     0.042 A 
ATOM     17  O   UNL d   1     -47.301  31.137  35.333  0.00  0.00    -0.286 OA
ATOM     18  C   UNL d   1     -48.366  29.372  34.611  0.00  0.00     0.010 A 
ENDBRANCH   8  10
ENDBRANCH   7   8
ENDBRANCH   1   7
BRANCH   2  19
ATOM     19  C   UNL d   1     -50.291  25.331  33.319  0.00  0.00     0.080 C 
BRANCH  19  20
ATOM     20  C   UNL d   1     -51.065  25.048  33.338  0.00  0.00     0.020 A 
ATOM     21  C   UNL d   1     -51.207  24.234  33.359  0.00  0.00     0.028 A 
ATOM     22  C   UNL d   1     -51.979  23.956  33.377  0.00  0.00     0.119 A 
ATOM     23  O   UNL d   1     -52.282  23.191  33.399  0.00  0.00    -0.300 OA
ATOM     24  C   UNL d   1     -52.608  24.487  33.375  0.00  0.00     0.119 A 
ATOM     25  C   UNL d   1     -53.103  23.237  33.411  0.00  0.00     0.304 A 
ATOM     26  O   UNL d   1     -53.304  24.042  33.396  0.00  0.00    -0.300 OA
ATOM     27  C   UNL d   1     -52.470  25.299  33.354  0.00  0.00     0.026 A 
ATOM     28  C   UNL d   1     -51.688  25.575  33.335  0.00  0.00     0.004 A 
ENDBRANCH  19  20
ENDBRANCH   2  19
TORSDOF 5
ENDMDL
MODEL 2
REMARK VINA RESULT:      65.4      1.511      6.334
REMARK  5 active torsions:
REMARK  status: ('A' for Active; 'I' for Inactive)
REMARK    1  A    between atoms: C_4  and  C_1 
REMARK    2  A    between atoms: C_9  and  C_4 
REMARK    3  A    between atoms: N_5  and  C_9 
REMARK    4  A    between atoms: C_19  and  N_6 
REMARK    5  A    between atoms: C_18  and  C_19 
ROOT
ATOM      1  N   UNL d   1     -48.655  27.928  34.658  0.00  0.00    -0.297 N 
ATOM      2  N   UNL d   1     -48.074  29.292  35.400  0.00  0.00    -0.300 N 
ATOM      3  C   UNL d   1     -47.934  28.248  34.436  0.00  0.00     0.100 A 
ATOM      4  C   UNL d   1     -49.099  28.292  35.262  0.00  0.00     0.100 A 
ATOM      5  C   UNL d   1     -48.799  28.975  35.627  0.00  0.00     0.100 A 
ATOM      6  C   UNL d   1     -47.635  28.931  34.802  0.00  0.00     0.100 A 
ENDROOT
BRANCH   1   7
ATOM      7  C   UNL d   1     -48.948  27.251  34.293  0.00  0.00     0.123 C 
BRANCH   7   8
ATOM      8  C   UNL d   1     -49.613  27.293  33.808  0.00  0.00     0.216 C 
ATOM      9  O   UNL d   1     -49.817  28.006  33.447  0.00  0.00    -0.285 OA
BRANCH   8  10
ATOM     10  C   UNL d   1     -50.080  26.617  33.682  0.00  0.00     0.080 A 
ATOM     11  C   UNL d   1     -50.879  26.689  33.557  0.00  0.00     0.202 A 
ATOM     12  C   UNL d   1     -51.341  26.024  33.432  0.00  0.00     0.078 A 
ATOM     13  O   UNL d   1     -51.226  27.437  33.557  0.00  0.00    -0.286 OA
ATOM     14  C   UNL d   1     -52.153  26.103  33.306  0.00  0.00     0.007 C 
ATOM     15  C   UNL d   1     -50.995  25.267  33.431  0.00  0.00     0.199 A 
ATOM     16  C   UNL d   1     -50.177  25.196  33.559  0.00  0.00     0.042 A 
ATOM     17  O   UNL d   1     -51.457  24.603  33.306  0.00  0.00    -0.286 OA
ATOM     18  C   UNL d   1     -49.717  25.867  33.684  0.00  0.00     0.010 A 
ENDBRANCH   8  10
ENDBRANCH   7   8
ENDBRANCH   1   7
BRANCH   2  19
ATOM     19  C   UNL d   1     -47.779  29.973  35.767  0.00  0.00     0.080 C 
BRANCH  19  20
ATOM     20  C   UNL d   1     -47.594  30.636  35.313  0.00  0.00     0.020 A 
ATOM     21  C   UNL d   1     -48.192  31.153  35.072  0.00  0.00     0.028 A 
ATOM     22  C   UNL d   1     -48.004  31.811  34.620  0.00  0.00     0.119 A 
ATOM     23  O   UNL d   1     -48.474  32.410  34.307  0.00  0.00    -0.300 OA
ATOM     24  C   UNL d   1     -47.221  31.955  34.408  0.00  0.00     0.119 A 
ATOM     25  C   UNL d   1     -47.990  32.933  33.897  0.00  0.00     0.304 A 
ATOM     26  O   UNL d   1     -47.212  32.650  33.961  0.00  0.00    -0.300 OA
ATOM     27  C   UNL d   1     -46.622  31.442  34.647  0.00  0.00     0.026 A 
ATOM     28  C   UNL d   1     -46.817  30.778  35.104  0.00  0.00     0.004 A 
ENDBRANCH  19  20
ENDBRANCH   2  19
TORSDOF 5
ENDMDL
