MODEL 1
REMARK VINA RESULT:      -4.5      0.000      0.000
REMARK  4 active torsions:
REMARK  status: ('A' for Active; 'I' for Inactive)
REMARK    1  A    between atoms: C_6  and  C_1 
REMARK    2  A    between atoms: C_3  and  C_15 
REMARK    3  A    between atoms: O_11  and  C_6 
REMARK    4  A    between atoms: C_15  and  O_11 
ROOT
ATOM      1  C   UNL d   1      57.145   0.448  32.247  0.00  0.00     0.127 A 
ATOM      2  C   UNL d   1      57.800   0.519  32.726  0.00  0.00     0.305 A 
ATOM      3  C   UNL d   1      56.385   0.451  32.583  0.00  0.00     0.013 A 
ATOM      4  C   UNL d   1      56.332   0.529  33.411  0.00  0.00     0.023 A 
ATOM      5  O   UNL d   1      57.758   0.595  33.532  0.00  0.00    -0.273 OA
ATOM      6  C   UNL d   1      56.984   0.600  33.888  0.00  0.00     0.103 A 
ATOM      7  C   UNL d   1      55.564   0.533  33.767  0.00  0.00     0.002 A 
ATOM      8  O   UNL d   1      58.584   0.514  32.353  0.00  0.00    -0.259 OA
ATOM      9  C   UNL d   1      56.936   0.678  34.723  0.00  0.00     0.025 A 
ATOM     10  C   UNL d   1      55.512   0.611  34.596  0.00  0.00     0.000 A 
ATOM     11  C   UNL d   1      56.182   0.682  35.059  0.00  0.00     0.002 A 
ATOM     12  C   UNL d   1      54.878   0.464  33.324  0.00  0.00     0.000 A 
ATOM     13  C   UNL d   1      54.794   0.619  34.962  0.00  0.00     0.000 A 
ATOM     14  C   UNL d   1      54.129   0.472  33.703  0.00  0.00     0.000 A 
ATOM     15  C   UNL d   1      54.085   0.548  34.515  0.00  0.00     0.000 A 
ENDROOT
BRANCH   1  16
ATOM     16  C   UNL d   1      57.245   0.368  31.375  0.00  0.00     0.305 C 
ATOM     17  O   UNL d   1      56.647   0.681  30.902  0.00  0.00    -0.259 OA
BRANCH  16  18
ATOM     18  O   UNL d   1      57.900   0.001  31.041  0.00  0.00    -0.271 OA
BRANCH  18  19
ATOM     19  C   UNL d   1      57.973  -0.014  30.215  0.00  0.00     0.127 C 
ATOM     20  C   UNL d   1      57.620   0.597  29.769  0.00  0.00     0.029 C 
BRANCH  19  21
ATOM     21  C   UNL d   1      58.378  -0.605  29.811  0.00  0.00     0.134 A 
ATOM     22  N   UNL d   1      58.119  -1.343  29.594  0.00  0.00    -0.236 NA
ATOM     23  C   UNL d   1      58.770  -1.707  29.196  0.00  0.00     0.088 A 
ATOM     24  C   UNL d   1      58.848  -2.445  28.853  0.00  0.00     0.020 A 
ATOM     25  C   UNL d   1      59.358  -1.230  29.179  0.00  0.00     0.049 A 
ATOM     26  C   UNL d   1      59.561  -2.712  28.472  0.00  0.00     0.002 A 
ATOM     27  C   UNL d   1      60.156  -2.192  28.471  0.00  0.00     0.001 A 
ATOM     28  C   UNL d   1      60.079  -1.448  28.816  0.00  0.00     0.008 A 
ATOM     29  S   UNL d   1      59.162  -0.520  29.554  0.00  0.00    -0.065 SA
ENDBRANCH  19  21
ENDBRANCH  18  19
ENDBRANCH  16  18
ENDBRANCH   1  16
TORSDOF 4
ENDMDL
