MODEL 1
REMARK VINA RESULT:      58.0      0.000      0.000
REMARK  7 active torsions:
REMARK  status: ('A' for Active; 'I' for Inactive)
REMARK    1  A    between atoms: C_14  and  N_3 
REMARK    2  A    between atoms: C_10  and  C_6 
REMARK    3  A    between atoms: C_15  and  C_14 
REMARK    4  A    between atoms: C_20  and  C_15 
REMARK    5  A    between atoms: N_16  and  C_20 
REMARK    6  A    between atoms: C_23  and  N_16 
REMARK    7  A    between atoms: C_24  and  N_16 
ROOT
ATOM      1  C   UNL d   1      46.123 -18.413  42.593  0.00  0.00     0.083 A 
ATOM      2  C   UNL d   1      46.077 -17.654  42.303  0.00  0.00     0.161 A 
ATOM      3  N   UNL d   1      45.868 -17.599  43.600  0.00  0.00    -0.272 N 
ATOM      4  C   UNL d   1      45.920 -17.150  42.924  0.00  0.00     0.288 A 
ATOM      5  C   UNL d   1      46.277 -19.038  42.088  0.00  0.00     0.201 A 
ATOM      6  C   UNL d   1      45.994 -18.377  43.397  0.00  0.00     0.074 A 
ATOM      7  O   UNL d   1      46.186 -17.517  41.499  0.00  0.00    -0.302 OA
ATOM      8  C   UNL d   1      46.385 -18.897  41.282  0.00  0.00     0.062 A 
ATOM      9  C   UNL d   1      46.339 -18.137  40.993  0.00  0.00     0.103 A 
ATOM     10  O   UNL d   1      45.829 -16.331  42.874  0.00  0.00    -0.264 OA
ATOM     11  O   UNL d   1      46.324 -19.818  42.386  0.00  0.00    -0.286 OA
ATOM     12  C   UNL d   1      46.539 -19.521  40.778  0.00  0.00     0.005 A 
ATOM     13  C   UNL d   1      46.446 -17.998  40.197  0.00  0.00     0.025 A 
ATOM     14  C   UNL d   1      46.645 -19.377  39.980  0.00  0.00     0.000 A 
ATOM     15  C   UNL d   1      46.599 -18.618  39.691  0.00  0.00     0.002 A 
ENDROOT
BRANCH   3  16
ATOM     16  C   UNL d   1      45.716 -17.317  44.364  0.00  0.00     0.085 C 
BRANCH  16  17
ATOM     17  C   UNL d   1      45.936 -16.537  44.576  0.00  0.00     0.038 C 
BRANCH  17  18
ATOM     18  C   UNL d   1      45.375 -16.019  44.896  0.00  0.00     0.082 C 
BRANCH  18  19
ATOM     19  N   UNL d   1      45.448 -15.201  44.776  0.00  0.00    -0.302 N 
BRANCH  19  20
ATOM     20  C   UNL d   1      44.811 -14.696  44.954  0.00  0.00     0.080 C 
ATOM     21  C   UNL d   1      44.468 -14.231  44.355  0.00  0.00     0.021 C 
ENDBRANCH  19  20
BRANCH  19  22
ATOM     22  C   UNL d   1      46.158 -14.885  44.477  0.00  0.00     0.080 C 
ATOM     23  C   UNL d   1      46.519 -14.234  44.850  0.00  0.00     0.021 C 
ENDBRANCH  19  22
ENDBRANCH  18  19
ENDBRANCH  17  18
ENDBRANCH  16  17
ENDBRANCH   3  16
BRANCH   6  24
ATOM     24  C   UNL d   1      45.991 -19.028  43.917  0.00  0.00     0.036 A 
ATOM     25  C   UNL d   1      45.336 -19.541  43.937  0.00  0.00     0.100 A 
ATOM     26  N   UNL d   1      45.332 -20.189  44.453  0.00  0.00    -0.242 NA
ATOM     27  C   UNL d   1      45.985 -20.329  44.955  0.00  0.00     0.099 A 
ATOM     28  C   UNL d   1      46.640 -19.813  44.933  0.00  0.00     0.021 A 
ATOM     29  C   UNL d   1      46.643 -19.165  44.416  0.00  0.00     0.005 A 
ENDBRANCH   6  24
TORSDOF 7
ENDMDL
