MODEL 1
REMARK VINA RESULT:      50.6      0.000      0.000
REMARK  7 active torsions:
REMARK  status: ('A' for Active; 'I' for Inactive)
REMARK    1  A    between atoms: C_10  and  C_3 
REMARK    2  A    between atoms: N_12  and  C_4 
REMARK    3  A    between atoms: O_23  and  C_11 
REMARK    4  A    between atoms: C_25  and  N_12 
REMARK    5  A    between atoms: O_26  and  C_13 
REMARK    6  A    between atoms: C_18  and  C_28 
REMARK    7  A    between atoms: C_28  and  C_25 
ROOT
ATOM      1  C   UNL d   1      45.868 -17.085  43.142  0.00  0.00     0.168 A 
ATOM      2  N   UNL d   1      45.746 -16.302  43.415  0.00  0.00    -0.184 N 
ATOM      3  C   UNL d   1      45.706 -17.272  42.382  0.00  0.00     0.057 A 
ATOM      4  C   UNL d   1      45.912 -16.131  44.173  0.00  0.00     0.218 A 
ATOM      5  N   UNL d   1      45.301 -15.939  42.137  0.00  0.00    -0.160 NA
ATOM      6  N   UNL d   1      46.148 -17.644  43.644  0.00  0.00    -0.227 NA
ATOM      7  C   UNL d   1      46.196 -16.691  44.688  0.00  0.00     0.071 A 
ATOM      8  C   UNL d   1      45.420 -16.697  41.872  0.00  0.00     0.124 A 
ATOM      9  C   UNL d   1      46.316 -17.462  44.419  0.00  0.00     0.087 A 
ATOM     10  C   UNL d   1      46.612 -18.052  44.950  0.00  0.00     0.021 C 
ENDROOT
BRANCH   4  11
ATOM     11  N   UNL d   1      45.790 -15.342  44.453  0.00  0.00    -0.380 NA
BRANCH  11  12
ATOM     12  C   UNL d   1      45.796 -14.664  44.955  0.00  0.00     0.163 C 
BRANCH  12  13
ATOM     13  C   UNL d   1      46.151 -13.957  44.673  0.00  0.00     0.035 C 
BRANCH  13  14
ATOM     14  C   UNL d   1      45.729 -13.486  44.114  0.00  0.00     0.005 A 
ATOM     15  C   UNL d   1      44.878 -13.558  44.071  0.00  0.00     0.026 A 
ATOM     16  C   UNL d   1      44.443 -13.085  43.507  0.00  0.00     0.116 A 
ATOM     17  C   UNL d   1      44.866 -12.547  42.995  0.00  0.00     0.116 A 
ATOM     18  C   UNL d   1      45.699 -12.485  43.047  0.00  0.00     0.026 A 
ATOM     19  C   UNL d   1      46.131 -12.961  43.613  0.00  0.00     0.002 A 
BRANCH  16  20
ATOM     20  O   UNL d   1      43.613 -13.149  43.459  0.00  0.00    -0.326 OA
ATOM     21  C   UNL d   1      43.193 -13.643  43.997  0.00  0.00     0.181 C 
ENDBRANCH  16  20
BRANCH  17  22
ATOM     22  O   UNL d   1      44.438 -12.081  42.441  0.00  0.00    -0.326 OA
ATOM     23  C   UNL d   1      44.362 -12.333  41.636  0.00  0.00     0.181 C 
ENDBRANCH  17  22
ENDBRANCH  13  14
ENDBRANCH  12  13
ENDBRANCH  11  12
ENDBRANCH   4  11
BRANCH   3  24
ATOM     24  C   UNL d   1      45.824 -18.030  42.117  0.00  0.00     0.005 A 
ATOM     25  C   UNL d   1      45.235 -18.416  41.732  0.00  0.00     0.001 A 
ATOM     26  C   UNL d   1      45.354 -19.174  41.467  0.00  0.00     0.011 A 
ATOM     27  C   UNL d   1      46.060 -19.536  41.591  0.00  0.00     0.058 A 
ATOM     28  C   UNL d   1      46.647 -19.138  41.980  0.00  0.00     0.011 A 
ATOM     29 CL   UNL d   1      46.184 -20.330  41.313  0.00  0.00    -0.082 Cl
ATOM     30  C   UNL d   1      46.530 -18.392  42.241  0.00  0.00     0.001 A 
ENDBRANCH   3  24
TORSDOF 7
ENDMDL
