MODEL 1
REMARK VINA RESULT:      -1.5      0.000      0.000
REMARK  3 active torsions:
REMARK  status: ('A' for Active; 'I' for Inactive)
REMARK    1  A    between atoms: C_5  and  N_1 
REMARK    2  A    between atoms: C_13  and  C_3 
REMARK    3  A    between atoms: C_4  and  C_5 
ROOT
ATOM      1  N   UNL d   1      58.991  -0.653  29.175  0.00  0.00    -0.286 N 
ATOM      2  N   UNL d   1      59.175   0.569  29.724  0.00  0.00    -0.224 NA
ATOM      3  C   UNL d   1      59.422   0.050  29.114  0.00  0.00     0.191 A 
ATOM      4  C   UNL d   1      58.471  -0.581  29.824  0.00  0.00     0.083 A 
ATOM      5  C   UNL d   1      58.586   0.169  30.159  0.00  0.00     0.099 A 
ATOM      6  C   UNL d   1      57.905  -1.096  30.158  0.00  0.00     0.019 A 
ATOM      7  C   UNL d   1      58.143   0.410  30.823  0.00  0.00     0.021 A 
ATOM      8  C   UNL d   1      57.466  -0.861  30.815  0.00  0.00     0.002 A 
ATOM      9  C   UNL d   1      57.584  -0.109  31.147  0.00  0.00     0.002 A 
ENDROOT
BRANCH   1  10
ATOM     10  C   UNL d   1      59.179  -1.218  28.604  0.00  0.00     0.082 C 
BRANCH  10  11
ATOM     11  C   UNL d   1      59.389  -1.978  28.833  0.00  0.00     0.018 A 
ATOM     12  C   UNL d   1      60.147  -2.124  29.133  0.00  0.00     0.001 A 
ATOM     13  C   UNL d   1      60.358  -2.883  29.362  0.00  0.00     0.000 A 
ATOM     14  C   UNL d   1      60.687  -1.508  29.199  0.00  0.00     0.000 C 
ATOM     15  C   UNL d   1      61.115  -3.028  29.661  0.00  0.00     0.000 C 
ATOM     16  C   UNL d   1      59.818  -3.499  29.296  0.00  0.00     0.000 A 
ATOM     17  C   UNL d   1      59.061  -3.351  28.996  0.00  0.00     0.000 A 
ATOM     18  C   UNL d   1      58.851  -2.590  28.767  0.00  0.00     0.001 A 
ATOM     19  C   UNL d   1      58.510  -3.956  28.923  0.00  0.00     0.000 C 
ATOM     20  C   UNL d   1      58.101  -2.437  28.469  0.00  0.00     0.000 C 
ENDBRANCH  10  11
ENDBRANCH   1  10
BRANCH   3  21
ATOM     21  C   UNL d   1      59.998   0.217  28.550  0.00  0.00     0.271 C 
ATOM     22  O   UNL d   1      60.649   0.678  28.745  0.00  0.00    -0.280 OA
ENDBRANCH   3  21
TORSDOF 3
ENDMDL
MODEL 2
REMARK VINA RESULT:      -1.5      0.956      3.407
REMARK  3 active torsions:
REMARK  status: ('A' for Active; 'I' for Inactive)
REMARK    1  A    between atoms: C_5  and  N_1 
REMARK    2  A    between atoms: C_13  and  C_3 
REMARK    3  A    between atoms: C_4  and  C_5 
ROOT
ATOM      1  N   UNL d   1      59.257  -0.304  29.196  0.00  0.00    -0.286 N 
ATOM      2  N   UNL d   1      60.240  -0.932  28.512  0.00  0.00    -0.224 NA
ATOM      3  C   UNL d   1      59.961  -0.188  28.778  0.00  0.00     0.191 A 
ATOM      4  C   UNL d   1      59.089  -1.121  29.197  0.00  0.00     0.083 A 
ATOM      5  C   UNL d   1      59.693  -1.505  28.777  0.00  0.00     0.099 A 
ATOM      6  C   UNL d   1      58.468  -1.573  29.523  0.00  0.00     0.019 A 
ATOM      7  C   UNL d   1      59.683  -2.332  28.679  0.00  0.00     0.021 A 
ATOM      8  C   UNL d   1      58.455  -2.392  29.428  0.00  0.00     0.002 A 
ATOM      9  C   UNL d   1      59.062  -2.771  29.007  0.00  0.00     0.002 A 
ENDROOT
BRANCH   1  10
ATOM     10  C   UNL d   1      58.918   0.388  29.492  0.00  0.00     0.082 C 
BRANCH  10  11
ATOM     11  C   UNL d   1      58.719   0.440  30.286  0.00  0.00     0.018 A 
ATOM     12  C   UNL d   1      57.922   0.449  30.512  0.00  0.00     0.001 A 
ATOM     13  C   UNL d   1      57.722   0.501  31.306  0.00  0.00     0.000 A 
ATOM     14  C   UNL d   1      57.334   0.407  29.940  0.00  0.00     0.000 C 
ATOM     15  C   UNL d   1      56.927   0.511  31.531  0.00  0.00     0.000 C 
ATOM     16  C   UNL d   1      58.311   0.544  31.879  0.00  0.00     0.000 A 
ATOM     17  C   UNL d   1      59.107   0.534  31.650  0.00  0.00     0.000 A 
ATOM     18  C   UNL d   1      59.306   0.482  30.854  0.00  0.00     0.001 A 
ATOM     19  C   UNL d   1      59.706   0.576  32.210  0.00  0.00     0.000 C 
ATOM     20  C   UNL d   1      60.093   0.472  30.622  0.00  0.00     0.000 C 
ENDBRANCH  10  11
ENDBRANCH   1  10
BRANCH   3  21
ATOM     21  C   UNL d   1      60.328   0.536  28.642  0.00  0.00     0.271 C 
ATOM     22  O   UNL d   1      61.130   0.567  28.463  0.00  0.00    -0.280 OA
ENDBRANCH   3  21
TORSDOF 3
ENDMDL
MODEL 3
REMARK VINA RESULT:       0.1      1.586      2.581
REMARK  3 active torsions:
REMARK  status: ('A' for Active; 'I' for Inactive)
REMARK    1  A    between atoms: C_5  and  N_1 
REMARK    2  A    between atoms: C_13  and  C_3 
REMARK    3  A    between atoms: C_4  and  C_5 
ROOT
ATOM      1  N   UNL d   1      58.862   0.299  30.454  0.00  0.00    -0.286 N 
ATOM      2  N   UNL d   1      58.167   0.584  31.578  0.00  0.00    -0.224 NA
ATOM      3  C   UNL d   1      58.103   0.420  30.759  0.00  0.00     0.191 A 
ATOM      4  C   UNL d   1      59.409   0.387  31.078  0.00  0.00     0.083 A 
ATOM      5  C   UNL d   1      58.980   0.562  31.767  0.00  0.00     0.099 A 
ATOM      6  C   UNL d   1      60.240   0.332  31.117  0.00  0.00     0.019 A 
ATOM      7  C   UNL d   1      59.373   0.682  32.492  0.00  0.00     0.021 A 
ATOM      8  C   UNL d   1      60.632   0.451  31.834  0.00  0.00     0.002 A 
ATOM      9  C   UNL d   1      60.199   0.625  32.520  0.00  0.00     0.002 A 
ENDROOT
BRANCH   1  10
ATOM     10  C   UNL d   1      58.882   0.131  29.646  0.00  0.00     0.082 C 
BRANCH  10  11
ATOM     11  C   UNL d   1      59.250  -0.552  29.379  0.00  0.00     0.018 A 
ATOM     12  C   UNL d   1      58.863  -1.281  29.442  0.00  0.00     0.001 A 
ATOM     13  C   UNL d   1      59.231  -1.965  29.175  0.00  0.00     0.000 A 
ATOM     14  C   UNL d   1      58.112  -1.320  29.772  0.00  0.00     0.000 C 
ATOM     15  C   UNL d   1      58.845  -2.693  29.238  0.00  0.00     0.000 C 
ATOM     16  C   UNL d   1      59.983  -1.927  28.845  0.00  0.00     0.000 A 
ATOM     17  C   UNL d   1      60.368  -1.197  28.783  0.00  0.00     0.000 A 
ATOM     18  C   UNL d   1      59.998  -0.513  29.051  0.00  0.00     0.001 A 
ATOM     19  C   UNL d   1      61.119  -1.143  28.455  0.00  0.00     0.000 C 
ATOM     20  C   UNL d   1      60.375   0.214  28.992  0.00  0.00     0.000 C 
ENDBRANCH  10  11
ENDBRANCH   1  10
BRANCH   3  21
ATOM     21  C   UNL d   1      57.400   0.385  30.333  0.00  0.00     0.271 C 
ATOM     22  O   UNL d   1      56.699   0.658  30.665  0.00  0.00    -0.280 OA
ENDBRANCH   3  21
TORSDOF 3
ENDMDL
