MODEL 1
REMARK VINA RESULT:      -8.4      0.000      0.000
REMARK  3 active torsions:
REMARK  status: ('A' for Active; 'I' for Inactive)
REMARK    1  A    between atoms: C_9  and  N_1 
REMARK    2  A    between atoms: C_2  and  C_9 
REMARK    3  A    between atoms: S_13  and  C_5 
ROOT
ATOM      1  N   UNL d   1      53.052  32.868  53.276  0.00  0.00    -0.265 N 
ATOM      2  C   UNL d   1      53.086  32.043  53.205  0.00  0.00     0.296 A 
ATOM      3  S   UNL d   1      53.572  31.764  53.808  0.00  0.00    -0.025 SA
ATOM      4  C   UNL d   1      53.509  33.099  53.913  0.00  0.00     0.074 A 
ATOM      5  C   UNL d   1      53.835  32.422  54.248  0.00  0.00     0.050 A 
ATOM      6  O   UNL d   1      52.704  31.590  52.635  0.00  0.00    -0.259 OA
ATOM      7  C   UNL d   1      53.678  33.842  54.243  0.00  0.00     0.018 A 
ATOM      8  C   UNL d   1      54.329  32.479  54.910  0.00  0.00     0.008 A 
ATOM      9  C   UNL d   1      54.172  33.905  54.904  0.00  0.00     0.002 A 
ATOM     10  C   UNL d   1      54.494  33.213  55.232  0.00  0.00     0.001 A 
ENDROOT
BRANCH   1  11
ATOM     11  C   UNL d   1      52.626  33.378  52.785  0.00  0.00     0.123 C 
BRANCH  11  12
ATOM     12  C   UNL d   1      51.833  33.517  52.922  0.00  0.00     0.189 A 
ATOM     13  N   UNL d   1      51.417  34.029  52.436  0.00  0.00    -0.265 N 
ATOM     14  C   UNL d   1      50.640  34.059  52.705  0.00  0.00     0.197 A 
ATOM     15  C   UNL d   1      51.711  34.447  51.789  0.00  0.00     0.103 C 
ATOM     16  N   UNL d   1      50.576  33.565  53.359  0.00  0.00    -0.122 NA
ATOM     17  N   UNL d   1      51.317  33.230  53.491  0.00  0.00    -0.126 NA
BRANCH  14  18
ATOM     18  S   UNL d   1      50.029  34.506  52.379  0.00  0.00    -0.074 SA
ATOM     19  C   UNL d   1      49.437  34.824  52.860  0.00  0.00     0.077 C 
ENDBRANCH  14  18
ENDBRANCH  11  12
ENDBRANCH   1  11
TORSDOF 3
ENDMDL
MODEL 2
REMARK VINA RESULT:      -7.5      1.848      3.614
REMARK  3 active torsions:
REMARK  status: ('A' for Active; 'I' for Inactive)
REMARK    1  A    between atoms: C_9  and  N_1 
REMARK    2  A    between atoms: C_2  and  C_9 
REMARK    3  A    between atoms: S_13  and  C_5 
ROOT
ATOM      1  N   UNL d   1      53.308  32.740  53.201  0.00  0.00    -0.265 N 
ATOM      2  C   UNL d   1      53.985  33.139  53.464  0.00  0.00     0.296 A 
ATOM      3  S   UNL d   1      53.766  33.914  53.631  0.00  0.00    -0.025 SA
ATOM      4  C   UNL d   1      52.675  33.259  53.205  0.00  0.00     0.074 A 
ATOM      5  C   UNL d   1      52.950  33.988  53.470  0.00  0.00     0.050 A 
ATOM      6  O   UNL d   1      54.738  32.816  53.541  0.00  0.00    -0.259 OA
ATOM      7  C   UNL d   1      51.875  33.170  53.002  0.00  0.00     0.018 A 
ATOM      8  C   UNL d   1      52.433  34.631  53.535  0.00  0.00     0.008 A 
ATOM      9  C   UNL d   1      51.354  33.810  53.065  0.00  0.00     0.002 A 
ATOM     10  C   UNL d   1      51.644  34.541  53.334  0.00  0.00     0.001 A 
ENDROOT
BRANCH   1  11
ATOM     11  C   UNL d   1      53.272  31.947  52.972  0.00  0.00     0.123 C 
BRANCH  11  12
ATOM     12  C   UNL d   1      53.306  31.353  53.531  0.00  0.00     0.189 A 
ATOM     13  N   UNL d   1      53.174  30.576  53.311  0.00  0.00    -0.265 N 
ATOM     14  C   UNL d   1      53.244  30.106  53.983  0.00  0.00     0.197 A 
ATOM     15  C   UNL d   1      53.002  30.296  52.554  0.00  0.00     0.103 C 
ATOM     16  N   UNL d   1      53.419  30.596  54.620  0.00  0.00    -0.122 NA
ATOM     17  N   UNL d   1      53.456  31.368  54.337  0.00  0.00    -0.126 NA
BRANCH  14  18
ATOM     18  S   UNL d   1      53.155  29.287  54.016  0.00  0.00    -0.074 SA
ATOM     19  C   UNL d   1      53.286  28.878  54.722  0.00  0.00     0.077 C 
ENDBRANCH  14  18
ENDBRANCH  11  12
ENDBRANCH   1  11
TORSDOF 3
ENDMDL
MODEL 3
REMARK VINA RESULT:      -6.8      2.092      3.072
REMARK  3 active torsions:
REMARK  status: ('A' for Active; 'I' for Inactive)
REMARK    1  A    between atoms: C_9  and  N_1 
REMARK    2  A    between atoms: C_2  and  C_9 
REMARK    3  A    between atoms: S_13  and  C_5 
ROOT
ATOM      1  N   UNL d   1      53.399  31.216  53.458  0.00  0.00    -0.265 N 
ATOM      2  C   UNL d   1      52.951  31.170  52.763  0.00  0.00     0.296 A 
ATOM      3  S   UNL d   1      52.622  30.417  52.730  0.00  0.00    -0.025 SA
ATOM      4  C   UNL d   1      53.350  30.501  53.853  0.00  0.00     0.074 A 
ATOM      5  C   UNL d   1      52.871  30.001  53.410  0.00  0.00     0.050 A 
ATOM      6  O   UNL d   1      52.854  31.770  52.209  0.00  0.00    -0.259 OA
ATOM      7  C   UNL d   1      53.679  30.230  54.566  0.00  0.00     0.018 A 
ATOM      8  C   UNL d   1      52.717  29.231  53.671  0.00  0.00     0.008 A 
ATOM      9  C   UNL d   1      53.528  29.462  54.831  0.00  0.00     0.002 A 
ATOM     10  C   UNL d   1      53.043  28.966  54.374  0.00  0.00     0.001 A 
ENDROOT
BRANCH   1  11
ATOM     11  C   UNL d   1      53.827  31.874  53.715  0.00  0.00     0.123 C 
BRANCH  11  12
ATOM     12  C   UNL d   1      53.439  32.551  53.956  0.00  0.00     0.189 A 
ATOM     13  N   UNL d   1      53.863  33.173  54.278  0.00  0.00    -0.265 N 
ATOM     14  C   UNL d   1      53.331  33.773  54.466  0.00  0.00     0.197 A 
ATOM     15  C   UNL d   1      54.678  33.208  54.400  0.00  0.00     0.103 C 
ATOM     16  N   UNL d   1      52.576  33.519  54.259  0.00  0.00    -0.122 NA
ATOM     17  N   UNL d   1      52.647  32.763  53.943  0.00  0.00    -0.126 NA
BRANCH  14  18
ATOM     18  S   UNL d   1      53.518  34.501  54.804  0.00  0.00    -0.074 SA
ATOM     19  C   UNL d   1      52.995  35.138  54.746  0.00  0.00     0.077 C 
ENDBRANCH  14  18
ENDBRANCH  11  12
ENDBRANCH   1  11
TORSDOF 3
ENDMDL
