MODEL 1
REMARK VINA RESULT:      -6.5      0.000      0.000
REMARK  4 active torsions:
REMARK  status: ('A' for Active; 'I' for Inactive)
REMARK       I    between atoms: C_2  and  N_1 
REMARK       I    between atoms: C_3  and  N_1 
REMARK    1  A    between atoms: C_4  and  C_2 
REMARK       I    between atoms: N_7  and  C_3 
REMARK    2  A    between atoms: C_15  and  N_7 
REMARK    3  A    between atoms: N_11  and  C_16 
REMARK    4  A    between atoms: C_16  and  C_15 
ROOT
ATOM      1  N   UNL d   1     -47.172  12.812  23.193  0.00  0.00    -0.152 NA
ATOM      2  C   UNL d   1     -47.208  13.591  22.913  0.00  0.00     0.283 C 
ATOM      3  C   UNL d   1     -46.448  12.413  23.223  0.00  0.00     0.371 C 
ATOM      4  O   UNL d   1     -46.515  13.972  22.661  0.00  0.00    -0.265 OA
ATOM      5  O   UNL d   1     -45.758  12.782  22.976  0.00  0.00    -0.242 OA
ATOM      6  N   UNL d   1     -46.413  11.630  23.504  0.00  0.00    -0.188 NA
ENDROOT
BRANCH   2   7
ATOM      7  C   UNL d   1     -47.928  13.990  22.883  0.00  0.00     0.058 A 
ATOM      8  C   UNL d   1     -47.953  14.772  22.606  0.00  0.00     0.006 A 
ATOM      9  C   UNL d   1     -48.667  15.177  22.572  0.00  0.00     0.012 A 
ATOM     10  C   UNL d   1     -49.370  14.802  22.817  0.00  0.00     0.058 A 
ATOM     11  C   UNL d   1     -49.338  14.015  23.095  0.00  0.00     0.012 A 
ATOM     12 CL   UNL d   1     -50.098  15.194  22.791  0.00  0.00    -0.082 Cl
ATOM     13  C   UNL d   1     -48.615  13.613  23.126  0.00  0.00     0.006 A 
ENDBRANCH   2   7
BRANCH   6  14
ATOM     14  C   UNL d   1     -45.630  11.406  23.460  0.00  0.00     0.123 C 
BRANCH  14  15
ATOM     15  C   UNL d   1     -45.403  10.651  23.693  0.00  0.00     0.101 C 
BRANCH  15  16
ATOM     16  N   UNL d   1     -44.635  10.396  23.568  0.00  0.00    -0.299 N 
ATOM     17  C   UNL d   1     -44.444   9.611  23.697  0.00  0.00     0.100 C 
ATOM     18  C   UNL d   1     -43.938  10.755  23.323  0.00  0.00     0.100 C 
ENDBRANCH  15  16
ENDBRANCH  14  15
ENDBRANCH   6  14
TORSDOF 4
ENDMDL
MODEL 2
REMARK VINA RESULT:      -5.8      2.173      4.898
REMARK  4 active torsions:
REMARK  status: ('A' for Active; 'I' for Inactive)
REMARK       I    between atoms: C_2  and  N_1 
REMARK       I    between atoms: C_3  and  N_1 
REMARK    1  A    between atoms: C_4  and  C_2 
REMARK       I    between atoms: N_7  and  C_3 
REMARK    2  A    between atoms: C_15  and  N_7 
REMARK    3  A    between atoms: N_11  and  C_16 
REMARK    4  A    between atoms: C_16  and  C_15 
ROOT
ATOM      1  N   UNL d   1     -47.834  12.863  23.234  0.00  0.00    -0.152 NA
ATOM      2  C   UNL d   1     -47.019  12.986  23.147  0.00  0.00     0.283 C 
ATOM      3  C   UNL d   1     -48.361  13.497  23.162  0.00  0.00     0.371 C 
ATOM      4  O   UNL d   1     -46.731  13.748  22.987  0.00  0.00    -0.265 OA
ATOM      5  O   UNL d   1     -48.085  14.253  23.003  0.00  0.00    -0.242 OA
ATOM      6  N   UNL d   1     -49.180  13.372  23.249  0.00  0.00    -0.188 NA
ENDROOT
BRANCH   2   7
ATOM      7  C   UNL d   1     -46.493  12.357  23.219  0.00  0.00     0.058 A 
ATOM      8  C   UNL d   1     -45.738  12.411  22.880  0.00  0.00     0.006 A 
ATOM      9  C   UNL d   1     -45.207  11.788  22.947  0.00  0.00     0.012 A 
ATOM     10  C   UNL d   1     -45.426  11.097  23.358  0.00  0.00     0.058 A 
ATOM     11  C   UNL d   1     -46.188  11.048  23.698  0.00  0.00     0.012 A 
ATOM     12 CL   UNL d   1     -44.906  10.460  23.436  0.00  0.00    -0.082 Cl
ATOM     13  C   UNL d   1     -46.718  11.680  23.626  0.00  0.00     0.006 A 
ENDBRANCH   2   7
BRANCH   6  14
ATOM     14  C   UNL d   1     -49.534  14.099  23.145  0.00  0.00     0.123 C 
BRANCH  14  15
ATOM     15  C   UNL d   1     -50.328  14.202  23.336  0.00  0.00     0.101 C 
BRANCH  15  16
ATOM     16  N   UNL d   1     -50.699  14.914  23.175  0.00  0.00    -0.299 N 
ATOM     17  C   UNL d   1     -51.060  15.026  22.450  0.00  0.00     0.100 C 
ATOM     18  C   UNL d   1     -50.816  15.613  23.591  0.00  0.00     0.100 C 
ENDBRANCH  15  16
ENDBRANCH  14  15
ENDBRANCH   6  14
TORSDOF 4
ENDMDL
MODEL 3
REMARK VINA RESULT:      -5.7      2.360      4.948
REMARK  4 active torsions:
REMARK  status: ('A' for Active; 'I' for Inactive)
REMARK       I    between atoms: C_2  and  N_1 
REMARK       I    between atoms: C_3  and  N_1 
REMARK    1  A    between atoms: C_4  and  C_2 
REMARK       I    between atoms: N_7  and  C_3 
REMARK    2  A    between atoms: C_15  and  N_7 
REMARK    3  A    between atoms: N_11  and  C_16 
REMARK    4  A    between atoms: C_16  and  C_15 
ROOT
ATOM      1  N   UNL d   1     -47.257  13.797  22.644  0.00  0.00    -0.152 NA
ATOM      2  C   UNL d   1     -46.827  13.161  22.957  0.00  0.00     0.283 C 
ATOM      3  C   UNL d   1     -48.016  13.966  22.927  0.00  0.00     0.371 C 
ATOM      4  O   UNL d   1     -47.159  12.692  23.556  0.00  0.00    -0.265 OA
ATOM      5  O   UNL d   1     -48.352  13.507  23.519  0.00  0.00    -0.242 OA
ATOM      6  N   UNL d   1     -48.447  14.604  22.613  0.00  0.00    -0.188 NA
ENDROOT
BRANCH   2   7
ATOM      7  C   UNL d   1     -46.072  12.991  22.677  0.00  0.00     0.058 A 
ATOM      8  C   UNL d   1     -45.714  12.268  22.870  0.00  0.00     0.006 A 
ATOM      9  C   UNL d   1     -44.961  12.091  22.595  0.00  0.00     0.012 A 
ATOM     10  C   UNL d   1     -44.552  12.639  22.118  0.00  0.00     0.058 A 
ATOM     11  C   UNL d   1     -44.918  13.366  21.927  0.00  0.00     0.012 A 
ATOM     12 CL   UNL d   1     -43.793  12.479  21.832  0.00  0.00    -0.082 Cl
ATOM     13  C   UNL d   1     -45.677  13.538  22.208  0.00  0.00     0.006 A 
ENDBRANCH   2   7
BRANCH   6  14
ATOM     14  C   UNL d   1     -49.161  14.615  23.008  0.00  0.00     0.123 C 
BRANCH  14  15
ATOM     15  C   UNL d   1     -49.735  15.169  22.807  0.00  0.00     0.101 C 
BRANCH  15  16
ATOM     16  N   UNL d   1     -50.412  15.241  23.261  0.00  0.00    -0.299 N 
ATOM     17  C   UNL d   1     -50.535  15.922  23.698  0.00  0.00     0.100 C 
ATOM     18  C   UNL d   1     -51.064  14.764  23.409  0.00  0.00     0.100 C 
ENDBRANCH  15  16
ENDBRANCH  14  15
ENDBRANCH   6  14
TORSDOF 4
ENDMDL
MODEL 4
REMARK VINA RESULT:      -5.5      1.599      1.940
REMARK  4 active torsions:
REMARK  status: ('A' for Active; 'I' for Inactive)
REMARK       I    between atoms: C_2  and  N_1 
REMARK       I    between atoms: C_3  and  N_1 
REMARK    1  A    between atoms: C_4  and  C_2 
REMARK       I    between atoms: N_7  and  C_3 
REMARK    2  A    between atoms: C_15  and  N_7 
REMARK    3  A    between atoms: N_11  and  C_16 
REMARK    4  A    between atoms: C_16  and  C_15 
ROOT
ATOM      1  N   UNL d   1     -46.760  13.659  22.344  0.00  0.00    -0.152 NA
ATOM      2  C   UNL d   1     -47.317  13.559  22.949  0.00  0.00     0.283 C 
ATOM      3  C   UNL d   1     -46.022  13.288  22.391  0.00  0.00     0.371 C 
ATOM      4  O   UNL d   1     -47.134  13.085  23.605  0.00  0.00    -0.265 OA
ATOM      5  O   UNL d   1     -45.832  12.817  23.037  0.00  0.00    -0.242 OA
ATOM      6  N   UNL d   1     -45.463  13.389  21.783  0.00  0.00    -0.188 NA
ENDROOT
BRANCH   2   7
ATOM      7  C   UNL d   1     -48.052  13.927  22.903  0.00  0.00     0.058 A 
ATOM      8  C   UNL d   1     -48.744  13.472  22.952  0.00  0.00     0.006 A 
ATOM      9  C   UNL d   1     -49.481  13.832  22.907  0.00  0.00     0.012 A 
ATOM     10  C   UNL d   1     -49.536  14.658  22.812  0.00  0.00     0.058 A 
ATOM     11  C   UNL d   1     -48.836  15.111  22.764  0.00  0.00     0.012 A 
ATOM     12 CL   UNL d   1     -50.269  15.038  22.765  0.00  0.00    -0.082 Cl
ATOM     13  C   UNL d   1     -48.096  14.742  22.810  0.00  0.00     0.006 A 
ENDBRANCH   2   7
BRANCH   6  14
ATOM     14  C   UNL d   1     -44.807  12.955  22.001  0.00  0.00     0.123 C 
BRANCH  14  15
ATOM     15  C   UNL d   1     -44.221  12.788  21.448  0.00  0.00     0.101 C 
BRANCH  15  16
ATOM     16  N   UNL d   1     -43.489  12.515  21.695  0.00  0.00    -0.299 N 
ATOM     17  C   UNL d   1     -42.809  12.857  21.398  0.00  0.00     0.100 C 
ATOM     18  C   UNL d   1     -43.234  11.932  22.215  0.00  0.00     0.100 C 
ENDBRANCH  15  16
ENDBRANCH  14  15
ENDBRANCH   6  14
TORSDOF 4
ENDMDL
MODEL 5
REMARK VINA RESULT:      -5.1      8.059      8.996
REMARK  4 active torsions:
REMARK  status: ('A' for Active; 'I' for Inactive)
REMARK       I    between atoms: C_2  and  N_1 
REMARK       I    between atoms: C_3  and  N_1 
REMARK    1  A    between atoms: C_4  and  C_2 
REMARK       I    between atoms: N_7  and  C_3 
REMARK    2  A    between atoms: C_15  and  N_7 
REMARK    3  A    between atoms: N_11  and  C_16 
REMARK    4  A    between atoms: C_16  and  C_15 
ROOT
ATOM      1  N   UNL d   1     -39.732  14.794  20.271  0.00  0.00    -0.152 NA
ATOM      2  C   UNL d   1     -39.963  14.977  21.045  0.00  0.00     0.283 C 
ATOM      3  C   UNL d   1     -40.181  15.059  19.628  0.00  0.00     0.371 C 
ATOM      4  O   UNL d   1     -40.647  15.427  21.177  0.00  0.00    -0.265 OA
ATOM      5  O   UNL d   1     -40.860  15.505  19.749  0.00  0.00    -0.242 OA
ATOM      6  N   UNL d   1     -39.948  14.875  18.851  0.00  0.00    -0.188 NA
ENDROOT
BRANCH   2   7
ATOM      7  C   UNL d   1     -39.517  14.714  21.686  0.00  0.00     0.058 A 
ATOM      8  C   UNL d   1     -39.099  15.261  22.148  0.00  0.00     0.006 A 
ATOM      9  C   UNL d   1     -38.652  15.008  22.789  0.00  0.00     0.012 A 
ATOM     10  C   UNL d   1     -38.617  14.196  22.977  0.00  0.00     0.058 A 
ATOM     11  C   UNL d   1     -39.041  13.650  22.508  0.00  0.00     0.012 A 
ATOM     12 CL   UNL d   1     -38.173  13.922  23.618  0.00  0.00    -0.082 Cl
ATOM     13  C   UNL d   1     -39.489  13.913  21.864  0.00  0.00     0.006 A 
ENDBRANCH   2   7
BRANCH   6  14
ATOM     14  C   UNL d   1     -40.503  15.215  18.359  0.00  0.00     0.123 C 
BRANCH  14  15
ATOM     15  C   UNL d   1     -40.599  14.937  17.591  0.00  0.00     0.101 C 
BRANCH  15  16
ATOM     16  N   UNL d   1     -40.649  15.465  16.967  0.00  0.00    -0.299 N 
ATOM     17  C   UNL d   1     -41.376  15.625  16.630  0.00  0.00     0.100 C 
ATOM     18  C   UNL d   1     -40.107  15.922  16.550  0.00  0.00     0.100 C 
ENDBRANCH  15  16
ENDBRANCH  14  15
ENDBRANCH   6  14
TORSDOF 4
ENDMDL
MODEL 6
REMARK VINA RESULT:      -5.1      2.570      3.114
REMARK  4 active torsions:
REMARK  status: ('A' for Active; 'I' for Inactive)
REMARK       I    between atoms: C_2  and  N_1 
REMARK       I    between atoms: C_3  and  N_1 
REMARK    1  A    between atoms: C_4  and  C_2 
REMARK       I    between atoms: N_7  and  C_3 
REMARK    2  A    between atoms: C_15  and  N_7 
REMARK    3  A    between atoms: N_11  and  C_16 
REMARK    4  A    between atoms: C_16  and  C_15 
ROOT
ATOM      1  N   UNL d   1     -45.483  12.675  22.261  0.00  0.00    -0.152 NA
ATOM      2  C   UNL d   1     -46.070  13.107  22.655  0.00  0.00     0.283 C 
ATOM      3  C   UNL d   1     -44.769  13.035  22.052  0.00  0.00     0.371 C 
ATOM      4  O   UNL d   1     -45.940  13.906  22.841  0.00  0.00    -0.265 OA
ATOM      5  O   UNL d   1     -44.632  13.824  22.231  0.00  0.00    -0.242 OA
ATOM      6  N   UNL d   1     -44.181  12.599  21.656  0.00  0.00    -0.188 NA
ENDROOT
BRANCH   2   7
ATOM      7  C   UNL d   1     -46.782  12.750  22.865  0.00  0.00     0.058 A 
ATOM      8  C   UNL d   1     -46.798  12.197  23.483  0.00  0.00     0.006 A 
ATOM      9  C   UNL d   1     -47.504  11.836  23.698  0.00  0.00     0.012 A 
ATOM     10  C   UNL d   1     -48.208  12.025  23.294  0.00  0.00     0.058 A 
ATOM     11  C   UNL d   1     -48.185  12.584  22.673  0.00  0.00     0.012 A 
ATOM     12 CL   UNL d   1     -48.928  11.673  23.496  0.00  0.00    -0.082 Cl
ATOM     13  C   UNL d   1     -47.470  12.943  22.461  0.00  0.00     0.006 A 
ENDBRANCH   2   7
BRANCH   6  14
ATOM     14  C   UNL d   1     -43.558  13.113  21.535  0.00  0.00     0.123 C 
BRANCH  14  15
ATOM     15  C   UNL d   1     -42.847  12.834  21.229  0.00  0.00     0.101 C 
BRANCH  15  16
ATOM     16  N   UNL d   1     -42.235  13.355  21.073  0.00  0.00    -0.299 N 
ATOM     17  C   UNL d   1     -41.568  13.347  21.546  0.00  0.00     0.100 C 
ATOM     18  C   UNL d   1     -42.102  13.941  20.513  0.00  0.00     0.100 C 
ENDBRANCH  15  16
ENDBRANCH  14  15
ENDBRANCH   6  14
TORSDOF 4
ENDMDL
MODEL 7
REMARK VINA RESULT:      -4.8      8.740     10.046
REMARK  4 active torsions:
REMARK  status: ('A' for Active; 'I' for Inactive)
REMARK       I    between atoms: C_2  and  N_1 
REMARK       I    between atoms: C_3  and  N_1 
REMARK    1  A    between atoms: C_4  and  C_2 
REMARK       I    between atoms: N_7  and  C_3 
REMARK    2  A    between atoms: C_15  and  N_7 
REMARK    3  A    between atoms: N_11  and  C_16 
REMARK    4  A    between atoms: C_16  and  C_15 
ROOT
ATOM      1  N   UNL d   1     -38.563  13.995  18.605  0.00  0.00    -0.152 NA
ATOM      2  C   UNL d   1     -39.080  13.861  17.972  0.00  0.00     0.283 C 
ATOM      3  C   UNL d   1     -38.845  13.988  19.383  0.00  0.00     0.371 C 
ATOM      4  O   UNL d   1     -39.884  13.718  18.118  0.00  0.00    -0.265 OA
ATOM      5  O   UNL d   1     -39.640  13.847  19.537  0.00  0.00    -0.242 OA
ATOM      6  N   UNL d   1     -38.325  14.123  20.018  0.00  0.00    -0.188 NA
ENDROOT
BRANCH   2   7
ATOM      7  C   UNL d   1     -38.801  13.868  17.197  0.00  0.00     0.058 A 
ATOM      8  C   UNL d   1     -38.317  13.250  16.929  0.00  0.00     0.006 A 
ATOM      9  C   UNL d   1     -38.034  13.249  16.157  0.00  0.00     0.012 A 
ATOM     10  C   UNL d   1     -38.233  13.872  15.641  0.00  0.00     0.058 A 
ATOM     11  C   UNL d   1     -38.721  14.492  15.917  0.00  0.00     0.012 A 
ATOM     12 CL   UNL d   1     -37.958  13.889  14.861  0.00  0.00    -0.082 Cl
ATOM     13  C   UNL d   1     -39.002  14.486  16.695  0.00  0.00     0.006 A 
ENDBRANCH   2   7
BRANCH   6  14
ATOM     14  C   UNL d   1     -38.777  14.078  20.697  0.00  0.00     0.123 C 
BRANCH  14  15
ATOM     15  C   UNL d   1     -38.414  13.955  21.425  0.00  0.00     0.101 C 
BRANCH  15  16
ATOM     16  N   UNL d   1     -38.780  14.209  22.112  0.00  0.00    -0.299 N 
ATOM     17  C   UNL d   1     -39.028  13.660  22.665  0.00  0.00     0.100 C 
ATOM     18  C   UNL d   1     -38.982  14.942  22.424  0.00  0.00     0.100 C 
ENDBRANCH  15  16
ENDBRANCH  14  15
ENDBRANCH   6  14
TORSDOF 4
ENDMDL
MODEL 8
REMARK VINA RESULT:      -4.3      1.981      2.338
REMARK  4 active torsions:
REMARK  status: ('A' for Active; 'I' for Inactive)
REMARK       I    between atoms: C_2  and  N_1 
REMARK       I    between atoms: C_3  and  N_1 
REMARK    1  A    between atoms: C_4  and  C_2 
REMARK       I    between atoms: N_7  and  C_3 
REMARK    2  A    between atoms: C_15  and  N_7 
REMARK    3  A    between atoms: N_11  and  C_16 
REMARK    4  A    between atoms: C_16  and  C_15 
ROOT
ATOM      1  N   UNL d   1     -47.252  12.837  22.514  0.00  0.00    -0.152 NA
ATOM      2  C   UNL d   1     -47.951  12.753  22.078  0.00  0.00     0.283 C 
ATOM      3  C   UNL d   1     -46.521  12.864  22.128  0.00  0.00     0.371 C 
ATOM      4  O   UNL d   1     -47.919  12.697  21.251  0.00  0.00    -0.265 OA
ATOM      5  O   UNL d   1     -46.479  12.809  21.310  0.00  0.00    -0.242 OA
ATOM      6  N   UNL d   1     -45.819  12.948  22.567  0.00  0.00    -0.188 NA
ENDROOT
BRANCH   2   7
ATOM      7  C   UNL d   1     -48.680  12.726  22.461  0.00  0.00     0.058 A 
ATOM      8  C   UNL d   1     -48.956  12.007  22.770  0.00  0.00     0.006 A 
ATOM      9  C   UNL d   1     -49.681  11.971  23.153  0.00  0.00     0.012 A 
ATOM     10  C   UNL d   1     -50.145  12.659  23.232  0.00  0.00     0.058 A 
ATOM     11  C   UNL d   1     -49.862  13.380  22.919  0.00  0.00     0.012 A 
ATOM     12 CL   UNL d   1     -50.878  12.642  23.614  0.00  0.00    -0.082 Cl
ATOM     13  C   UNL d   1     -49.130  13.409  22.534  0.00  0.00     0.006 A 
ENDBRANCH   2   7
BRANCH   6  14
ATOM     14  C   UNL d   1     -45.209  12.956  22.024  0.00  0.00     0.123 C 
BRANCH  14  15
ATOM     15  C   UNL d   1     -44.430  12.884  22.278  0.00  0.00     0.101 C 
BRANCH  15  16
ATOM     16  N   UNL d   1     -43.825  12.815  21.731  0.00  0.00    -0.299 N 
ATOM     17  C   UNL d   1     -43.290  12.200  21.795  0.00  0.00     0.100 C 
ATOM     18  C   UNL d   1     -43.591  13.243  21.070  0.00  0.00     0.100 C 
ENDBRANCH  15  16
ENDBRANCH  14  15
ENDBRANCH   6  14
TORSDOF 4
ENDMDL
