MODEL 1
REMARK VINA RESULT:      88.4      0.000      0.000
REMARK  6 active torsions:
REMARK  status: ('A' for Active; 'I' for Inactive)
REMARK    1  A    between atoms: S_5  and  C_2 
REMARK    2  A    between atoms: C_16  and  S_5 
REMARK    3  A    between atoms: N_11  and  C_8 
REMARK    4  A    between atoms: C_18  and  N_11 
REMARK    5  A    between atoms: C_19  and  N_12 
REMARK    6  A    between atoms: C_27  and  C_19 
ROOT
ATOM      1  C   UNL d   1      14.405  14.072  -2.047  0.00  0.00     0.197 A 
ATOM      2  C   UNL d   1      14.801  14.237  -1.343  0.00  0.00     0.227 A 
ATOM      3  N   UNL d   1      14.303  13.257  -2.096  0.00  0.00    -0.192 N 
ATOM      4  N   UNL d   1      14.124  14.564  -2.652  0.00  0.00    -0.206 NA
ATOM      5  N   UNL d   1      14.945  13.513  -0.953  0.00  0.00    -0.115 NA
ATOM      6  N   UNL d   1      14.633  12.907  -1.426  0.00  0.00    -0.058 NA
ATOM      7  C   UNL d   1      13.738  14.243  -3.310  0.00  0.00     0.166 A 
ATOM      8  C   UNL d   1      13.639  13.422  -3.354  0.00  0.00     0.054 A 
ATOM      9  C   UNL d   1      13.918  12.930  -2.753  0.00  0.00     0.089 A 
ATOM     10  C   UNL d   1      13.817  12.111  -2.800  0.00  0.00     0.020 A 
ATOM     11  C   UNL d   1      13.255  13.093  -4.008  0.00  0.00     0.016 A 
ATOM     12  C   UNL d   1      13.152  12.277  -4.058  0.00  0.00     0.058 A 
ATOM     13  C   UNL d   1      13.434  11.785  -3.453  0.00  0.00     0.013 A 
ATOM     14 CL   UNL d   1      12.770  11.952  -4.710  0.00  0.00    -0.082 Cl
ENDROOT
BRANCH   7  15
ATOM     15  N   UNL d   1      13.458  14.732  -3.912  0.00  0.00    -0.227 NA
BRANCH  15  16
ATOM     16  C   UNL d   1      13.914  15.365  -4.176  0.00  0.00     0.086 A 
ATOM     17  C   UNL d   1      14.129  15.416  -4.971  0.00  0.00     0.038 A 
ATOM     18  C   UNL d   1      14.583  16.049  -5.227  0.00  0.00     0.082 A 
ATOM     19  N   UNL d   1      14.829  16.637  -4.694  0.00  0.00    -0.302 N 
ATOM     20  C   UNL d   1      14.611  16.578  -3.901  0.00  0.00     0.082 A 
ATOM     21  C   UNL d   1      14.156  15.946  -3.644  0.00  0.00     0.038 A 
BRANCH  19  22
ATOM     22  C   UNL d   1      15.284  17.269  -4.954  0.00  0.00     0.080 C 
BRANCH  22  23
ATOM     23  C   UNL d   1      14.922  17.926  -5.298  0.00  0.00     0.018 A 
ATOM     24  C   UNL d   1      14.961  18.663  -4.931  0.00  0.00     0.002 A 
ATOM     25  C   UNL d   1      14.600  19.322  -5.272  0.00  0.00     0.000 A 
ATOM     26  C   UNL d   1      14.196  19.240  -5.986  0.00  0.00     0.000 A 
ATOM     27  C   UNL d   1      14.154  18.498  -6.358  0.00  0.00     0.000 A 
ATOM     28  C   UNL d   1      14.518  17.844  -6.011  0.00  0.00     0.002 A 
ENDBRANCH  22  23
ENDBRANCH  19  22
ENDBRANCH  15  16
ENDBRANCH   7  15
BRANCH   2  29
ATOM     29  S   UNL d   1      15.022  14.984  -1.061  0.00  0.00     0.231 S 
ATOM     30  O   UNL d   1      14.344  15.041  -0.601  0.00  0.00    -0.215 OA
ATOM     31  O   UNL d   1      15.704  14.923  -1.526  0.00  0.00    -0.215 OA
BRANCH  29  32
ATOM     32  C   UNL d   1      15.290  15.723  -0.812  0.00  0.00     0.090 A 
ATOM     33  C   UNL d   1      14.942  16.403  -1.109  0.00  0.00     0.011 A 
ATOM     34  C   UNL d   1      15.209  17.142  -0.860  0.00  0.00     0.001 A 
ATOM     35  C   UNL d   1      15.826  17.189  -0.314  0.00  0.00     0.000 A 
ATOM     36  C   UNL d   1      16.177  16.502  -0.016  0.00  0.00     0.001 A 
ATOM     37  C   UNL d   1      15.905  15.771  -0.269  0.00  0.00     0.011 A 
ENDBRANCH  29  32
ENDBRANCH   2  29
TORSDOF 6
ENDMDL
MODEL 2
REMARK VINA RESULT:      88.8      1.665      3.536
REMARK  6 active torsions:
REMARK  status: ('A' for Active; 'I' for Inactive)
REMARK    1  A    between atoms: S_5  and  C_2 
REMARK    2  A    between atoms: C_16  and  S_5 
REMARK    3  A    between atoms: N_11  and  C_8 
REMARK    4  A    between atoms: C_18  and  N_11 
REMARK    5  A    between atoms: C_19  and  N_12 
REMARK    6  A    between atoms: C_27  and  C_19 
ROOT
ATOM      1  C   UNL d   1      14.621  14.093  -2.041  0.00  0.00     0.197 A 
ATOM      2  C   UNL d   1      14.539  13.303  -2.260  0.00  0.00     0.227 A 
ATOM      3  N   UNL d   1      15.112  14.125  -1.382  0.00  0.00    -0.192 N 
ATOM      4  N   UNL d   1      14.308  14.791  -2.362  0.00  0.00    -0.206 NA
ATOM      5  N   UNL d   1      14.986  12.841  -1.728  0.00  0.00    -0.115 NA
ATOM      6  N   UNL d   1      15.340  13.358  -1.184  0.00  0.00    -0.058 NA
ATOM      7  C   UNL d   1      14.485  15.525  -2.024  0.00  0.00     0.166 A 
ATOM      8  C   UNL d   1      14.980  15.551  -1.361  0.00  0.00     0.054 A 
ATOM      9  C   UNL d   1      15.293  14.858  -1.039  0.00  0.00     0.089 A 
ATOM     10  C   UNL d   1      15.786  14.887  -0.377  0.00  0.00     0.020 A 
ATOM     11  C   UNL d   1      15.163  16.281  -1.016  0.00  0.00     0.016 A 
ATOM     12  C   UNL d   1      15.654  16.313  -0.356  0.00  0.00     0.058 A 
ATOM     13  C   UNL d   1      15.967  15.615  -0.036  0.00  0.00     0.013 A 
ATOM     14 CL   UNL d   1      15.834  17.041  -0.015  0.00  0.00    -0.082 Cl
ENDROOT
BRANCH   7  15
ATOM     15  N   UNL d   1      14.175  16.220  -2.343  0.00  0.00    -0.227 NA
BRANCH  15  16
ATOM     16  C   UNL d   1      14.450  16.502  -3.065  0.00  0.00     0.086 A 
ATOM     17  C   UNL d   1      15.248  16.688  -3.160  0.00  0.00     0.038 A 
ATOM     18  C   UNL d   1      15.516  16.969  -3.882  0.00  0.00     0.082 A 
ATOM     19  N   UNL d   1      14.991  17.068  -4.518  0.00  0.00    -0.302 N 
ATOM     20  C   UNL d   1      14.194  16.880  -4.416  0.00  0.00     0.082 A 
ATOM     21  C   UNL d   1      13.926  16.599  -3.693  0.00  0.00     0.038 A 
BRANCH  19  22
ATOM     22  C   UNL d   1      15.261  17.349  -5.241  0.00  0.00     0.080 C 
BRANCH  22  23
ATOM     23  C   UNL d   1      14.860  17.961  -5.622  0.00  0.00     0.018 A 
ATOM     24  C   UNL d   1      14.129  17.822  -5.977  0.00  0.00     0.002 A 
ATOM     25  C   UNL d   1      13.725  18.432  -6.359  0.00  0.00     0.000 A 
ATOM     26  C   UNL d   1      14.057  19.185  -6.386  0.00  0.00     0.000 A 
ATOM     27  C   UNL d   1      14.794  19.329  -6.030  0.00  0.00     0.000 A 
ATOM     28  C   UNL d   1      15.192  18.715  -5.649  0.00  0.00     0.002 A 
ENDBRANCH  22  23
ENDBRANCH  19  22
ENDBRANCH  15  16
ENDBRANCH   7  15
BRANCH   2  29
ATOM     29  S   UNL d   1      14.095  13.006  -2.893  0.00  0.00     0.231 S 
ATOM     30  O   UNL d   1      13.936  12.308  -2.490  0.00  0.00    -0.215 OA
ATOM     31  O   UNL d   1      14.256  13.711  -3.296  0.00  0.00    -0.215 OA
BRANCH  29  32
ATOM     32  C   UNL d   1      13.663  12.759  -3.552  0.00  0.00     0.090 A 
ATOM     33  C   UNL d   1      13.699  13.192  -4.247  0.00  0.00     0.011 A 
ATOM     34  C   UNL d   1      13.269  12.945  -4.906  0.00  0.00     0.001 A 
ATOM     35  C   UNL d   1      12.805  12.264  -4.857  0.00  0.00     0.000 A 
ATOM     36  C   UNL d   1      12.770  11.828  -4.154  0.00  0.00     0.001 A 
ATOM     37  C   UNL d   1      13.202  12.081  -3.504  0.00  0.00     0.011 A 
ENDBRANCH  29  32
ENDBRANCH   2  29
TORSDOF 6
ENDMDL
MODEL 3
REMARK VINA RESULT:      89.6      2.019      5.237
REMARK  6 active torsions:
REMARK  status: ('A' for Active; 'I' for Inactive)
REMARK    1  A    between atoms: S_5  and  C_2 
REMARK    2  A    between atoms: C_16  and  S_5 
REMARK    3  A    between atoms: N_11  and  C_8 
REMARK    4  A    between atoms: C_18  and  N_11 
REMARK    5  A    between atoms: C_19  and  N_12 
REMARK    6  A    between atoms: C_27  and  C_19 
ROOT
ATOM      1  C   UNL d   1      13.771  15.590  -4.747  0.00  0.00     0.197 A 
ATOM      2  C   UNL d   1      13.267  14.966  -4.934  0.00  0.00     0.227 A 
ATOM      3  N   UNL d   1      13.602  16.215  -5.256  0.00  0.00    -0.192 N 
ATOM      4  N   UNL d   1      14.366  15.669  -4.176  0.00  0.00    -0.206 NA
ATOM      5  N   UNL d   1      12.779  15.209  -5.567  0.00  0.00    -0.115 NA
ATOM      6  N   UNL d   1      12.993  15.987  -5.762  0.00  0.00    -0.058 NA
ATOM      7  C   UNL d   1      14.796  16.373  -4.109  0.00  0.00     0.166 A 
ATOM      8  C   UNL d   1      14.621  16.998  -4.623  0.00  0.00     0.054 A 
ATOM      9  C   UNL d   1      14.029  16.923  -5.194  0.00  0.00     0.089 A 
ATOM     10  C   UNL d   1      13.857  17.548  -5.705  0.00  0.00     0.020 A 
ATOM     11  C   UNL d   1      15.045  17.705  -4.564  0.00  0.00     0.016 A 
ATOM     12  C   UNL d   1      14.876  18.331  -5.072  0.00  0.00     0.058 A 
ATOM     13  C   UNL d   1      14.281  18.252  -5.644  0.00  0.00     0.013 A 
ATOM     14 CL   UNL d   1      15.300  19.034  -5.011  0.00  0.00    -0.082 Cl
ENDROOT
BRANCH   7  15
ATOM     15  N   UNL d   1      15.388  16.451  -3.540  0.00  0.00    -0.227 NA
BRANCH  15  16
ATOM     16  C   UNL d   1      15.268  16.167  -2.777  0.00  0.00     0.086 A 
ATOM     17  C   UNL d   1      15.423  15.376  -2.600  0.00  0.00     0.038 A 
ATOM     18  C   UNL d   1      15.301  15.100  -1.838  0.00  0.00     0.082 A 
ATOM     19  N   UNL d   1      15.023  15.608  -1.243  0.00  0.00    -0.302 N 
ATOM     20  C   UNL d   1      14.869  16.398  -1.427  0.00  0.00     0.082 A 
ATOM     21  C   UNL d   1      14.991  16.674  -2.190  0.00  0.00     0.038 A 
BRANCH  19  22
ATOM     22  C   UNL d   1      14.901  15.329  -0.480  0.00  0.00     0.080 C 
BRANCH  22  23
ATOM     23  C   UNL d   1      14.924  14.519  -0.328  0.00  0.00     0.018 A 
ATOM     24  C   UNL d   1      14.227  14.100  -0.193  0.00  0.00     0.002 A 
ATOM     25  C   UNL d   1      14.247  13.290  -0.041  0.00  0.00     0.000 A 
ATOM     26  C   UNL d   1      14.971  12.896  -0.024  0.00  0.00     0.000 A 
ATOM     27  C   UNL d   1      15.675  13.315  -0.161  0.00  0.00     0.000 A 
ATOM     28  C   UNL d   1      15.648  14.125  -0.312  0.00  0.00     0.002 A 
ENDBRANCH  22  23
ENDBRANCH  19  22
ENDBRANCH  15  16
ENDBRANCH   7  15
BRANCH   2  29
ATOM     29  S   UNL d   1      13.238  14.224  -4.567  0.00  0.00     0.231 S 
ATOM     30  O   UNL d   1      12.772  14.514  -3.956  0.00  0.00    -0.215 OA
ATOM     31  O   UNL d   1      13.708  13.935  -5.184  0.00  0.00    -0.215 OA
BRANCH  29  32
ATOM     32  C   UNL d   1      13.242  13.464  -4.244  0.00  0.00     0.090 A 
ATOM     33  C   UNL d   1      13.290  12.813  -4.739  0.00  0.00     0.011 A 
ATOM     34  C   UNL d   1      13.294  12.054  -4.417  0.00  0.00     0.001 A 
ATOM     35  C   UNL d   1      13.249  11.959  -3.598  0.00  0.00     0.000 A 
ATOM     36  C   UNL d   1      13.201  12.619  -3.100  0.00  0.00     0.001 A 
ATOM     37  C   UNL d   1      13.197  13.369  -3.429  0.00  0.00     0.011 A 
ENDBRANCH  29  32
ENDBRANCH   2  29
TORSDOF 6
ENDMDL
