MODEL 1
REMARK VINA RESULT:      -1.0      0.000      0.000
REMARK  5 active torsions:
REMARK  status: ('A' for Active; 'I' for Inactive)
REMARK    1  A    between atoms: S_12  and  C_4 
REMARK    2  A    between atoms: C_7  and  C_5 
REMARK    3  A    between atoms: C_20  and  S_12 
REMARK    4  A    between atoms: C_14  and  C_20 
REMARK    5  A    between atoms: O_21  and  C_14 
ROOT
ATOM      1  C   UNL d   1      58.651  -0.834  30.088  0.00  0.00     0.095 A 
ATOM      2  C   UNL d   1      58.991  -2.034  29.366  0.00  0.00     0.108 A 
ATOM      3  N   UNL d   1      57.732  -1.946  30.062  0.00  0.00    -0.217 NA
ATOM      4  C   UNL d   1      57.925  -1.174  30.312  0.00  0.00     0.122 A 
ATOM      5  C   UNL d   1      59.181  -1.268  29.615  0.00  0.00     0.047 A 
ATOM      6  C   UNL d   1      58.264  -2.375  29.590  0.00  0.00     0.194 A 
ATOM      7  C   UNL d   1      59.514  -2.443  28.909  0.00  0.00     0.104 C 
ATOM      8  C   UNL d   1      58.849  -0.070  30.332  0.00  0.00     0.103 C 
ATOM      9  N   UNL d   1      59.043   0.682  30.571  0.00  0.00    -0.191 NA
ATOM     10  N   UNL d   1      60.024  -2.851  28.458  0.00  0.00    -0.191 NA
ATOM     11  N   UNL d   1      58.072  -3.147  29.340  0.00  0.00    -0.126 N 
ENDROOT
BRANCH   5  12
ATOM     12  C   UNL d   1      59.886  -0.938  29.398  0.00  0.00     0.102 A 
ATOM     13  O   UNL d   1      60.524  -0.829  29.885  0.00  0.00    -0.305 OA
ATOM     14  C   UNL d   1      61.133  -0.469  29.429  0.00  0.00     0.123 A 
ATOM     15  C   UNL d   1      60.847  -0.375  28.699  0.00  0.00     0.029 A 
ATOM     16  C   UNL d   1      60.095  -0.651  28.654  0.00  0.00     0.027 A 
ENDBRANCH   5  12
BRANCH   4  17
ATOM     17  S   UNL d   1      57.393  -0.748  30.782  0.00  0.00    -0.061 SA
BRANCH  17  18
ATOM     18  C   UNL d   1      57.090  -1.069  31.446  0.00  0.00     0.105 C 
BRANCH  18  19
ATOM     19  C   UNL d   1      56.620  -0.643  31.918  0.00  0.00     0.303 C 
ATOM     20  O   UNL d   1      56.261  -0.258  31.746  0.00  0.00    -0.259 OA
BRANCH  19  21
ATOM     21  O   UNL d   1      56.644  -0.756  32.713  0.00  0.00    -0.295 OA
ATOM     22  C   UNL d   1      55.979  -0.679  33.151  0.00  0.00     0.185 C 
ENDBRANCH  19  21
ENDBRANCH  18  19
ENDBRANCH  17  18
ENDBRANCH   4  17
TORSDOF 5
ENDMDL
MODEL 2
REMARK VINA RESULT:      -0.4      1.657      2.430
REMARK  5 active torsions:
REMARK  status: ('A' for Active; 'I' for Inactive)
REMARK    1  A    between atoms: S_12  and  C_4 
REMARK    2  A    between atoms: C_7  and  C_5 
REMARK    3  A    between atoms: C_20  and  S_12 
REMARK    4  A    between atoms: C_14  and  C_20 
REMARK    5  A    between atoms: O_21  and  C_14 
ROOT
ATOM      1  C   UNL d   1      58.175   0.096  30.674  0.00  0.00     0.095 A 
ATOM      2  C   UNL d   1      59.524   0.382  31.094  0.00  0.00     0.108 A 
ATOM      3  N   UNL d   1      58.453   0.396  32.058  0.00  0.00    -0.217 NA
ATOM      4  C   UNL d   1      57.910   0.200  31.457  0.00  0.00     0.122 A 
ATOM      5  C   UNL d   1      58.983   0.188  30.498  0.00  0.00     0.047 A 
ATOM      6  C   UNL d   1      59.258   0.486  31.877  0.00  0.00     0.194 A 
ATOM      7  C   UNL d   1      60.304   0.468  30.909  0.00  0.00     0.104 C 
ATOM      8  C   UNL d   1      57.643  -0.098  30.073  0.00  0.00     0.103 C 
ATOM      9  N   UNL d   1      57.119  -0.288  29.482  0.00  0.00    -0.191 NA
ATOM     10  N   UNL d   1      61.073   0.554  30.733  0.00  0.00    -0.191 NA
ATOM     11  N   UNL d   1      59.802   0.682  32.478  0.00  0.00    -0.126 N 
ENDROOT
BRANCH   5  12
ATOM     12  C   UNL d   1      59.241   0.087  29.739  0.00  0.00     0.102 A 
ATOM     13  O   UNL d   1      59.390   0.682  29.209  0.00  0.00    -0.305 OA
ATOM     14  C   UNL d   1      59.646   0.325  28.491  0.00  0.00     0.123 A 
ATOM     15  C   UNL d   1      59.643  -0.456  28.611  0.00  0.00     0.029 A 
ATOM     16  C   UNL d   1      59.403  -0.625  29.356  0.00  0.00     0.027 A 
ENDBRANCH   5  12
BRANCH   4  17
ATOM     17  S   UNL d   1      57.107   0.110  31.639  0.00  0.00    -0.061 SA
BRANCH  17  18
ATOM     18  C   UNL d   1      56.837   0.261  32.374  0.00  0.00     0.105 C 
BRANCH  18  19
ATOM     19  C   UNL d   1      56.137  -0.020  32.609  0.00  0.00     0.303 C 
ATOM     20  O   UNL d   1      55.989  -0.554  32.599  0.00  0.00    -0.259 OA
BRANCH  19  21
ATOM     21  O   UNL d   1      55.577   0.485  32.888  0.00  0.00    -0.295 OA
ATOM     22  C   UNL d   1      55.563   0.679  33.664  0.00  0.00     0.185 C 
ENDBRANCH  19  21
ENDBRANCH  18  19
ENDBRANCH  17  18
ENDBRANCH   4  17
TORSDOF 5
ENDMDL
MODEL 3
REMARK VINA RESULT:       0.8      2.140      2.289
REMARK  5 active torsions:
REMARK  status: ('A' for Active; 'I' for Inactive)
REMARK    1  A    between atoms: S_12  and  C_4 
REMARK    2  A    between atoms: C_7  and  C_5 
REMARK    3  A    between atoms: C_20  and  S_12 
REMARK    4  A    between atoms: C_14  and  C_20 
REMARK    5  A    between atoms: O_21  and  C_14 
ROOT
ATOM      1  C   UNL d   1      58.546   0.667  31.327  0.00  0.00     0.095 A 
ATOM      2  C   UNL d   1      58.609   0.657  29.888  0.00  0.00     0.108 A 
ATOM      3  N   UNL d   1      57.330   0.657  30.550  0.00  0.00    -0.217 NA
ATOM      4  C   UNL d   1      57.713   0.664  31.291  0.00  0.00     0.122 A 
ATOM      5  C   UNL d   1      58.989   0.663  30.623  0.00  0.00     0.047 A 
ATOM      6  C   UNL d   1      57.777   0.654  29.851  0.00  0.00     0.194 A 
ATOM      7  C   UNL d   1      59.051   0.654  29.214  0.00  0.00     0.104 C 
ATOM      8  C   UNL d   1      58.933   0.673  32.057  0.00  0.00     0.103 C 
ATOM      9  N   UNL d   1      59.314   0.680  32.774  0.00  0.00    -0.191 NA
ATOM     10  N   UNL d   1      59.480   0.650  28.546  0.00  0.00    -0.191 NA
ATOM     11  N   UNL d   1      57.393   0.648  29.111  0.00  0.00    -0.126 N 
ENDROOT
BRANCH   5  12
ATOM     12  C   UNL d   1      59.796   0.666  30.658  0.00  0.00     0.102 A 
ATOM     13  O   UNL d   1      60.237   0.664  31.338  0.00  0.00    -0.305 OA
ATOM     14  C   UNL d   1      61.048   0.668  31.115  0.00  0.00     0.123 A 
ATOM     15  C   UNL d   1      61.068   0.673  30.325  0.00  0.00     0.029 A 
ATOM     16  C   UNL d   1      60.324   0.672  30.026  0.00  0.00     0.027 A 
ENDBRANCH   5  12
BRANCH   4  17
ATOM     17  S   UNL d   1      57.266   0.667  31.988  0.00  0.00    -0.061 SA
BRANCH  17  18
ATOM     18  C   UNL d   1      56.477   0.560  31.965  0.00  0.00     0.105 C 
BRANCH  18  19
ATOM     19  C   UNL d   1      56.093   0.278  32.596  0.00  0.00     0.303 C 
ATOM     20  O   UNL d   1      56.001   0.559  33.064  0.00  0.00    -0.259 OA
BRANCH  19  21
ATOM     21  O   UNL d   1      55.803  -0.472  32.584  0.00  0.00    -0.295 OA
ATOM     22  C   UNL d   1      55.405  -0.759  33.217  0.00  0.00     0.185 C 
ENDBRANCH  19  21
ENDBRANCH  18  19
ENDBRANCH  17  18
ENDBRANCH   4  17
TORSDOF 5
ENDMDL
MODEL 4
REMARK VINA RESULT:       1.3      2.311      5.039
REMARK  5 active torsions:
REMARK  status: ('A' for Active; 'I' for Inactive)
REMARK    1  A    between atoms: S_12  and  C_4 
REMARK    2  A    between atoms: C_7  and  C_5 
REMARK    3  A    between atoms: C_20  and  S_12 
REMARK    4  A    between atoms: C_14  and  C_20 
REMARK    5  A    between atoms: O_21  and  C_14 
ROOT
ATOM      1  C   UNL d   1      56.941   0.305  32.244  0.00  0.00     0.095 A 
ATOM      2  C   UNL d   1      57.563   0.499  33.529  0.00  0.00     0.108 A 
ATOM      3  N   UNL d   1      58.370   0.488  32.336  0.00  0.00    -0.217 NA
ATOM      4  C   UNL d   1      57.686   0.362  31.875  0.00  0.00     0.122 A 
ATOM      5  C   UNL d   1      56.885   0.374  33.071  0.00  0.00     0.047 A 
ATOM      6  C   UNL d   1      58.308   0.556  33.161  0.00  0.00     0.194 A 
ATOM      7  C   UNL d   1      57.493   0.564  34.330  0.00  0.00     0.104 C 
ATOM      8  C   UNL d   1      56.260   0.180  31.794  0.00  0.00     0.103 C 
ATOM      9  N   UNL d   1      55.590   0.058  31.352  0.00  0.00    -0.191 NA
ATOM     10  N   UNL d   1      57.431   0.629  35.119  0.00  0.00    -0.191 NA
ATOM     11  N   UNL d   1      58.991   0.682  33.622  0.00  0.00    -0.126 N 
ENDROOT
BRANCH   5  12
ATOM     12  C   UNL d   1      56.162   0.318  33.429  0.00  0.00     0.102 A 
ATOM     13  O   UNL d   1      56.000  -0.112  34.095  0.00  0.00    -0.305 OA
ATOM     14  C   UNL d   1      55.183  -0.011  34.270  0.00  0.00     0.123 A 
ATOM     15  C   UNL d   1      54.888   0.467  33.714  0.00  0.00     0.029 A 
ATOM     16  C   UNL d   1      55.460   0.679  33.195  0.00  0.00     0.027 A 
ENDBRANCH   5  12
BRANCH   4  17
ATOM     17  S   UNL d   1      57.749   0.294  31.052  0.00  0.00    -0.061 SA
BRANCH  17  18
ATOM     18  C   UNL d   1      58.455   0.150  30.709  0.00  0.00     0.105 C 
BRANCH  18  19
ATOM     19  C   UNL d   1      58.511   0.083  29.924  0.00  0.00     0.303 C 
ATOM     20  O   UNL d   1      58.267  -0.310  29.619  0.00  0.00    -0.259 OA
BRANCH  19  21
ATOM     21  O   UNL d   1      58.951   0.613  29.509  0.00  0.00    -0.295 OA
ATOM     22  C   UNL d   1      59.372   0.374  28.872  0.00  0.00     0.185 C 
ENDBRANCH  19  21
ENDBRANCH  18  19
ENDBRANCH  17  18
ENDBRANCH   4  17
TORSDOF 5
ENDMDL
MODEL 5
REMARK VINA RESULT:       1.7      8.815      9.092
REMARK  5 active torsions:
REMARK  status: ('A' for Active; 'I' for Inactive)
REMARK    1  A    between atoms: S_12  and  C_4 
REMARK    2  A    between atoms: C_7  and  C_5 
REMARK    3  A    between atoms: C_20  and  S_12 
REMARK    4  A    between atoms: C_14  and  C_20 
REMARK    5  A    between atoms: O_21  and  C_14 
ROOT
ATOM      1  C   UNL d   1      59.509  -9.809  32.734  0.00  0.00     0.095 A 
ATOM      2  C   UNL d   1      58.413  -9.809  31.799  0.00  0.00     0.108 A 
ATOM      3  N   UNL d   1      58.148  -9.813  33.215  0.00  0.00    -0.217 NA
ATOM      4  C   UNL d   1      58.969  -9.812  33.368  0.00  0.00     0.122 A 
ATOM      5  C   UNL d   1      59.226  -9.807  31.952  0.00  0.00     0.047 A 
ATOM      6  C   UNL d   1      57.872  -9.812  32.433  0.00  0.00     0.194 A 
ATOM      7  C   UNL d   1      58.153  -9.807  31.036  0.00  0.00     0.104 C 
ATOM      8  C   UNL d   1      60.323  -9.807  32.878  0.00  0.00     0.103 C 
ATOM      9  N   UNL d   1      61.123  -9.806  33.018  0.00  0.00    -0.191 NA
ATOM     10  N   UNL d   1      57.891  -9.806  30.286  0.00  0.00    -0.191 NA
ATOM     11  N   UNL d   1      57.052  -9.813  32.280  0.00  0.00    -0.126 N 
ENDROOT
BRANCH   5  12
ATOM     12  C   UNL d   1      59.751  -9.804  31.337  0.00  0.00     0.102 A 
ATOM     13  O   UNL d   1      60.558  -9.818  31.407  0.00  0.00    -0.305 OA
ATOM     14  C   UNL d   1      60.881  -9.809  30.630  0.00  0.00     0.123 A 
ATOM     15  C   UNL d   1      60.270  -9.791  30.129  0.00  0.00     0.029 A 
ATOM     16  C   UNL d   1      59.577  -9.788  30.532  0.00  0.00     0.027 A 
ENDBRANCH   5  12
BRANCH   4  17
ATOM     17  S   UNL d   1      59.243  -9.813  34.149  0.00  0.00    -0.061 SA
BRANCH  17  18
ATOM     18  C   UNL d   1      59.214  -9.150  34.592  0.00  0.00     0.105 C 
BRANCH  18  19
ATOM     19  C   UNL d   1      59.256  -9.193  35.380  0.00  0.00     0.303 C 
ATOM     20  O   UNL d   1      59.418  -9.639  35.666  0.00  0.00    -0.259 OA
BRANCH  19  21
ATOM     21  O   UNL d   1      59.055  -8.556  35.825  0.00  0.00    -0.295 OA
ATOM     22  C   UNL d   1      59.613  -8.169  36.249  0.00  0.00     0.185 C 
ENDBRANCH  19  21
ENDBRANCH  18  19
ENDBRANCH  17  18
ENDBRANCH   4  17
TORSDOF 5
ENDMDL
