MODEL 1
REMARK VINA RESULT:      -4.4      0.000      0.000
REMARK  3 active torsions:
REMARK  status: ('A' for Active; 'I' for Inactive)
REMARK    1  A    between atoms: C_3  and  C_5 
REMARK    2  A    between atoms: O_13  and  C_6 
REMARK    3  A    between atoms: O_15  and  C_8 
ROOT
ATOM      1  C   UNL d   1      56.687  -0.230  32.220  0.00  0.00     0.021 A 
ATOM      2  C   UNL d   1      57.059   0.148  32.845  0.00  0.00     0.028 A 
ATOM      3  C   UNL d   1      56.657   0.301  33.542  0.00  0.00     0.116 A 
ATOM      4  C   UNL d   1      55.868   0.071  33.616  0.00  0.00     0.116 A 
ATOM      5  C   UNL d   1      55.890  -0.462  32.294  0.00  0.00     0.004 A 
ATOM      6  C   UNL d   1      55.480  -0.311  32.993  0.00  0.00     0.026 A 
ENDROOT
BRANCH   1   7
ATOM      7  C   UNL d   1      57.097  -0.380  31.522  0.00  0.00     0.103 A 
ATOM      8  N   UNL d   1      57.220  -1.158  31.275  0.00  0.00    -0.145 NA
ATOM      9  N   UNL d   1      57.630  -1.309  30.576  0.00  0.00    -0.106 NA
ATOM     10  C   UNL d   1      57.916  -0.682  30.126  0.00  0.00     0.297 A 
ATOM     11  O   UNL d   1      58.330  -0.830  29.421  0.00  0.00    -0.264 OA
ATOM     12  C   UNL d   1      57.792   0.103  30.376  0.00  0.00     0.066 A 
ATOM     13  C   UNL d   1      57.382   0.254  31.074  0.00  0.00     0.026 A 
ENDBRANCH   1   7
BRANCH   3  14
ATOM     14  O   UNL d   1      57.039   0.682  34.166  0.00  0.00    -0.326 OA
ATOM     15  C   UNL d   1      57.854   0.587  34.269  0.00  0.00     0.181 C 
ENDBRANCH   3  14
BRANCH   4  16
ATOM     16  O   UNL d   1      55.457   0.223  34.318  0.00  0.00    -0.326 OA
ATOM     17  C   UNL d   1      54.648   0.372  34.297  0.00  0.00     0.181 C 
ENDBRANCH   4  16
TORSDOF 3
ENDMDL
MODEL 2
REMARK VINA RESULT:      -4.4      1.013      1.358
REMARK  3 active torsions:
REMARK  status: ('A' for Active; 'I' for Inactive)
REMARK    1  A    between atoms: C_3  and  C_5 
REMARK    2  A    between atoms: O_13  and  C_6 
REMARK    3  A    between atoms: O_15  and  C_8 
ROOT
ATOM      1  C   UNL d   1      56.783  -0.025  31.956  0.00  0.00     0.021 A 
ATOM      2  C   UNL d   1      56.612  -0.724  32.349  0.00  0.00     0.028 A 
ATOM      3  C   UNL d   1      56.080  -0.737  32.971  0.00  0.00     0.116 A 
ATOM      4  C   UNL d   1      55.711  -0.037  33.206  0.00  0.00     0.116 A 
ATOM      5  C   UNL d   1      56.411   0.682  32.194  0.00  0.00     0.004 A 
ATOM      6  C   UNL d   1      55.875   0.675  32.819  0.00  0.00     0.026 A 
ENDROOT
BRANCH   1   7
ATOM      7  C   UNL d   1      57.319  -0.019  31.332  0.00  0.00     0.103 A 
ATOM      8  N   UNL d   1      57.315  -0.631  30.778  0.00  0.00    -0.145 NA
ATOM      9  N   UNL d   1      57.851  -0.625  30.152  0.00  0.00    -0.106 NA
ATOM     10  C   UNL d   1      58.390  -0.007  30.082  0.00  0.00     0.297 A 
ATOM     11  O   UNL d   1      58.932   0.002  29.452  0.00  0.00    -0.264 OA
ATOM     12  C   UNL d   1      58.394   0.610  30.641  0.00  0.00     0.066 A 
ATOM     13  C   UNL d   1      57.859   0.605  31.266  0.00  0.00     0.026 A 
ENDBRANCH   1   7
BRANCH   3  14
ATOM     14  O   UNL d   1      55.914  -1.446  33.360  0.00  0.00    -0.326 OA
ATOM     15  C   UNL d   1      55.530  -2.056  32.956  0.00  0.00     0.181 C 
ENDBRANCH   3  14
BRANCH   4  16
ATOM     16  O   UNL d   1      55.173  -0.045  33.835  0.00  0.00    -0.326 OA
ATOM     17  C   UNL d   1      54.783   0.647  34.050  0.00  0.00     0.181 C 
ENDBRANCH   4  16
TORSDOF 3
ENDMDL
