MODEL 1
REMARK VINA RESULT:      -2.2      0.000      0.000
REMARK  4 active torsions:
REMARK  status: ('A' for Active; 'I' for Inactive)
REMARK    1  A    between atoms: C_6  and  N_1 
REMARK    2  A    between atoms: C_7  and  C_6 
REMARK    3  A    between atoms: C_14  and  C_7 
REMARK    4  A    between atoms: N_10  and  C_14 
ROOT
ATOM      1  N   UNL d   1      33.067  21.781 -21.778  0.00  0.00    -0.303 N 
ATOM      2  C   UNL d   1      32.894  22.216 -21.097  0.00  0.00     0.064 A 
ATOM      3  C   UNL d   1      32.752  23.003 -21.321  0.00  0.00     0.018 A 
ATOM      4  C   UNL d   1      33.033  22.297 -22.424  0.00  0.00     0.064 A 
ATOM      5  C   UNL d   1      32.839  23.050 -22.142  0.00  0.00     0.018 A 
ATOM      6  C   UNL d   1      32.846  22.001 -20.299  0.00  0.00     0.018 A 
ATOM      7  C   UNL d   1      32.565  23.567 -20.750  0.00  0.00     0.002 A 
ATOM      8  C   UNL d   1      33.153  22.178 -23.231  0.00  0.00     0.018 A 
ATOM      9  C   UNL d   1      32.766  23.681 -22.669  0.00  0.00     0.002 A 
ATOM     10  C   UNL d   1      32.517  23.354 -19.955  0.00  0.00     0.000 A 
ATOM     11  C   UNL d   1      32.657  22.573 -19.725  0.00  0.00     0.002 A 
ATOM     12  C   UNL d   1      33.080  22.807 -23.754  0.00  0.00     0.002 A 
ATOM     13  C   UNL d   1      32.886  23.560 -23.472  0.00  0.00     0.000 A 
ENDROOT
BRANCH   1  14
ATOM     14  C   UNL d   1      33.241  20.981 -21.803  0.00  0.00     0.124 C 
BRANCH  14  15
ATOM     15  C   UNL d   1      32.671  20.435 -22.030  0.00  0.00     0.232 C 
ATOM     16  O   UNL d   1      31.911  20.469 -21.718  0.00  0.00    -0.283 OA
BRANCH  15  17
ATOM     17  C   UNL d   1      32.867  19.850 -22.578  0.00  0.00     0.142 C 
BRANCH  17  18
ATOM     18  N   UNL d   1      32.794  19.051 -22.374  0.00  0.00    -0.237 NA
ATOM     19  C   UNL d   1      32.872  18.477 -22.960  0.00  0.00     0.120 C 
ENDBRANCH  17  18
ENDBRANCH  15  17
ENDBRANCH  14  15
ENDBRANCH   1  14
TORSDOF 4
ENDMDL
MODEL 2
REMARK VINA RESULT:      -2.2      3.777      5.997
REMARK  4 active torsions:
REMARK  status: ('A' for Active; 'I' for Inactive)
REMARK    1  A    between atoms: C_6  and  N_1 
REMARK    2  A    between atoms: C_7  and  C_6 
REMARK    3  A    between atoms: C_14  and  C_7 
REMARK    4  A    between atoms: N_10  and  C_14 
ROOT
ATOM      1  N   UNL d   1      32.125  17.336 -24.479  0.00  0.00    -0.303 N 
ATOM      2  C   UNL d   1      32.390  16.740 -23.970  0.00  0.00     0.064 A 
ATOM      3  C   UNL d   1      31.737  16.277 -23.749  0.00  0.00     0.018 A 
ATOM      4  C   UNL d   1      31.308  17.242 -24.574  0.00  0.00     0.064 A 
ATOM      5  C   UNL d   1      31.070  16.590 -24.124  0.00  0.00     0.018 A 
ATOM      6  C   UNL d   1      33.142  16.556 -23.677  0.00  0.00     0.018 A 
ATOM      7  C   UNL d   1      31.838  15.637 -23.240  0.00  0.00     0.002 A 
ATOM      8  C   UNL d   1      30.752  17.667 -25.011  0.00  0.00     0.018 A 
ATOM      9  C   UNL d   1      30.276  16.365 -24.114  0.00  0.00     0.002 A 
ATOM     10  C   UNL d   1      32.586  15.453 -22.948  0.00  0.00     0.000 A 
ATOM     11  C   UNL d   1      33.240  15.908 -23.163  0.00  0.00     0.002 A 
ATOM     12  C   UNL d   1      29.963  17.441 -24.999  0.00  0.00     0.002 A 
ATOM     13  C   UNL d   1      29.724  16.789 -24.550  0.00  0.00     0.000 A 
ENDROOT
BRANCH   1  14
ATOM     14  C   UNL d   1      32.593  17.912 -24.824  0.00  0.00     0.124 C 
BRANCH  14  15
ATOM     15  C   UNL d   1      32.697  18.640 -24.460  0.00  0.00     0.232 C 
ATOM     16  O   UNL d   1      32.431  18.766 -23.691  0.00  0.00    -0.283 OA
BRANCH  15  17
ATOM     17  C   UNL d   1      33.071  19.249 -24.872  0.00  0.00     0.142 C 
BRANCH  17  18
ATOM     18  N   UNL d   1      33.061  20.020 -24.571  0.00  0.00    -0.237 NA
ATOM     19  C   UNL d   1      33.241  20.650 -25.071  0.00  0.00     0.120 C 
ENDBRANCH  17  18
ENDBRANCH  15  17
ENDBRANCH  14  15
ENDBRANCH   1  14
TORSDOF 4
ENDMDL
MODEL 3
REMARK VINA RESULT:      -2.0      1.371      3.238
REMARK  4 active torsions:
REMARK  status: ('A' for Active; 'I' for Inactive)
REMARK    1  A    between atoms: C_6  and  N_1 
REMARK    2  A    between atoms: C_7  and  C_6 
REMARK    3  A    between atoms: C_14  and  C_7 
REMARK    4  A    between atoms: N_10  and  C_14 
ROOT
ATOM      1  N   UNL d   1      33.055  22.735 -21.670  0.00  0.00    -0.303 N 
ATOM      2  C   UNL d   1      33.044  21.911 -21.740  0.00  0.00     0.064 A 
ATOM      3  C   UNL d   1      32.851  21.589 -20.999  0.00  0.00     0.018 A 
ATOM      4  C   UNL d   1      32.869  22.924 -20.887  0.00  0.00     0.064 A 
ATOM      5  C   UNL d   1      32.743  22.219 -20.473  0.00  0.00     0.018 A 
ATOM      6  C   UNL d   1      33.185  21.407 -22.382  0.00  0.00     0.018 A 
ATOM      7  C   UNL d   1      32.800  20.772 -20.904  0.00  0.00     0.002 A 
ATOM      8  C   UNL d   1      32.797  23.648 -20.497  0.00  0.00     0.018 A 
ATOM      9  C   UNL d   1      32.547  22.240 -19.672  0.00  0.00     0.002 A 
ATOM     10  C   UNL d   1      32.940  20.270 -21.542  0.00  0.00     0.000 A 
ATOM     11  C   UNL d   1      33.133  20.582 -22.282  0.00  0.00     0.002 A 
ATOM     12  C   UNL d   1      32.602  23.667 -19.700  0.00  0.00     0.002 A 
ATOM     13  C   UNL d   1      32.477  22.962 -19.287  0.00  0.00     0.000 A 
ENDROOT
BRANCH   1  14
ATOM     14  C   UNL d   1      33.221  23.263 -22.273  0.00  0.00     0.124 C 
BRANCH  14  15
ATOM     15  C   UNL d   1      32.639  23.485 -22.807  0.00  0.00     0.232 C 
ATOM     16  O   UNL d   1      31.852  23.533 -22.573  0.00  0.00    -0.283 OA
BRANCH  15  17
ATOM     17  C   UNL d   1      32.849  23.662 -23.585  0.00  0.00     0.142 C 
BRANCH  17  18
ATOM     18  N   UNL d   1      32.268  23.702 -24.172  0.00  0.00    -0.237 NA
ATOM     19  C   UNL d   1      32.493  23.688 -24.965  0.00  0.00     0.120 C 
ENDBRANCH  17  18
ENDBRANCH  15  17
ENDBRANCH  14  15
ENDBRANCH   1  14
TORSDOF 4
ENDMDL
MODEL 4
REMARK VINA RESULT:      -1.8      1.911      2.801
REMARK  4 active torsions:
REMARK  status: ('A' for Active; 'I' for Inactive)
REMARK    1  A    between atoms: C_6  and  N_1 
REMARK    2  A    between atoms: C_7  and  C_6 
REMARK    3  A    between atoms: C_14  and  C_7 
REMARK    4  A    between atoms: N_10  and  C_14 
ROOT
ATOM      1  N   UNL d   1      33.216  19.279 -23.122  0.00  0.00    -0.303 N 
ATOM      2  C   UNL d   1      33.210  19.721 -22.424  0.00  0.00     0.064 A 
ATOM      3  C   UNL d   1      33.215  20.527 -22.626  0.00  0.00     0.018 A 
ATOM      4  C   UNL d   1      33.225  19.810 -23.757  0.00  0.00     0.064 A 
ATOM      5  C   UNL d   1      33.224  20.578 -23.452  0.00  0.00     0.018 A 
ATOM      6  C   UNL d   1      33.200  19.499 -21.626  0.00  0.00     0.018 A 
ATOM      7  C   UNL d   1      33.210  21.102 -22.035  0.00  0.00     0.002 A 
ATOM      8  C   UNL d   1      33.233  19.691 -24.574  0.00  0.00     0.018 A 
ATOM      9  C   UNL d   1      33.232  21.225 -23.964  0.00  0.00     0.002 A 
ATOM     10  C   UNL d   1      33.201  20.881 -21.241  0.00  0.00     0.000 A 
ATOM     11  C   UNL d   1      33.196  20.082 -21.032  0.00  0.00     0.002 A 
ATOM     12  C   UNL d   1      33.241  20.336 -25.081  0.00  0.00     0.002 A 
ATOM     13  C   UNL d   1      33.240  21.105 -24.776  0.00  0.00     0.000 A 
ENDROOT
BRANCH   1  14
ATOM     14  C   UNL d   1      33.213  18.462 -23.170  0.00  0.00     0.124 C 
BRANCH  14  15
ATOM     15  C   UNL d   1      32.511  18.051 -23.276  0.00  0.00     0.232 C 
ATOM     16  O   UNL d   1      31.798  18.454 -23.355  0.00  0.00    -0.283 OA
BRANCH  15  17
ATOM     17  C   UNL d   1      32.524  17.226 -23.303  0.00  0.00     0.142 C 
BRANCH  17  18
ATOM     18  N   UNL d   1      31.837  16.807 -23.493  0.00  0.00    -0.237 NA
ATOM     19  C   UNL d   1      31.863  15.984 -23.525  0.00  0.00     0.120 C 
ENDBRANCH  17  18
ENDBRANCH  15  17
ENDBRANCH  14  15
ENDBRANCH   1  14
TORSDOF 4
ENDMDL
MODEL 5
REMARK VINA RESULT:      -1.8      0.301      2.163
REMARK  4 active torsions:
REMARK  status: ('A' for Active; 'I' for Inactive)
REMARK    1  A    between atoms: C_6  and  N_1 
REMARK    2  A    between atoms: C_7  and  C_6 
REMARK    3  A    between atoms: C_14  and  C_7 
REMARK    4  A    between atoms: N_10  and  C_14 
ROOT
ATOM      1  N   UNL d   1      32.995  21.648 -21.810  0.00  0.00    -0.303 N 
ATOM      2  C   UNL d   1      33.003  22.147 -22.469  0.00  0.00     0.064 A 
ATOM      3  C   UNL d   1      32.709  22.889 -22.237  0.00  0.00     0.018 A 
ATOM      4  C   UNL d   1      32.696  22.079 -21.170  0.00  0.00     0.064 A 
ATOM      5  C   UNL d   1      32.520  22.843 -21.433  0.00  0.00     0.018 A 
ATOM      6  C   UNL d   1      33.240  22.028 -23.253  0.00  0.00     0.018 A 
ATOM      7  C   UNL d   1      32.653  23.501 -22.786  0.00  0.00     0.002 A 
ATOM      8  C   UNL d   1      32.562  21.873 -20.382  0.00  0.00     0.018 A 
ATOM      9  C   UNL d   1      32.210  23.398 -20.907  0.00  0.00     0.002 A 
ATOM     10  C   UNL d   1      32.888  23.382 -23.566  0.00  0.00     0.000 A 
ATOM     11  C   UNL d   1      33.182  22.648 -23.805  0.00  0.00     0.002 A 
ATOM     12  C   UNL d   1      32.254  22.427 -19.861  0.00  0.00     0.002 A 
ATOM     13  C   UNL d   1      32.077  23.191 -20.124  0.00  0.00     0.000 A 
ENDROOT
BRANCH   1  14
ATOM     14  C   UNL d   1      33.241  20.867 -21.800  0.00  0.00     0.124 C 
BRANCH  14  15
ATOM     15  C   UNL d   1      32.725  20.263 -22.009  0.00  0.00     0.232 C 
ATOM     16  O   UNL d   1      31.912  20.373 -21.962  0.00  0.00    -0.283 OA
BRANCH  15  17
ATOM     17  C   UNL d   1      33.031  19.542 -22.267  0.00  0.00     0.142 C 
BRANCH  17  18
ATOM     18  N   UNL d   1      32.578  19.051 -22.756  0.00  0.00    -0.237 NA
ATOM     19  C   UNL d   1      32.836  18.284 -22.908  0.00  0.00     0.120 C 
ENDBRANCH  17  18
ENDBRANCH  15  17
ENDBRANCH  14  15
ENDBRANCH   1  14
TORSDOF 4
ENDMDL
MODEL 6
REMARK VINA RESULT:      -1.5      2.381      5.809
REMARK  4 active torsions:
REMARK  status: ('A' for Active; 'I' for Inactive)
REMARK    1  A    between atoms: C_6  and  N_1 
REMARK    2  A    between atoms: C_7  and  C_6 
REMARK    3  A    between atoms: C_14  and  C_7 
REMARK    4  A    between atoms: N_10  and  C_14 
ROOT
ATOM      1  N   UNL d   1      32.336  17.777 -24.144  0.00  0.00    -0.303 N 
ATOM      2  C   UNL d   1      31.568  17.722 -24.445  0.00  0.00     0.064 A 
ATOM      3  C   UNL d   1      31.282  16.957 -24.292  0.00  0.00     0.018 A 
ATOM      4  C   UNL d   1      32.527  17.047 -23.804  0.00  0.00     0.064 A 
ATOM      5  C   UNL d   1      31.878  16.542 -23.895  0.00  0.00     0.018 A 
ATOM      6  C   UNL d   1      31.086  18.268 -24.840  0.00  0.00     0.018 A 
ATOM      7  C   UNL d   1      30.524  16.743 -24.533  0.00  0.00     0.002 A 
ATOM      8  C   UNL d   1      33.208  16.778 -23.424  0.00  0.00     0.018 A 
ATOM      9  C   UNL d   1      31.913  15.770 -23.606  0.00  0.00     0.002 A 
ATOM     10  C   UNL d   1      30.045  17.286 -24.926  0.00  0.00     0.000 A 
ATOM     11  C   UNL d   1      30.321  18.048 -25.082  0.00  0.00     0.002 A 
ATOM     12  C   UNL d   1      33.240  16.010 -23.137  0.00  0.00     0.002 A 
ATOM     13  C   UNL d   1      32.592  15.505 -23.228  0.00  0.00     0.000 A 
ENDROOT
BRANCH   1  14
ATOM     14  C   UNL d   1      32.816  18.439 -24.178  0.00  0.00     0.124 C 
BRANCH  14  15
ATOM     15  C   UNL d   1      32.889  18.938 -23.531  0.00  0.00     0.232 C 
ATOM     16  O   UNL d   1      32.885  18.635 -22.766  0.00  0.00    -0.283 OA
BRANCH  15  17
ATOM     17  C   UNL d   1      32.966  19.751 -23.652  0.00  0.00     0.142 C 
BRANCH  17  18
ATOM     18  N   UNL d   1      33.115  20.253 -23.012  0.00  0.00    -0.237 NA
ATOM     19  C   UNL d   1      33.241  21.055 -23.150  0.00  0.00     0.120 C 
ENDBRANCH  17  18
ENDBRANCH  15  17
ENDBRANCH  14  15
ENDBRANCH   1  14
TORSDOF 4
ENDMDL
MODEL 7
REMARK VINA RESULT:      -1.4      1.809      3.283
REMARK  4 active torsions:
REMARK  status: ('A' for Active; 'I' for Inactive)
REMARK    1  A    between atoms: C_6  and  N_1 
REMARK    2  A    between atoms: C_7  and  C_6 
REMARK    3  A    between atoms: C_14  and  C_7 
REMARK    4  A    between atoms: N_10  and  C_14 
ROOT
ATOM      1  N   UNL d   1      33.241  19.767 -23.411  0.00  0.00    -0.303 N 
ATOM      2  C   UNL d   1      33.240  20.489 -23.815  0.00  0.00     0.064 A 
ATOM      3  C   UNL d   1      33.240  21.101 -23.252  0.00  0.00     0.018 A 
ATOM      4  C   UNL d   1      33.241  19.931 -22.600  0.00  0.00     0.064 A 
ATOM      5  C   UNL d   1      33.240  20.752 -22.502  0.00  0.00     0.018 A 
ATOM      6  C   UNL d   1      33.240  20.674 -24.621  0.00  0.00     0.018 A 
ATOM      7  C   UNL d   1      33.240  21.888 -23.498  0.00  0.00     0.002 A 
ATOM      8  C   UNL d   1      33.241  19.437 -21.939  0.00  0.00     0.018 A 
ATOM      9  C   UNL d   1      33.240  21.077 -21.744  0.00  0.00     0.002 A 
ATOM     10  C   UNL d   1      33.240  22.072 -24.301  0.00  0.00     0.000 A 
ATOM     11  C   UNL d   1      33.240  21.469 -24.866  0.00  0.00     0.002 A 
ATOM     12  C   UNL d   1      33.241  19.762 -21.185  0.00  0.00     0.002 A 
ATOM     13  C   UNL d   1      33.241  20.584 -21.087  0.00  0.00     0.000 A 
ENDROOT
BRANCH   1  14
ATOM     14  C   UNL d   1      33.241  19.026 -23.759  0.00  0.00     0.124 C 
BRANCH  14  15
ATOM     15  C   UNL d   1      32.536  18.631 -23.903  0.00  0.00     0.232 C 
ATOM     16  O   UNL d   1      31.847  19.049 -24.068  0.00  0.00    -0.283 OA
BRANCH  15  17
ATOM     17  C   UNL d   1      32.522  17.806 -23.880  0.00  0.00     0.142 C 
BRANCH  17  18
ATOM     18  N   UNL d   1      31.875  17.394 -24.188  0.00  0.00    -0.237 NA
ATOM     19  C   UNL d   1      31.746  16.614 -23.957  0.00  0.00     0.120 C 
ENDBRANCH  17  18
ENDBRANCH  15  17
ENDBRANCH  14  15
ENDBRANCH   1  14
TORSDOF 4
ENDMDL
MODEL 8
REMARK VINA RESULT:      -1.2      5.840      6.895
REMARK  4 active torsions:
REMARK  status: ('A' for Active; 'I' for Inactive)
REMARK    1  A    between atoms: C_6  and  N_1 
REMARK    2  A    between atoms: C_7  and  C_6 
REMARK    3  A    between atoms: C_14  and  C_7 
REMARK    4  A    between atoms: N_10  and  C_14 
ROOT
ATOM      1  N   UNL d   1      29.839  16.311 -24.114  0.00  0.00    -0.303 N 
ATOM      2  C   UNL d   1      29.771  17.077 -24.415  0.00  0.00     0.064 A 
ATOM      3  C   UNL d   1      29.033  17.382 -24.187  0.00  0.00     0.018 A 
ATOM      4  C   UNL d   1      29.144  16.139 -23.699  0.00  0.00     0.064 A 
ATOM      5  C   UNL d   1      28.648  16.799 -23.744  0.00  0.00     0.018 A 
ATOM      6  C   UNL d   1      30.284  17.543 -24.870  0.00  0.00     0.018 A 
ATOM      7  C   UNL d   1      28.812  18.143 -24.412  0.00  0.00     0.002 A 
ATOM      8  C   UNL d   1      28.901  15.468 -23.286  0.00  0.00     0.018 A 
ATOM      9  C   UNL d   1      27.909  16.785 -23.376  0.00  0.00     0.002 A 
ATOM     10  C   UNL d   1      29.322  18.607 -24.864  0.00  0.00     0.000 A 
ATOM     11  C   UNL d   1      30.058  18.311 -25.095  0.00  0.00     0.002 A 
ATOM     12  C   UNL d   1      28.166  15.456 -22.920  0.00  0.00     0.002 A 
ATOM     13  C   UNL d   1      27.669  16.115 -22.965  0.00  0.00     0.000 A 
ENDROOT
BRANCH   1  14
ATOM     14  C   UNL d   1      30.483  15.815 -24.212  0.00  0.00     0.124 C 
BRANCH  14  15
ATOM     15  C   UNL d   1      31.105  15.824 -23.676  0.00  0.00     0.232 C 
ATOM     16  O   UNL d   1      31.024  16.198 -22.948  0.00  0.00    -0.283 OA
BRANCH  15  17
ATOM     17  C   UNL d   1      31.815  15.454 -23.874  0.00  0.00     0.142 C 
BRANCH  17  18
ATOM     18  N   UNL d   1      32.521  15.693 -23.515  0.00  0.00    -0.237 NA
ATOM     19  C   UNL d   1      33.237  15.552 -23.898  0.00  0.00     0.120 C 
ENDBRANCH  17  18
ENDBRANCH  15  17
ENDBRANCH  14  15
ENDBRANCH   1  14
TORSDOF 4
ENDMDL
MODEL 9
REMARK VINA RESULT:      -0.6      5.833      6.424
REMARK  4 active torsions:
REMARK  status: ('A' for Active; 'I' for Inactive)
REMARK    1  A    between atoms: C_6  and  N_1 
REMARK    2  A    between atoms: C_7  and  C_6 
REMARK    3  A    between atoms: C_14  and  C_7 
REMARK    4  A    between atoms: N_10  and  C_14 
ROOT
ATOM      1  N   UNL d   1      30.013  16.682 -24.075  0.00  0.00    -0.303 N 
ATOM      2  C   UNL d   1      29.509  16.341 -23.515  0.00  0.00     0.064 A 
ATOM      3  C   UNL d   1      28.829  16.816 -23.455  0.00  0.00     0.018 A 
ATOM      4  C   UNL d   1      29.647  17.367 -24.361  0.00  0.00     0.064 A 
ATOM      5  C   UNL d   1      28.918  17.449 -23.979  0.00  0.00     0.018 A 
ATOM      6  C   UNL d   1      29.576  15.660 -23.050  0.00  0.00     0.018 A 
ATOM      7  C   UNL d   1      28.226  16.608 -22.933  0.00  0.00     0.002 A 
ATOM      8  C   UNL d   1      29.885  17.925 -24.921  0.00  0.00     0.018 A 
ATOM      9  C   UNL d   1      28.430  18.089 -24.158  0.00  0.00     0.002 A 
ATOM     10  C   UNL d   1      28.292  15.930 -22.470  0.00  0.00     0.000 A 
ATOM     11  C   UNL d   1      28.965  15.453 -22.524  0.00  0.00     0.002 A 
ATOM     12  C   UNL d   1      29.397  18.561 -25.097  0.00  0.00     0.002 A 
ATOM     13  C   UNL d   1      28.668  18.643 -24.715  0.00  0.00     0.000 A 
ENDROOT
BRANCH   1  14
ATOM     14  C   UNL d   1      30.743  16.388 -24.301  0.00  0.00     0.124 C 
BRANCH  14  15
ATOM     15  C   UNL d   1      31.417  16.562 -23.866  0.00  0.00     0.232 C 
ATOM     16  O   UNL d   1      31.482  17.276 -23.461  0.00  0.00    -0.283 OA
BRANCH  15  17
ATOM     17  C   UNL d   1      32.033  16.013 -23.836  0.00  0.00     0.142 C 
BRANCH  17  18
ATOM     18  N   UNL d   1      32.774  16.238 -23.547  0.00  0.00    -0.237 NA
ATOM     19  C   UNL d   1      33.222  15.695 -23.119  0.00  0.00     0.120 C 
ENDBRANCH  17  18
ENDBRANCH  15  17
ENDBRANCH  14  15
ENDBRANCH   1  14
TORSDOF 4
ENDMDL
