MODEL 1
REMARK VINA RESULT:      -9.2      0.000      0.000
REMARK  4 active torsions:
REMARK  status: ('A' for Active; 'I' for Inactive)
REMARK    1  A    between atoms: C_10  and  N_1 
REMARK       I    between atoms: C_6  and  N_9 
REMARK    2  A    between atoms: C_8  and  C_6 
REMARK    3  A    between atoms: N_9  and  C_12 
REMARK    4  A    between atoms: C_12  and  C_10 
ROOT
ATOM      1  C   UNL d   1      53.721  32.900  53.430  0.00  0.00     0.101 C 
ENDROOT
BRANCH   1   2
ATOM      2  N   UNL d   1      53.668  32.188  53.844  0.00  0.00    -0.304 N 
ATOM      3  C   UNL d   1      53.866  32.073  54.639  0.00  0.00     0.064 A 
ATOM      4  C   UNL d   1      53.731  31.284  54.826  0.00  0.00     0.019 A 
ATOM      5  C   UNL d   1      54.150  32.651  55.154  0.00  0.00     0.019 C 
ATOM      6  C   UNL d   1      53.449  30.902  54.151  0.00  0.00     0.018 A 
ATOM      7  C   UNL d   1      53.409  31.459  53.542  0.00  0.00     0.064 A 
ATOM      8  C   UNL d   1      53.221  30.127  54.001  0.00  0.00     0.002 A 
ATOM      9  C   UNL d   1      53.146  31.246  52.793  0.00  0.00     0.018 A 
ATOM     10  C   UNL d   1      52.918  30.471  52.644  0.00  0.00     0.002 A 
ATOM     11  C   UNL d   1      52.953  29.897  53.248  0.00  0.00     0.000 A 
ENDBRANCH   1   2
BRANCH   1  12
ATOM     12  C   UNL d   1      53.086  33.426  53.435  0.00  0.00     0.121 C 
BRANCH  12  13
ATOM     13  N   UNL d   1      53.226  34.237  53.494  0.00  0.00    -0.205 NA
ATOM     14  C   UNL d   1      52.642  34.776  53.277  0.00  0.00     0.279 C 
ATOM     15  O   UNL d   1      52.782  35.587  53.336  0.00  0.00    -0.265 OA
BRANCH  14  16
ATOM     16  C   UNL d   1      51.911  34.500  52.999  0.00  0.00     0.058 A 
ATOM     17  C   UNL d   1      51.318  34.352  53.524  0.00  0.00     0.005 A 
ATOM     18  C   UNL d   1      50.587  34.077  53.254  0.00  0.00     0.000 A 
ATOM     19  C   UNL d   1      50.450  33.950  52.455  0.00  0.00     0.000 A 
ATOM     20  C   UNL d   1      51.069  34.105  51.912  0.00  0.00     0.000 A 
ATOM     21  C   UNL d   1      51.801  34.381  52.190  0.00  0.00     0.005 A 
ENDBRANCH  14  16
ENDBRANCH  12  13
ENDBRANCH   1  12
TORSDOF 4
ENDMDL
MODEL 2
REMARK VINA RESULT:      -8.7      1.730      3.955
REMARK  4 active torsions:
REMARK  status: ('A' for Active; 'I' for Inactive)
REMARK    1  A    between atoms: C_10  and  N_1 
REMARK       I    between atoms: C_6  and  N_9 
REMARK    2  A    between atoms: C_8  and  C_6 
REMARK    3  A    between atoms: N_9  and  C_12 
REMARK    4  A    between atoms: C_12  and  C_10 
ROOT
ATOM      1  C   UNL d   1      53.200  32.484  52.928  0.00  0.00     0.101 C 
ENDROOT
BRANCH   1   2
ATOM      2  N   UNL d   1      53.144  33.015  53.557  0.00  0.00    -0.304 N 
ATOM      3  C   UNL d   1      52.463  33.429  53.784  0.00  0.00     0.064 A 
ATOM      4  C   UNL d   1      52.652  33.894  54.434  0.00  0.00     0.019 A 
ATOM      5  C   UNL d   1      51.725  33.381  53.419  0.00  0.00     0.019 C 
ATOM      6  C   UNL d   1      53.447  33.776  54.618  0.00  0.00     0.018 A 
ATOM      7  C   UNL d   1      53.754  33.232  54.077  0.00  0.00     0.064 A 
ATOM      8  C   UNL d   1      53.939  34.084  55.200  0.00  0.00     0.002 A 
ATOM      9  C   UNL d   1      54.541  32.998  54.115  0.00  0.00     0.018 A 
ATOM     10  C   UNL d   1      55.032  33.306  54.698  0.00  0.00     0.002 A 
ATOM     11  C   UNL d   1      54.737  33.856  55.251  0.00  0.00     0.000 A 
ENDBRANCH   1   2
BRANCH   1  12
ATOM     12  C   UNL d   1      53.024  31.688  53.046  0.00  0.00     0.121 C 
BRANCH  12  13
ATOM     13  N   UNL d   1      52.927  31.189  52.396  0.00  0.00    -0.205 NA
ATOM     14  C   UNL d   1      52.912  30.372  52.498  0.00  0.00     0.279 C 
ATOM     15  O   UNL d   1      52.815  29.873  51.848  0.00  0.00    -0.265 OA
BRANCH  14  16
ATOM     16  C   UNL d   1      52.996  30.051  53.258  0.00  0.00     0.058 A 
ATOM     17  C   UNL d   1      52.342  29.944  53.717  0.00  0.00     0.005 A 
ATOM     18  C   UNL d   1      52.419  29.625  54.475  0.00  0.00     0.000 A 
ATOM     19  C   UNL d   1      53.153  29.412  54.774  0.00  0.00     0.000 A 
ATOM     20  C   UNL d   1      53.830  29.525  54.294  0.00  0.00     0.000 A 
ATOM     21  C   UNL d   1      53.746  29.846  53.533  0.00  0.00     0.005 A 
ENDBRANCH  14  16
ENDBRANCH  12  13
ENDBRANCH   1  12
TORSDOF 4
ENDMDL
MODEL 3
REMARK VINA RESULT:      -7.3      1.115      3.717
REMARK  4 active torsions:
REMARK  status: ('A' for Active; 'I' for Inactive)
REMARK    1  A    between atoms: C_10  and  N_1 
REMARK       I    between atoms: C_6  and  N_9 
REMARK    2  A    between atoms: C_8  and  C_6 
REMARK    3  A    between atoms: N_9  and  C_12 
REMARK    4  A    between atoms: C_12  and  C_10 
ROOT
ATOM      1  C   UNL d   1      53.123  34.323  53.076  0.00  0.00     0.101 C 
ENDROOT
BRANCH   1   2
ATOM      2  N   UNL d   1      52.348  34.522  53.278  0.00  0.00    -0.304 N 
ATOM      3  C   UNL d   1      52.112  34.913  53.969  0.00  0.00     0.064 A 
ATOM      4  C   UNL d   1      51.295  35.000  53.948  0.00  0.00     0.019 A 
ATOM      5  C   UNL d   1      52.611  35.170  54.573  0.00  0.00     0.019 C 
ATOM      6  C   UNL d   1      51.016  34.665  53.247  0.00  0.00     0.018 A 
ATOM      7  C   UNL d   1      51.665  34.369  52.831  0.00  0.00     0.064 A 
ATOM      8  C   UNL d   1      50.264  34.587  52.925  0.00  0.00     0.002 A 
ATOM      9  C   UNL d   1      51.567  33.999  52.104  0.00  0.00     0.018 A 
ATOM     10  C   UNL d   1      50.815  33.921  51.782  0.00  0.00     0.002 A 
ATOM     11  C   UNL d   1      50.149  34.215  52.190  0.00  0.00     0.000 A 
ENDBRANCH   1   2
BRANCH   1  12
ATOM     12  C   UNL d   1      53.453  33.622  53.356  0.00  0.00     0.121 C 
BRANCH  12  13
ATOM     13  N   UNL d   1      54.272  33.522  53.348  0.00  0.00    -0.205 NA
ATOM     14  C   UNL d   1      54.601  32.780  53.486  0.00  0.00     0.279 C 
ATOM     15  O   UNL d   1      55.420  32.680  53.478  0.00  0.00    -0.265 OA
BRANCH  14  16
ATOM     16  C   UNL d   1      54.106  32.131  53.634  0.00  0.00     0.058 A 
ATOM     17  C   UNL d   1      53.849  31.680  53.017  0.00  0.00     0.005 A 
ATOM     18  C   UNL d   1      53.356  31.033  53.157  0.00  0.00     0.000 A 
ATOM     19  C   UNL d   1      53.118  30.837  53.918  0.00  0.00     0.000 A 
ATOM     20  C   UNL d   1      53.387  31.307  54.556  0.00  0.00     0.000 A 
ATOM     21  C   UNL d   1      53.882  31.957  54.408  0.00  0.00     0.005 A 
ENDBRANCH  14  16
ENDBRANCH  12  13
ENDBRANCH   1  12
TORSDOF 4
ENDMDL
MODEL 4
REMARK VINA RESULT:      -7.2      1.665      2.351
REMARK  4 active torsions:
REMARK  status: ('A' for Active; 'I' for Inactive)
REMARK    1  A    between atoms: C_10  and  N_1 
REMARK       I    between atoms: C_6  and  N_9 
REMARK    2  A    between atoms: C_8  and  C_6 
REMARK    3  A    between atoms: N_9  and  C_12 
REMARK    4  A    between atoms: C_12  and  C_10 
ROOT
ATOM      1  C   UNL d   1      54.024  32.205  53.349  0.00  0.00     0.101 C 
ENDROOT
BRANCH   1   2
ATOM      2  N   UNL d   1      53.405  31.671  53.232  0.00  0.00    -0.304 N 
ATOM      3  C   UNL d   1      52.702  31.826  52.824  0.00  0.00     0.064 A 
ATOM      4  C   UNL d   1      52.242  31.145  52.839  0.00  0.00     0.019 A 
ATOM      5  C   UNL d   1      52.499  32.540  52.465  0.00  0.00     0.019 C 
ATOM      6  C   UNL d   1      52.653  30.563  53.255  0.00  0.00     0.018 A 
ATOM      7  C   UNL d   1      53.372  30.886  53.499  0.00  0.00     0.064 A 
ATOM      8  C   UNL d   1      52.476  29.783  53.448  0.00  0.00     0.002 A 
ATOM      9  C   UNL d   1      53.910  30.438  53.930  0.00  0.00     0.018 A 
ATOM     10  C   UNL d   1      53.734  29.659  54.123  0.00  0.00     0.002 A 
ATOM     11  C   UNL d   1      53.010  29.318  53.884  0.00  0.00     0.000 A 
ENDBRANCH   1   2
BRANCH   1  12
ATOM     12  C   UNL d   1      53.969  32.772  53.945  0.00  0.00     0.121 C 
BRANCH  12  13
ATOM     13  N   UNL d   1      54.634  32.956  54.398  0.00  0.00    -0.205 NA
ATOM     14  C   UNL d   1      54.678  33.675  54.797  0.00  0.00     0.279 C 
ATOM     15  O   UNL d   1      55.342  33.859  55.250  0.00  0.00    -0.265 OA
BRANCH  14  16
ATOM     16  C   UNL d   1      54.051  34.215  54.742  0.00  0.00     0.058 A 
ATOM     17  C   UNL d   1      53.454  34.184  55.283  0.00  0.00     0.005 A 
ATOM     18  C   UNL d   1      52.826  34.718  55.235  0.00  0.00     0.000 A 
ATOM     19  C   UNL d   1      52.796  35.286  54.642  0.00  0.00     0.000 A 
ATOM     20  C   UNL d   1      53.418  35.315  54.082  0.00  0.00     0.000 A 
ATOM     21  C   UNL d   1      54.046  34.775  54.137  0.00  0.00     0.005 A 
ENDBRANCH  14  16
ENDBRANCH  12  13
ENDBRANCH   1  12
TORSDOF 4
ENDMDL
MODEL 5
REMARK VINA RESULT:      -7.2      1.472      3.606
REMARK  4 active torsions:
REMARK  status: ('A' for Active; 'I' for Inactive)
REMARK    1  A    between atoms: C_10  and  N_1 
REMARK       I    between atoms: C_6  and  N_9 
REMARK    2  A    between atoms: C_8  and  C_6 
REMARK    3  A    between atoms: N_9  and  C_12 
REMARK    4  A    between atoms: C_12  and  C_10 
ROOT
ATOM      1  C   UNL d   1      52.954  32.691  52.652  0.00  0.00     0.101 C 
ENDROOT
BRANCH   1   2
ATOM      2  N   UNL d   1      52.158  32.727  52.867  0.00  0.00    -0.304 N 
ATOM      3  C   UNL d   1      51.699  32.093  53.138  0.00  0.00     0.064 A 
ATOM      4  C   UNL d   1      50.940  32.372  53.288  0.00  0.00     0.019 A 
ATOM      5  C   UNL d   1      51.959  31.317  53.239  0.00  0.00     0.019 C 
ATOM      6  C   UNL d   1      50.920  33.178  53.112  0.00  0.00     0.018 A 
ATOM      7  C   UNL d   1      51.672  33.400  52.852  0.00  0.00     0.064 A 
ATOM      8  C   UNL d   1      50.325  33.744  53.152  0.00  0.00     0.002 A 
ATOM      9  C   UNL d   1      51.830  34.176  52.633  0.00  0.00     0.018 A 
ATOM     10  C   UNL d   1      51.235  34.743  52.673  0.00  0.00     0.002 A 
ATOM     11  C   UNL d   1      50.471  34.534  52.934  0.00  0.00     0.000 A 
ENDBRANCH   1   2
BRANCH   1  12
ATOM     12  C   UNL d   1      53.538  32.807  53.221  0.00  0.00     0.121 C 
BRANCH  12  13
ATOM     13  N   UNL d   1      54.333  32.737  53.013  0.00  0.00    -0.205 NA
ATOM     14  C   UNL d   1      54.923  32.939  53.550  0.00  0.00     0.279 C 
ATOM     15  O   UNL d   1      55.718  32.870  53.342  0.00  0.00    -0.265 OA
BRANCH  14  16
ATOM     16  C   UNL d   1      54.715  33.214  54.305  0.00  0.00     0.058 A 
ATOM     17  C   UNL d   1      54.538  32.683  54.885  0.00  0.00     0.005 A 
ATOM     18  C   UNL d   1      54.330  32.949  55.638  0.00  0.00     0.000 A 
ATOM     19  C   UNL d   1      54.299  33.751  55.811  0.00  0.00     0.000 A 
ATOM     20  C   UNL d   1      54.483  34.300  55.206  0.00  0.00     0.000 A 
ATOM     21  C   UNL d   1      54.691  34.026  54.451  0.00  0.00     0.005 A 
ENDBRANCH  14  16
ENDBRANCH  12  13
ENDBRANCH   1  12
TORSDOF 4
ENDMDL
MODEL 6
REMARK VINA RESULT:      -6.9      1.015      2.187
REMARK  4 active torsions:
REMARK  status: ('A' for Active; 'I' for Inactive)
REMARK    1  A    between atoms: C_10  and  N_1 
REMARK       I    between atoms: C_6  and  N_9 
REMARK    2  A    between atoms: C_8  and  C_6 
REMARK    3  A    between atoms: N_9  and  C_12 
REMARK    4  A    between atoms: C_12  and  C_10 
ROOT
ATOM      1  C   UNL d   1      53.427  32.867  52.851  0.00  0.00     0.101 C 
ENDROOT
BRANCH   1   2
ATOM      2  N   UNL d   1      53.615  32.560  53.593  0.00  0.00    -0.304 N 
ATOM      3  C   UNL d   1      53.463  31.788  53.851  0.00  0.00     0.064 A 
ATOM      4  C   UNL d   1      53.739  31.716  54.623  0.00  0.00     0.019 A 
ATOM      5  C   UNL d   1      53.098  31.194  53.411  0.00  0.00     0.019 C 
ATOM      6  C   UNL d   1      54.064  32.440  54.850  0.00  0.00     0.018 A 
ATOM      7  C   UNL d   1      53.988  32.963  54.216  0.00  0.00     0.064 A 
ATOM      8  C   UNL d   1      54.418  32.699  55.545  0.00  0.00     0.002 A 
ATOM      9  C   UNL d   1      54.263  33.736  54.272  0.00  0.00     0.018 A 
ATOM     10  C   UNL d   1      54.617  33.995  54.967  0.00  0.00     0.002 A 
ATOM     11  C   UNL d   1      54.701  33.478  55.617  0.00  0.00     0.000 A 
ENDBRANCH   1   2
BRANCH   1  12
ATOM     12  C   UNL d   1      52.714  33.264  52.740  0.00  0.00     0.121 C 
BRANCH  12  13
ATOM     13  N   UNL d   1      52.536  33.590  52.003  0.00  0.00    -0.205 NA
ATOM     14  C   UNL d   1      51.839  34.014  51.893  0.00  0.00     0.279 C 
ATOM     15  O   UNL d   1      51.662  34.340  51.156  0.00  0.00    -0.265 OA
BRANCH  14  16
ATOM     16  C   UNL d   1      51.314  34.112  52.527  0.00  0.00     0.058 A 
ATOM     17  C   UNL d   1      50.730  33.570  52.645  0.00  0.00     0.005 A 
ATOM     18  C   UNL d   1      50.203  33.661  53.275  0.00  0.00     0.000 A 
ATOM     19  C   UNL d   1      50.261  34.299  53.788  0.00  0.00     0.000 A 
ATOM     20  C   UNL d   1      50.869  34.861  53.663  0.00  0.00     0.000 A 
ATOM     21  C   UNL d   1      51.396  34.763  53.028  0.00  0.00     0.005 A 
ENDBRANCH  14  16
ENDBRANCH  12  13
ENDBRANCH   1  12
TORSDOF 4
ENDMDL
