MODEL 1
REMARK VINA RESULT:      -4.9      0.000      0.000
REMARK  7 active torsions:
REMARK  status: ('A' for Active; 'I' for Inactive)
REMARK    1  A    between atoms: C_5  and  C_1 
REMARK    2  A    between atoms: N_3  and  C_2 
REMARK    3  A    between atoms: C_14  and  C_5 
REMARK    4  A    between atoms: C_10  and  C_6 
REMARK    5  A    between atoms: O_19  and  C_10 
REMARK    6  A    between atoms: O_22  and  C_18 
REMARK    7  A    between atoms: C_26  and  O_19 
ROOT
ATOM      1  C   UNL d   1     -39.449  14.756  19.768  0.00  0.00     0.074 A 
ATOM      2  C   UNL d   1     -39.740  14.540  20.522  0.00  0.00     0.070 A 
ATOM      3  C   UNL d   1     -39.237  14.197  21.079  0.00  0.00     0.036 A 
ATOM      4  C   UNL d   1     -38.655  14.624  19.583  0.00  0.00     0.103 A 
ATOM      5  N   UNL d   1     -38.150  14.276  20.152  0.00  0.00    -0.244 NA
ATOM      6  C   UNL d   1     -38.443  14.065  20.894  0.00  0.00     0.083 A 
ATOM      7  C   UNL d   1     -39.530  13.986  21.821  0.00  0.00     0.027 A 
ATOM      8  C   UNL d   1     -37.940  13.722  21.451  0.00  0.00     0.021 A 
ATOM      9  C   UNL d   1     -39.027  13.643  22.378  0.00  0.00     0.094 A 
ATOM     10  C   UNL d   1     -38.232  13.511  22.194  0.00  0.00     0.026 A 
ENDROOT
BRANCH   2  11
ATOM     11  N   UNL d   1     -40.539  14.673  20.708  0.00  0.00    -0.303 N 
ATOM     12  C   UNL d   1     -41.076  14.047  20.692  0.00  0.00     0.086 A 
ATOM     13  C   UNL d   1     -41.879  14.181  20.879  0.00  0.00     0.081 A 
ATOM     14  C   UNL d   1     -42.136  14.938  21.080  0.00  0.00     0.008 A 
ATOM     15  C   UNL d   1     -41.599  15.564  21.096  0.00  0.00     0.019 A 
ATOM     16  C   UNL d   1     -40.796  15.430  20.909  0.00  0.00     0.080 A 
BRANCH  13  17
ATOM     17  C   UNL d   1     -42.423  13.544  20.862  0.00  0.00     0.302 C 
ATOM     18  O   UNL d   1     -42.399  13.008  20.222  0.00  0.00    -0.259 OA
BRANCH  17  19
ATOM     19  O   UNL d   1     -42.971  13.452  21.471  0.00  0.00    -0.271 OA
BRANCH  19  20
ATOM     20  C   UNL d   1     -43.469  12.794  21.481  0.00  0.00     0.126 C 
ATOM     21  C   UNL d   1     -44.210  12.844  21.839  0.00  0.00     0.029 C 
ENDBRANCH  19  20
ENDBRANCH  17  19
ENDBRANCH  13  17
ENDBRANCH   2  11
BRANCH   1  22
ATOM     22  C   UNL d   1     -39.952  15.099  19.211  0.00  0.00     0.198 C 
ATOM     23  O   UNL d   1     -40.566  15.600  19.445  0.00  0.00    -0.286 OA
BRANCH  22  24
ATOM     24  C   UNL d   1     -39.843  14.942  18.409  0.00  0.00     0.039 A 
ATOM     25  C   UNL d   1     -40.093  14.220  18.095  0.00  0.00     0.003 A 
ATOM     26  C   UNL d   1     -39.985  14.054  17.283  0.00  0.00     0.000 A 
ATOM     27  C   UNL d   1     -39.626  14.624  16.804  0.00  0.00     0.000 A 
ATOM     28  C   UNL d   1     -39.376  15.345  17.118  0.00  0.00     0.000 A 
ATOM     29  C   UNL d   1     -39.485  15.504  17.921  0.00  0.00     0.003 A 
ENDBRANCH  22  24
ENDBRANCH   1  22
BRANCH   9  30
ATOM     30  O   UNL d   1     -39.323  13.433  23.122  0.00  0.00    -0.328 OA
ATOM     31  C   UNL d   1     -38.809  13.122  23.690  0.00  0.00     0.181 C 
ENDBRANCH   9  30
TORSDOF 7
ENDMDL
MODEL 2
REMARK VINA RESULT:      -2.6      4.488      8.349
REMARK  7 active torsions:
REMARK  status: ('A' for Active; 'I' for Inactive)
REMARK    1  A    between atoms: C_5  and  C_1 
REMARK    2  A    between atoms: N_3  and  C_2 
REMARK    3  A    between atoms: C_14  and  C_5 
REMARK    4  A    between atoms: C_10  and  C_6 
REMARK    5  A    between atoms: O_19  and  C_10 
REMARK    6  A    between atoms: O_22  and  C_18 
REMARK    7  A    between atoms: C_26  and  O_19 
ROOT
ATOM      1  C   UNL d   1     -48.309  13.414  22.852  0.00  0.00     0.074 A 
ATOM      2  C   UNL d   1     -47.586  13.011  22.977  0.00  0.00     0.070 A 
ATOM      3  C   UNL d   1     -47.587  12.221  23.216  0.00  0.00     0.036 A 
ATOM      4  C   UNL d   1     -49.024  13.017  22.969  0.00  0.00     0.103 A 
ATOM      5  N   UNL d   1     -49.018  12.217  23.211  0.00  0.00    -0.244 NA
ATOM      6  C   UNL d   1     -48.302  11.825  23.333  0.00  0.00     0.083 A 
ATOM      7  C   UNL d   1     -46.871  11.829  23.337  0.00  0.00     0.027 A 
ATOM      8  C   UNL d   1     -48.302  11.035  23.572  0.00  0.00     0.021 A 
ATOM      9  C   UNL d   1     -46.871  11.039  23.577  0.00  0.00     0.094 A 
ATOM     10  C   UNL d   1     -47.586  10.643  23.694  0.00  0.00     0.026 A 
ENDROOT
BRANCH   2  11
ATOM     11  N   UNL d   1     -46.867  13.411  22.859  0.00  0.00    -0.303 N 
ATOM     12  C   UNL d   1     -46.321  13.125  22.310  0.00  0.00     0.086 A 
ATOM     13  C   UNL d   1     -45.598  13.526  22.192  0.00  0.00     0.081 A 
ATOM     14  C   UNL d   1     -45.429  14.209  22.623  0.00  0.00     0.008 A 
ATOM     15  C   UNL d   1     -45.975  14.494  23.172  0.00  0.00     0.019 A 
ATOM     16  C   UNL d   1     -46.698  14.093  23.290  0.00  0.00     0.080 A 
BRANCH  13  17
ATOM     17  C   UNL d   1     -45.046  13.235  21.635  0.00  0.00     0.302 C 
ATOM     18  O   UNL d   1     -45.284  13.139  20.840  0.00  0.00    -0.259 OA
BRANCH  17  19
ATOM     19  O   UNL d   1     -44.279  13.046  21.873  0.00  0.00    -0.271 OA
BRANCH  19  20
ATOM     20  C   UNL d   1     -43.698  12.898  21.307  0.00  0.00     0.126 C 
ATOM     21  C   UNL d   1     -42.912  12.805  21.539  0.00  0.00     0.029 C 
ENDBRANCH  19  20
ENDBRANCH  17  19
ENDBRANCH  13  17
ENDBRANCH   2  11
BRANCH   1  22
ATOM     22  C   UNL d   1     -48.308  14.204  22.612  0.00  0.00     0.198 C 
ATOM     23  O   UNL d   1     -47.618  14.563  22.334  0.00  0.00    -0.286 OA
BRANCH  22  24
ATOM     24  C   UNL d   1     -49.005  14.644  22.651  0.00  0.00     0.039 A 
ATOM     25  C   UNL d   1     -49.160  15.110  23.315  0.00  0.00     0.003 A 
ATOM     26  C   UNL d   1     -49.864  15.557  23.359  0.00  0.00     0.000 A 
ATOM     27  C   UNL d   1     -50.398  15.525  22.730  0.00  0.00     0.000 A 
ATOM     28  C   UNL d   1     -50.243  15.059  22.066  0.00  0.00     0.000 A 
ATOM     29  C   UNL d   1     -49.546  14.618  22.027  0.00  0.00     0.003 A 
ENDBRANCH  22  24
ENDBRANCH   1  22
BRANCH   9  30
ATOM     30  O   UNL d   1     -46.152  10.649  23.698  0.00  0.00    -0.328 OA
ATOM     31  C   UNL d   1     -45.975   9.977  23.249  0.00  0.00     0.181 C 
ENDBRANCH   9  30
TORSDOF 7
ENDMDL
MODEL 3
REMARK VINA RESULT:      -2.3      5.528      8.443
REMARK  7 active torsions:
REMARK  status: ('A' for Active; 'I' for Inactive)
REMARK    1  A    between atoms: C_5  and  C_1 
REMARK    2  A    between atoms: N_3  and  C_2 
REMARK    3  A    between atoms: C_14  and  C_5 
REMARK    4  A    between atoms: C_10  and  C_6 
REMARK    5  A    between atoms: O_19  and  C_10 
REMARK    6  A    between atoms: O_22  and  C_18 
REMARK    7  A    between atoms: C_26  and  O_19 
ROOT
ATOM      1  C   UNL d   1     -46.872  13.727  22.739  0.00  0.00     0.074 A 
ATOM      2  C   UNL d   1     -47.664  13.772  22.473  0.00  0.00     0.070 A 
ATOM      3  C   UNL d   1     -48.073  14.488  22.507  0.00  0.00     0.036 A 
ATOM      4  C   UNL d   1     -46.500  14.403  23.035  0.00  0.00     0.103 A 
ATOM      5  N   UNL d   1     -46.920  15.126  23.066  0.00  0.00    -0.244 NA
ATOM      6  C   UNL d   1     -47.702  15.164  22.803  0.00  0.00     0.083 A 
ATOM      7  C   UNL d   1     -48.854  14.527  22.244  0.00  0.00     0.027 A 
ATOM      8  C   UNL d   1     -48.111  15.880  22.836  0.00  0.00     0.021 A 
ATOM      9  C   UNL d   1     -49.263  15.243  22.277  0.00  0.00     0.094 A 
ATOM     10  C   UNL d   1     -48.892  15.919  22.573  0.00  0.00     0.026 A 
ENDROOT
BRANCH   2  11
ATOM     11  N   UNL d   1     -48.038  13.092  22.176  0.00  0.00    -0.303 N 
ATOM     12  C   UNL d   1     -48.492  12.618  22.675  0.00  0.00     0.086 A 
ATOM     13  C   UNL d   1     -48.867  11.935  22.376  0.00  0.00     0.081 A 
ATOM     14  C   UNL d   1     -48.784  11.733  21.581  0.00  0.00     0.008 A 
ATOM     15  C   UNL d   1     -48.330  12.207  21.081  0.00  0.00     0.019 A 
ATOM     16  C   UNL d   1     -47.955  12.891  21.380  0.00  0.00     0.080 A 
BRANCH  13  17
ATOM     17  C   UNL d   1     -49.327  11.456  22.885  0.00  0.00     0.302 C 
ATOM     18  O   UNL d   1     -49.399  10.640  22.719  0.00  0.00    -0.259 OA
BRANCH  17  19
ATOM     19  O   UNL d   1     -49.703  11.789  23.540  0.00  0.00    -0.271 OA
BRANCH  19  20
ATOM     20  C   UNL d   1     -50.493  11.610  23.696  0.00  0.00     0.126 C 
ATOM     21  C   UNL d   1     -51.064  12.204  23.653  0.00  0.00     0.029 C 
ENDBRANCH  19  20
ENDBRANCH  17  19
ENDBRANCH  13  17
ENDBRANCH   2  11
BRANCH   1  22
ATOM     22  C   UNL d   1     -46.463  13.011  22.705  0.00  0.00     0.198 C 
ATOM     23  O   UNL d   1     -46.810  12.310  22.973  0.00  0.00    -0.286 OA
BRANCH  22  24
ATOM     24  C   UNL d   1     -45.697  12.991  22.401  0.00  0.00     0.039 A 
ATOM     25  C   UNL d   1     -45.381  13.663  22.039  0.00  0.00     0.003 A 
ATOM     26  C   UNL d   1     -44.606  13.649  21.728  0.00  0.00     0.000 A 
ATOM     27  C   UNL d   1     -44.164  12.954  21.790  0.00  0.00     0.000 A 
ATOM     28  C   UNL d   1     -44.479  12.282  22.151  0.00  0.00     0.000 A 
ATOM     29  C   UNL d   1     -45.246  12.301  22.457  0.00  0.00     0.003 A 
ENDBRANCH  22  24
ENDBRANCH   1  22
BRANCH   9  30
ATOM     30  O   UNL d   1     -50.046  15.278  22.013  0.00  0.00    -0.328 OA
ATOM     31  C   UNL d   1     -50.632  15.571  22.519  0.00  0.00     0.181 C 
ENDBRANCH   9  30
TORSDOF 7
ENDMDL
MODEL 4
REMARK VINA RESULT:      -1.9      5.284      8.458
REMARK  7 active torsions:
REMARK  status: ('A' for Active; 'I' for Inactive)
REMARK    1  A    between atoms: C_5  and  C_1 
REMARK    2  A    between atoms: N_3  and  C_2 
REMARK    3  A    between atoms: C_14  and  C_5 
REMARK    4  A    between atoms: C_10  and  C_6 
REMARK    5  A    between atoms: O_19  and  C_10 
REMARK    6  A    between atoms: O_22  and  C_18 
REMARK    7  A    between atoms: C_26  and  O_19 
ROOT
ATOM      1  C   UNL d   1     -47.800  14.307  23.032  0.00  0.00     0.074 A 
ATOM      2  C   UNL d   1     -47.330  13.657  22.794  0.00  0.00     0.070 A 
ATOM      3  C   UNL d   1     -46.551  13.774  22.549  0.00  0.00     0.036 A 
ATOM      4  C   UNL d   1     -47.480  15.069  23.019  0.00  0.00     0.103 A 
ATOM      5  N   UNL d   1     -46.689  15.181  22.769  0.00  0.00    -0.244 NA
ATOM      6  C   UNL d   1     -46.231  14.536  22.536  0.00  0.00     0.083 A 
ATOM      7  C   UNL d   1     -46.093  13.129  22.315  0.00  0.00     0.027 A 
ATOM      8  C   UNL d   1     -45.452  14.653  22.291  0.00  0.00     0.021 A 
ATOM      9  C   UNL d   1     -45.314  13.246  22.070  0.00  0.00     0.094 A 
ATOM     10  C   UNL d   1     -44.994  14.007  22.057  0.00  0.00     0.026 A 
ENDROOT
BRANCH   2  11
ATOM     11  N   UNL d   1     -47.652  12.891  22.807  0.00  0.00    -0.303 N 
ATOM     12  C   UNL d   1     -48.178  12.654  22.217  0.00  0.00     0.086 A 
ATOM     13  C   UNL d   1     -48.502  11.885  22.229  0.00  0.00     0.081 A 
ATOM     14  C   UNL d   1     -48.296  11.360  22.832  0.00  0.00     0.008 A 
ATOM     15  C   UNL d   1     -47.770  11.596  23.421  0.00  0.00     0.019 A 
ATOM     16  C   UNL d   1     -47.447  12.366  23.409  0.00  0.00     0.080 A 
BRANCH  13  17
ATOM     17  C   UNL d   1     -49.036  11.647  21.630  0.00  0.00     0.302 C 
ATOM     18  O   UNL d   1     -48.749  11.195  20.988  0.00  0.00    -0.259 OA
BRANCH  17  19
ATOM     19  O   UNL d   1     -49.831  11.858  21.677  0.00  0.00    -0.271 OA
BRANCH  19  20
ATOM     20  C   UNL d   1     -50.252  12.033  20.989  0.00  0.00     0.126 C 
ATOM     21  C   UNL d   1     -51.006  12.363  21.041  0.00  0.00     0.029 C 
ENDBRANCH  19  20
ENDBRANCH  17  19
ENDBRANCH  13  17
ENDBRANCH   2  11
BRANCH   1  22
ATOM     22  C   UNL d   1     -48.579  14.190  23.277  0.00  0.00     0.198 C 
ATOM     23  O   UNL d   1     -48.795  13.511  23.695  0.00  0.00    -0.286 OA
BRANCH  22  24
ATOM     24  C   UNL d   1     -49.152  14.756  23.104  0.00  0.00     0.039 A 
ATOM     25  C   UNL d   1     -49.716  14.957  23.674  0.00  0.00     0.003 A 
ATOM     26  C   UNL d   1     -50.300  15.531  23.504  0.00  0.00     0.000 A 
ATOM     27  C   UNL d   1     -50.301  15.890  22.761  0.00  0.00     0.000 A 
ATOM     28  C   UNL d   1     -49.739  15.690  22.191  0.00  0.00     0.000 A 
ATOM     29  C   UNL d   1     -49.164  15.123  22.364  0.00  0.00     0.003 A 
ENDBRANCH  22  24
ENDBRANCH   1  22
BRANCH   9  30
ATOM     30  O   UNL d   1     -44.857  12.597  21.837  0.00  0.00    -0.328 OA
ATOM     31  C   UNL d   1     -44.038  12.617  21.949  0.00  0.00     0.181 C 
ENDBRANCH   9  30
TORSDOF 7
ENDMDL
