MODEL 1
REMARK VINA RESULT:      39.8      0.000      0.000
REMARK  2 active torsions:
REMARK  status: ('A' for Active; 'I' for Inactive)
REMARK       I    between atoms: C_6  and  N_7 
REMARK    1  A    between atoms: C_9  and  C_6 
REMARK    2  A    between atoms: N_7  and  C_13 
ROOT
ATOM      1  N   UNL d   1     -59.233 -98.838 -43.947  0.00  0.00    -0.169 NA
ATOM      2  C   UNL d   1     -58.904 -98.833 -44.700  0.00  0.00     0.282 A 
ATOM      3  C   UNL d   1     -58.621 -98.817 -43.402  0.00  0.00     0.282 A 
ATOM      4  C   UNL d   1     -58.078 -98.809 -44.617  0.00  0.00     0.064 A 
ATOM      5  C   UNL d   1     -57.913 -98.799 -43.816  0.00  0.00     0.063 A 
ATOM      6  C   UNL d   1     -57.126 -98.774 -43.564  0.00  0.00     0.006 A 
ATOM      7  C   UNL d   1     -57.473 -98.794 -45.178  0.00  0.00     0.024 A 
ATOM      8  O   UNL d   1     -59.336 -98.851 -45.401  0.00  0.00    -0.265 OA
ATOM      9  O   UNL d   1     -58.696 -98.814 -42.581  0.00  0.00    -0.265 OA
ATOM     10  C   UNL d   1     -56.692 -98.770 -44.927  0.00  0.00     0.085 A 
ATOM     11  C   UNL d   1     -56.514 -98.759 -44.118  0.00  0.00     0.019 A 
ENDROOT
BRANCH  10  12
ATOM     12  N   UNL d   1     -56.086 -98.756 -45.487  0.00  0.00    -0.208 NA
ATOM     13  C   UNL d   1     -55.404 -99.197 -45.364  0.00  0.00     0.279 C 
ATOM     14  O   UNL d   1     -54.803 -99.180 -45.924  0.00  0.00    -0.265 OA
BRANCH  13  15
ATOM     15  C   UNL d   1     -55.320 -99.650 -44.690  0.00  0.00     0.058 A 
ATOM     16  C   UNL d   1     -54.882 -99.353 -44.055  0.00  0.00     0.005 A 
ATOM     17  C   UNL d   1     -54.790 -99.800 -43.373  0.00  0.00     0.000 A 
ATOM     18  C   UNL d   1     -55.140-100.554 -43.318  0.00  0.00     0.000 A 
ATOM     19  C   UNL d   1     -55.577-100.847 -43.955  0.00  0.00     0.000 A 
ATOM     20  C   UNL d   1     -55.051-101.012 -42.630  0.00  0.00     0.000 C 
ATOM     21  C   UNL d   1     -55.662-100.390 -44.635  0.00  0.00     0.005 A 
ENDBRANCH  13  15
ENDBRANCH  10  12
TORSDOF 2
ENDMDL
