MODEL 1
REMARK VINA RESULT:      -6.4      0.000      0.000
REMARK  5 active torsions:
REMARK  status: ('A' for Active; 'I' for Inactive)
REMARK       I    between atoms: C_3  and  N_1 
REMARK    1  A    between atoms: C_8  and  N_2 
REMARK    2  A    between atoms: C_11  and  C_3 
REMARK    3  A    between atoms: S_10  and  C_11 
REMARK    4  A    between atoms: C_13  and  S_10 
REMARK    5  A    between atoms: C_12  and  C_13 
ROOT
ATOM      1  N   UNL d   1     -47.296  13.616  22.969  0.00  0.00    -0.269 N 
ATOM      2  N   UNL d   1     -48.781  14.324  22.895  0.00  0.00    -0.301 N 
ATOM      3  C   UNL d   1     -46.546  13.253  23.007  0.00  0.00     0.259 C 
ATOM      4  C   UNL d   1     -47.971  13.151  23.005  0.00  0.00     0.102 A 
ATOM      5  C   UNL d   1     -47.360  14.435  22.896  0.00  0.00     0.102 A 
ATOM      6  C   UNL d   1     -48.100  14.789  22.859  0.00  0.00     0.100 A 
ATOM      7  C   UNL d   1     -48.716  13.504  22.968  0.00  0.00     0.100 A 
ATOM      8  O   UNL d   1     -45.855  13.706  22.972  0.00  0.00    -0.267 OA
ENDROOT
BRANCH   3   9
ATOM      9  C   UNL d   1     -46.485  12.421  23.081  0.00  0.00     0.125 C 
BRANCH   9  10
ATOM     10  S   UNL d   1     -45.770  12.089  23.276  0.00  0.00    -0.094 SA
BRANCH  10  11
ATOM     11  C   UNL d   1     -45.708  11.271  23.358  0.00  0.00     0.035 C 
BRANCH  11  12
ATOM     12  C   UNL d   1     -44.970  10.911  23.355  0.00  0.00     0.006 A 
ATOM     13  C   UNL d   1     -44.876  10.165  23.697  0.00  0.00     0.001 A 
ATOM     14  C   UNL d   1     -44.135   9.801  23.695  0.00  0.00     0.000 A 
ATOM     15  C   UNL d   1     -43.490  10.182  23.352  0.00  0.00     0.000 A 
ATOM     16  C   UNL d   1     -43.583  10.927  23.010  0.00  0.00     0.000 A 
ATOM     17  C   UNL d   1     -44.324  11.291  23.012  0.00  0.00     0.001 A 
ENDBRANCH  11  12
ENDBRANCH  10  11
ENDBRANCH   9  10
ENDBRANCH   3   9
BRANCH   2  18
ATOM     18  C   UNL d   1     -49.515  14.678  22.858  0.00  0.00     0.064 A 
ATOM     19  C   UNL d   1     -49.694  15.316  23.347  0.00  0.00     0.018 A 
ATOM     20  C   UNL d   1     -50.439  15.671  23.306  0.00  0.00     0.002 A 
ATOM     21  C   UNL d   1     -51.003  15.386  22.776  0.00  0.00     0.000 A 
ATOM     22  C   UNL d   1     -50.824  14.748  22.287  0.00  0.00     0.002 A 
ATOM     23  C   UNL d   1     -50.081  14.393  22.328  0.00  0.00     0.018 A 
ENDBRANCH   2  18
TORSDOF 5
ENDMDL
MODEL 2
REMARK VINA RESULT:      -6.4      1.336      5.924
REMARK  5 active torsions:
REMARK  status: ('A' for Active; 'I' for Inactive)
REMARK       I    between atoms: C_3  and  N_1 
REMARK    1  A    between atoms: C_8  and  N_2 
REMARK    2  A    between atoms: C_11  and  C_3 
REMARK    3  A    between atoms: S_10  and  C_11 
REMARK    4  A    between atoms: C_13  and  S_10 
REMARK    5  A    between atoms: C_12  and  C_13 
ROOT
ATOM      1  N   UNL d   1     -47.184  12.019  23.340  0.00  0.00    -0.269 N 
ATOM      2  N   UNL d   1     -45.682  11.344  23.335  0.00  0.00    -0.301 N 
ATOM      3  C   UNL d   1     -47.943  12.365  23.339  0.00  0.00     0.259 C 
ATOM      4  C   UNL d   1     -46.553  12.430  23.012  0.00  0.00     0.102 A 
ATOM      5  C   UNL d   1     -47.066  11.270  23.666  0.00  0.00     0.102 A 
ATOM      6  C   UNL d   1     -46.318  10.933  23.664  0.00  0.00     0.100 A 
ATOM      7  C   UNL d   1     -45.800  12.093  23.009  0.00  0.00     0.100 A 
ATOM      8  O   UNL d   1     -48.589  11.965  23.665  0.00  0.00    -0.267 OA
ENDROOT
BRANCH   3   9
ATOM      9  C   UNL d   1     -48.059  13.125  23.007  0.00  0.00     0.125 C 
BRANCH   9  10
ATOM     10  S   UNL d   1     -48.802  13.451  23.005  0.00  0.00    -0.094 SA
BRANCH  10  11
ATOM     11  C   UNL d   1     -48.908  14.227  22.747  0.00  0.00     0.035 C 
BRANCH  11  12
ATOM     12  C   UNL d   1     -49.535  14.674  23.031  0.00  0.00     0.006 A 
ATOM     13  C   UNL d   1     -50.277  14.325  23.130  0.00  0.00     0.001 A 
ATOM     14  C   UNL d   1     -50.908  14.773  23.414  0.00  0.00     0.000 A 
ATOM     15  C   UNL d   1     -50.800  15.568  23.600  0.00  0.00     0.000 A 
ATOM     16  C   UNL d   1     -50.059  15.918  23.501  0.00  0.00     0.000 A 
ATOM     17  C   UNL d   1     -49.427  15.470  23.216  0.00  0.00     0.001 A 
ENDBRANCH  11  12
ENDBRANCH  10  11
ENDBRANCH   9  10
ENDBRANCH   3   9
BRANCH   2  18
ATOM     18  C   UNL d   1     -44.938  11.007  23.334  0.00  0.00     0.064 A 
ATOM     19  C   UNL d   1     -44.812  10.278  23.698  0.00  0.00     0.018 A 
ATOM     20  C   UNL d   1     -44.059   9.940  23.695  0.00  0.00     0.002 A 
ATOM     21  C   UNL d   1     -43.433  10.333  23.328  0.00  0.00     0.000 A 
ATOM     22  C   UNL d   1     -43.559  11.062  22.965  0.00  0.00     0.002 A 
ATOM     23  C   UNL d   1     -44.312  11.399  22.968  0.00  0.00     0.018 A 
ENDBRANCH   2  18
TORSDOF 5
ENDMDL
MODEL 3
REMARK VINA RESULT:      -5.1      8.718     10.472
REMARK  5 active torsions:
REMARK  status: ('A' for Active; 'I' for Inactive)
REMARK       I    between atoms: C_3  and  N_1 
REMARK    1  A    between atoms: C_8  and  N_2 
REMARK    2  A    between atoms: C_11  and  C_3 
REMARK    3  A    between atoms: S_10  and  C_11 
REMARK    4  A    between atoms: C_13  and  S_10 
REMARK    5  A    between atoms: C_12  and  C_13 
ROOT
ATOM      1  N   UNL d   1     -39.235  14.156  18.841  0.00  0.00    -0.269 N 
ATOM      2  N   UNL d   1     -39.155  14.539  20.440  0.00  0.00    -0.301 N 
ATOM      3  C   UNL d   1     -39.271  13.962  18.031  0.00  0.00     0.259 C 
ATOM      4  C   UNL d   1     -38.509  14.326  19.183  0.00  0.00     0.102 A 
ATOM      5  C   UNL d   1     -39.923  14.176  19.296  0.00  0.00     0.102 A 
ATOM      6  C   UNL d   1     -39.884  14.367  20.093  0.00  0.00     0.100 A 
ATOM      7  C   UNL d   1     -38.468  14.519  19.985  0.00  0.00     0.100 A 
ATOM      8  O   UNL d   1     -39.994  13.787  17.670  0.00  0.00    -0.267 OA
ENDROOT
BRANCH   3   9
ATOM      9  C   UNL d   1     -38.570  13.942  17.571  0.00  0.00     0.125 C 
BRANCH   9  10
ATOM     10  S   UNL d   1     -38.619  14.018  16.764  0.00  0.00    -0.094 SA
BRANCH  10  11
ATOM     11  C   UNL d   1     -37.940  14.178  16.327  0.00  0.00     0.035 C 
BRANCH  11  12
ATOM     12  C   UNL d   1     -37.940  14.077  15.512  0.00  0.00     0.006 A 
ATOM     13  C   UNL d   1     -37.941  13.316  15.192  0.00  0.00     0.001 A 
ATOM     14  C   UNL d   1     -37.942  13.213  14.374  0.00  0.00     0.000 A 
ATOM     15  C   UNL d   1     -37.941  13.869  13.875  0.00  0.00     0.000 A 
ATOM     16  C   UNL d   1     -37.940  14.630  14.194  0.00  0.00     0.000 A 
ATOM     17  C   UNL d   1     -37.940  14.733  15.013  0.00  0.00     0.001 A 
ENDBRANCH  11  12
ENDBRANCH  10  11
ENDBRANCH   9  10
ENDBRANCH   3   9
BRANCH   2  18
ATOM     18  C   UNL d   1     -39.119  14.729  21.233  0.00  0.00     0.064 A 
ATOM     19  C   UNL d   1     -39.094  14.133  21.803  0.00  0.00     0.018 A 
ATOM     20  C   UNL d   1     -39.057  14.329  22.604  0.00  0.00     0.002 A 
ATOM     21  C   UNL d   1     -39.045  15.121  22.834  0.00  0.00     0.000 A 
ATOM     22  C   UNL d   1     -39.070  15.717  22.265  0.00  0.00     0.002 A 
ATOM     23  C   UNL d   1     -39.107  15.521  21.465  0.00  0.00     0.018 A 
ENDBRANCH   2  18
TORSDOF 5
ENDMDL
MODEL 4
REMARK VINA RESULT:      -4.8      3.232      4.389
REMARK  5 active torsions:
REMARK  status: ('A' for Active; 'I' for Inactive)
REMARK       I    between atoms: C_3  and  N_1 
REMARK    1  A    between atoms: C_8  and  N_2 
REMARK    2  A    between atoms: C_11  and  C_3 
REMARK    3  A    between atoms: S_10  and  C_11 
REMARK    4  A    between atoms: C_13  and  S_10 
REMARK    5  A    between atoms: C_12  and  C_13 
ROOT
ATOM      1  N   UNL d   1     -44.339  12.691  22.030  0.00  0.00    -0.269 N 
ATOM      2  N   UNL d   1     -45.893  12.889  22.535  0.00  0.00    -0.301 N 
ATOM      3  C   UNL d   1     -43.552  12.595  21.771  0.00  0.00     0.259 C 
ATOM      4  C   UNL d   1     -44.770  13.342  21.777  0.00  0.00     0.102 A 
ATOM      5  C   UNL d   1     -44.682  12.138  22.536  0.00  0.00     0.102 A 
ATOM      6  C   UNL d   1     -45.457  12.236  22.789  0.00  0.00     0.100 A 
ATOM      7  C   UNL d   1     -45.549  13.443  22.029  0.00  0.00     0.100 A 
ATOM      8  O   UNL d   1     -43.103  11.946  22.017  0.00  0.00    -0.267 OA
ENDROOT
BRANCH   3   9
ATOM      9  C   UNL d   1     -43.206  13.159  21.257  0.00  0.00     0.125 C 
BRANCH   9  10
ATOM     10  S   UNL d   1     -42.409  13.307  21.304  0.00  0.00    -0.094 SA
BRANCH  10  11
ATOM     11  C   UNL d   1     -42.035  13.728  20.702  0.00  0.00     0.035 C 
BRANCH  11  12
ATOM     12  C   UNL d   1     -41.382  14.196  20.870  0.00  0.00     0.006 A 
ATOM     13  C   UNL d   1     -41.456  15.019  20.870  0.00  0.00     0.001 A 
ATOM     14  C   UNL d   1     -40.801  15.491  21.039  0.00  0.00     0.000 A 
ATOM     15  C   UNL d   1     -40.074  15.143  21.207  0.00  0.00     0.000 A 
ATOM     16  C   UNL d   1     -39.999  14.322  21.207  0.00  0.00     0.000 A 
ATOM     17  C   UNL d   1     -40.654  13.848  21.039  0.00  0.00     0.001 A 
ENDBRANCH  11  12
ENDBRANCH  10  11
ENDBRANCH   9  10
ENDBRANCH   3   9
BRANCH   2  18
ATOM     18  C   UNL d   1     -46.664  12.985  22.788  0.00  0.00     0.064 A 
ATOM     19  C   UNL d   1     -47.068  12.357  23.137  0.00  0.00     0.018 A 
ATOM     20  C   UNL d   1     -47.847  12.458  23.391  0.00  0.00     0.002 A 
ATOM     21  C   UNL d   1     -48.221  13.187  23.295  0.00  0.00     0.000 A 
ATOM     22  C   UNL d   1     -47.817  13.814  22.945  0.00  0.00     0.002 A 
ATOM     23  C   UNL d   1     -47.039  13.714  22.692  0.00  0.00     0.018 A 
ENDBRANCH   2  18
TORSDOF 5
ENDMDL
MODEL 5
REMARK VINA RESULT:      -4.4      8.836     10.178
REMARK  5 active torsions:
REMARK  status: ('A' for Active; 'I' for Inactive)
REMARK       I    between atoms: C_3  and  N_1 
REMARK    1  A    between atoms: C_8  and  N_2 
REMARK    2  A    between atoms: C_11  and  C_3 
REMARK    3  A    between atoms: S_10  and  C_11 
REMARK    4  A    between atoms: C_13  and  S_10 
REMARK    5  A    between atoms: C_12  and  C_13 
ROOT
ATOM      1  N   UNL d   1     -39.280  14.374  18.884  0.00  0.00    -0.269 N 
ATOM      2  N   UNL d   1     -38.739  14.336  17.329  0.00  0.00    -0.301 N 
ATOM      3  C   UNL d   1     -39.549  14.395  19.673  0.00  0.00     0.259 C 
ATOM      4  C   UNL d   1     -38.510  14.604  18.714  0.00  0.00     0.102 A 
ATOM      5  C   UNL d   1     -39.781  14.125  18.278  0.00  0.00     0.102 A 
ATOM      6  C   UNL d   1     -39.513  14.106  17.503  0.00  0.00     0.100 A 
ATOM      7  C   UNL d   1     -38.238  14.585  17.935  0.00  0.00     0.100 A 
ATOM      8  O   UNL d   1     -40.321  14.168  19.862  0.00  0.00    -0.267 OA
ENDROOT
BRANCH   3   9
ATOM      9  C   UNL d   1     -39.037  14.649  20.286  0.00  0.00     0.125 C 
BRANCH   9  10
ATOM     10  S   UNL d   1     -39.097  14.311  21.022  0.00  0.00    -0.094 SA
BRANCH  10  11
ATOM     11  C   UNL d   1     -38.609  14.573  21.633  0.00  0.00     0.035 C 
BRANCH  11  12
ATOM     12  C   UNL d   1     -38.512  14.116  22.308  0.00  0.00     0.006 A 
ATOM     13  C   UNL d   1     -38.038  13.441  22.283  0.00  0.00     0.001 A 
ATOM     14  C   UNL d   1     -37.939  12.981  22.960  0.00  0.00     0.000 A 
ATOM     15  C   UNL d   1     -38.314  13.195  23.662  0.00  0.00     0.000 A 
ATOM     16  C   UNL d   1     -38.788  13.869  23.688  0.00  0.00     0.000 A 
ATOM     17  C   UNL d   1     -38.887  14.330  23.010  0.00  0.00     0.001 A 
ENDBRANCH  11  12
ENDBRANCH  10  11
ENDBRANCH   9  10
ENDBRANCH   3   9
BRANCH   2  18
ATOM     18  C   UNL d   1     -38.474  14.316  16.557  0.00  0.00     0.064 A 
ATOM     19  C   UNL d   1     -38.302  13.596  16.196  0.00  0.00     0.018 A 
ATOM     20  C   UNL d   1     -38.034  13.580  15.415  0.00  0.00     0.002 A 
ATOM     21  C   UNL d   1     -37.940  14.285  14.997  0.00  0.00     0.000 A 
ATOM     22  C   UNL d   1     -38.112  15.005  15.359  0.00  0.00     0.002 A 
ATOM     23  C   UNL d   1     -38.380  15.021  16.139  0.00  0.00     0.018 A 
ENDBRANCH   2  18
TORSDOF 5
ENDMDL
MODEL 6
REMARK VINA RESULT:      -4.1      1.806      5.414
REMARK  5 active torsions:
REMARK  status: ('A' for Active; 'I' for Inactive)
REMARK       I    between atoms: C_3  and  N_1 
REMARK    1  A    between atoms: C_8  and  N_2 
REMARK    2  A    between atoms: C_11  and  C_3 
REMARK    3  A    between atoms: S_10  and  C_11 
REMARK    4  A    between atoms: C_13  and  S_10 
REMARK    5  A    between atoms: C_12  and  C_13 
ROOT
ATOM      1  N   UNL d   1     -46.731  13.907  22.374  0.00  0.00    -0.269 N 
ATOM      2  N   UNL d   1     -45.275  13.165  22.174  0.00  0.00    -0.301 N 
ATOM      3  C   UNL d   1     -47.471  14.279  22.473  0.00  0.00     0.259 C 
ATOM      4  C   UNL d   1     -46.695  13.170  22.015  0.00  0.00     0.102 A 
ATOM      5  C   UNL d   1     -46.041  14.276  22.634  0.00  0.00     0.102 A 
ATOM      6  C   UNL d   1     -45.314  13.906  22.535  0.00  0.00     0.100 A 
ATOM      7  C   UNL d   1     -45.966  12.797  21.914  0.00  0.00     0.100 A 
ATOM      8  O   UNL d   1     -47.526  15.021  22.832  0.00  0.00    -0.267 OA
ENDROOT
BRANCH   3   9
ATOM      9  C   UNL d   1     -48.170  13.901  22.207  0.00  0.00     0.125 C 
BRANCH   9  10
ATOM     10  S   UNL d   1     -48.885  14.108  22.533  0.00  0.00    -0.094 SA
BRANCH  10  11
ATOM     11  C   UNL d   1     -49.584  13.834  22.194  0.00  0.00     0.035 C 
BRANCH  11  12
ATOM     12  C   UNL d   1     -50.077  13.329  22.614  0.00  0.00     0.006 A 
ATOM     13  C   UNL d   1     -50.162  12.544  22.373  0.00  0.00     0.001 A 
ATOM     14  C   UNL d   1     -50.656  12.035  22.795  0.00  0.00     0.000 A 
ATOM     15  C   UNL d   1     -51.064  12.310  23.455  0.00  0.00     0.000 A 
ATOM     16  C   UNL d   1     -50.980  13.095  23.697  0.00  0.00     0.000 A 
ATOM     17  C   UNL d   1     -50.485  13.604  23.275  0.00  0.00     0.001 A 
ENDBRANCH  11  12
ENDBRANCH  10  11
ENDBRANCH   9  10
ENDBRANCH   3   9
BRANCH   2  18
ATOM     18  C   UNL d   1     -44.551  12.800  22.077  0.00  0.00     0.064 A 
ATOM     19  C   UNL d   1     -44.008  13.093  21.531  0.00  0.00     0.018 A 
ATOM     20  C   UNL d   1     -43.277  12.721  21.435  0.00  0.00     0.002 A 
ATOM     21  C   UNL d   1     -43.091  12.056  21.886  0.00  0.00     0.000 A 
ATOM     22  C   UNL d   1     -43.635  11.763  22.432  0.00  0.00     0.002 A 
ATOM     23  C   UNL d   1     -44.364  12.135  22.528  0.00  0.00     0.018 A 
ENDBRANCH   2  18
TORSDOF 5
ENDMDL
MODEL 7
REMARK VINA RESULT:      -4.0      4.206      6.855
REMARK  5 active torsions:
REMARK  status: ('A' for Active; 'I' for Inactive)
REMARK       I    between atoms: C_3  and  N_1 
REMARK    1  A    between atoms: C_8  and  N_2 
REMARK    2  A    between atoms: C_11  and  C_3 
REMARK    3  A    between atoms: S_10  and  C_11 
REMARK    4  A    between atoms: C_13  and  S_10 
REMARK    5  A    between atoms: C_12  and  C_13 
ROOT
ATOM      1  N   UNL d   1     -42.425  13.365  21.309  0.00  0.00    -0.269 N 
ATOM      2  N   UNL d   1     -41.150  14.315  20.880  0.00  0.00    -0.301 N 
ATOM      3  C   UNL d   1     -43.074  12.888  21.525  0.00  0.00     0.259 C 
ATOM      4  C   UNL d   1     -42.560  14.113  20.997  0.00  0.00     0.102 A 
ATOM      5  C   UNL d   1     -41.654  13.091  21.408  0.00  0.00     0.102 A 
ATOM      6  C   UNL d   1     -41.018  13.563  21.194  0.00  0.00     0.100 A 
ATOM      7  C   UNL d   1     -41.922  14.590  20.781  0.00  0.00     0.100 A 
ATOM      8  O   UNL d   1     -42.956  12.134  21.841  0.00  0.00    -0.267 OA
ENDROOT
BRANCH   3   9
ATOM      9  C   UNL d   1     -43.856  13.171  21.424  0.00  0.00     0.125 C 
BRANCH   9  10
ATOM     10  S   UNL d   1     -44.445  12.904  21.916  0.00  0.00    -0.094 SA
BRANCH  10  11
ATOM     11  C   UNL d   1     -45.229  13.102  21.760  0.00  0.00     0.035 C 
BRANCH  11  12
ATOM     12  C   UNL d   1     -45.785  13.094  22.365  0.00  0.00     0.006 A 
ATOM     13  C   UNL d   1     -46.188  13.786  22.562  0.00  0.00     0.001 A 
ATOM     14  C   UNL d   1     -46.747  13.779  23.169  0.00  0.00     0.000 A 
ATOM     15  C   UNL d   1     -46.902  13.082  23.579  0.00  0.00     0.000 A 
ATOM     16  C   UNL d   1     -46.499  12.389  23.383  0.00  0.00     0.000 A 
ATOM     17  C   UNL d   1     -45.940  12.396  22.775  0.00  0.00     0.001 A 
ENDBRANCH  11  12
ENDBRANCH  10  11
ENDBRANCH   9  10
ENDBRANCH   3   9
BRANCH   2  18
ATOM     18  C   UNL d   1     -40.516  14.783  20.668  0.00  0.00     0.064 A 
ATOM     19  C   UNL d   1     -40.235  15.361  21.183  0.00  0.00     0.018 A 
ATOM     20  C   UNL d   1     -39.593  15.833  20.965  0.00  0.00     0.002 A 
ATOM     21  C   UNL d   1     -39.234  15.725  20.231  0.00  0.00     0.000 A 
ATOM     22  C   UNL d   1     -39.515  15.147  19.715  0.00  0.00     0.002 A 
ATOM     23  C   UNL d   1     -40.156  14.676  19.933  0.00  0.00     0.018 A 
ENDBRANCH   2  18
TORSDOF 5
ENDMDL
MODEL 8
REMARK VINA RESULT:      -3.7      9.068     11.250
REMARK  5 active torsions:
REMARK  status: ('A' for Active; 'I' for Inactive)
REMARK       I    between atoms: C_3  and  N_1 
REMARK    1  A    between atoms: C_8  and  N_2 
REMARK    2  A    between atoms: C_11  and  C_3 
REMARK    3  A    between atoms: S_10  and  C_11 
REMARK    4  A    between atoms: C_13  and  S_10 
REMARK    5  A    between atoms: C_12  and  C_13 
ROOT
ATOM      1  N   UNL d   1     -38.371  14.937  17.013  0.00  0.00    -0.269 N 
ATOM      2  N   UNL d   1     -38.201  14.469  15.443  0.00  0.00    -0.301 N 
ATOM      3  C   UNL d   1     -38.459  15.169  17.809  0.00  0.00     0.259 C 
ATOM      4  C   UNL d   1     -38.619  14.190  16.781  0.00  0.00     0.102 A 
ATOM      5  C   UNL d   1     -38.038  15.452  16.462  0.00  0.00     0.102 A 
ATOM      6  C   UNL d   1     -37.952  15.220  15.679  0.00  0.00     0.100 A 
ATOM      7  C   UNL d   1     -38.535  13.954  15.994  0.00  0.00     0.100 A 
ATOM      8  O   UNL d   1     -38.215  15.918  18.060  0.00  0.00    -0.267 OA
ENDROOT
BRANCH   3   9
ATOM      9  C   UNL d   1     -38.799  14.643  18.366  0.00  0.00     0.125 C 
BRANCH   9  10
ATOM     10  S   UNL d   1     -39.157  14.941  19.031  0.00  0.00    -0.094 SA
BRANCH  10  11
ATOM     11  C   UNL d   1     -39.468  14.425  19.593  0.00  0.00     0.035 C 
BRANCH  11  12
ATOM     12  C   UNL d   1     -39.729  14.713  20.317  0.00  0.00     0.006 A 
ATOM     13  C   UNL d   1     -40.435  15.138  20.360  0.00  0.00     0.001 A 
ATOM     14  C   UNL d   1     -40.698  15.427  21.086  0.00  0.00     0.000 A 
ATOM     15  C   UNL d   1     -40.256  15.293  21.769  0.00  0.00     0.000 A 
ATOM     16  C   UNL d   1     -39.550  14.868  21.726  0.00  0.00     0.000 A 
ATOM     17  C   UNL d   1     -39.286  14.578  21.000  0.00  0.00     0.001 A 
ENDBRANCH  11  12
ENDBRANCH  10  11
ENDBRANCH   9  10
ENDBRANCH   3   9
BRANCH   2  18
ATOM     18  C   UNL d   1     -38.115  14.241  14.664  0.00  0.00     0.064 A 
ATOM     19  C   UNL d   1     -38.047  14.807  14.070  0.00  0.00     0.018 A 
ATOM     20  C   UNL d   1     -37.960  14.572  13.283  0.00  0.00     0.002 A 
ATOM     21  C   UNL d   1     -37.942  13.769  13.093  0.00  0.00     0.000 A 
ATOM     22  C   UNL d   1     -38.011  13.203  13.688  0.00  0.00     0.002 A 
ATOM     23  C   UNL d   1     -38.097  13.438  14.473  0.00  0.00     0.018 A 
ENDBRANCH   2  18
TORSDOF 5
ENDMDL
