MODEL 1
REMARK VINA RESULT:      -5.1      0.000      0.000
REMARK  6 active torsions:
REMARK  status: ('A' for Active; 'I' for Inactive)
REMARK    1  A    between atoms: C_3  and  S_1 
REMARK    2  A    between atoms: N_12  and  S_1 
REMARK    3  A    between atoms: C_6  and  C_16 
REMARK    4  A    between atoms: C_17  and  N_12 
REMARK    5  A    between atoms: O_18  and  C_13 
REMARK    6  A    between atoms: C_16  and  C_17 
ROOT
ATOM      1  S   UNL d   1      57.378   0.103  31.202  0.00  0.00     0.285 S 
ATOM      2  O   UNL d   1      56.732   0.118  30.679  0.00  0.00    -0.198 OA
ATOM      3  O   UNL d   1      58.021   0.088  31.724  0.00  0.00    -0.198 OA
ENDROOT
BRANCH   1   4
ATOM      4  C   UNL d   1      56.861   0.015  31.835  0.00  0.00     0.105 A 
ATOM      5  C   UNL d   1      56.625  -0.735  32.073  0.00  0.00     0.015 A 
ATOM      6  C   UNL d   1      56.102  -0.815  32.714  0.00  0.00     0.023 A 
ATOM      7  C   UNL d   1      55.862  -1.571  32.956  0.00  0.00     0.002 C 
ATOM      8  C   UNL d   1      55.825  -0.156  33.103  0.00  0.00     0.094 A 
ATOM      9  C   UNL d   1      56.064   0.597  32.863  0.00  0.00     0.025 A 
ATOM     10  C   UNL d   1      56.579   0.682  32.232  0.00  0.00     0.015 A 
BRANCH   8  11
ATOM     11  O   UNL d   1      55.308  -0.238  33.737  0.00  0.00    -0.328 OA
ATOM     12  C   UNL d   1      55.116   0.412  34.200  0.00  0.00     0.181 C 
ENDBRANCH   8  11
ENDBRANCH   1   4
BRANCH   1  13
ATOM     13  N   UNL d   1      57.891   0.191  30.561  0.00  0.00    -0.157 NA
BRANCH  13  14
ATOM     14  C   UNL d   1      58.267  -0.488  30.239  0.00  0.00     0.114 C 
BRANCH  14  15
ATOM     15  C   UNL d   1      58.666  -0.430  29.525  0.00  0.00     0.041 C 
BRANCH  15  16
ATOM     16  C   UNL d   1      59.097  -1.071  29.231  0.00  0.00     0.090 A 
ATOM     17  N   UNL d   1      58.781  -1.814  29.045  0.00  0.00    -0.238 NA
ATOM     18  C   UNL d   1      59.404  -2.286  28.771  0.00  0.00     0.111 A 
ATOM     19  C   UNL d   1      59.348  -3.078  28.519  0.00  0.00     0.028 C 
ATOM     20  S   UNL d   1      60.098  -1.839  28.787  0.00  0.00    -0.066 SA
ATOM     21  C   UNL d   1      59.906  -1.084  29.073  0.00  0.00     0.056 A 
ENDBRANCH  15  16
ENDBRANCH  14  15
ENDBRANCH  13  14
ENDBRANCH   1  13
TORSDOF 6
ENDMDL
MODEL 2
REMARK VINA RESULT:      -3.9      1.640      5.063
REMARK  6 active torsions:
REMARK  status: ('A' for Active; 'I' for Inactive)
REMARK    1  A    between atoms: C_3  and  S_1 
REMARK    2  A    between atoms: N_12  and  S_1 
REMARK    3  A    between atoms: C_6  and  C_16 
REMARK    4  A    between atoms: C_17  and  N_12 
REMARK    5  A    between atoms: O_18  and  C_13 
REMARK    6  A    between atoms: C_16  and  C_17 
ROOT
ATOM      1  S   UNL d   1      58.309   0.206  30.104  0.00  0.00     0.285 S 
ATOM      2  O   UNL d   1      58.853   0.471  30.675  0.00  0.00    -0.198 OA
ATOM      3  O   UNL d   1      57.769  -0.059  29.535  0.00  0.00    -0.198 OA
ENDROOT
BRANCH   1   4
ATOM      4  C   UNL d   1      58.922  -0.157  29.692  0.00  0.00     0.105 A 
ATOM      5  C   UNL d   1      59.606   0.263  29.518  0.00  0.00     0.015 A 
ATOM      6  C   UNL d   1      60.221  -0.111  29.101  0.00  0.00     0.023 A 
ATOM      7  C   UNL d   1      60.912   0.311  28.925  0.00  0.00     0.002 C 
ATOM      8  C   UNL d   1      60.145  -0.887  28.868  0.00  0.00     0.094 A 
ATOM      9  C   UNL d   1      59.457  -1.307  29.043  0.00  0.00     0.025 A 
ATOM     10  C   UNL d   1      58.848  -0.944  29.453  0.00  0.00     0.015 A 
BRANCH   8  11
ATOM     11  O   UNL d   1      60.754  -1.255  28.455  0.00  0.00    -0.328 OA
ATOM     12  C   UNL d   1      60.866  -2.065  28.520  0.00  0.00     0.181 C 
ENDBRANCH   8  11
ENDBRANCH   1   4
BRANCH   1  13
ATOM     13  N   UNL d   1      57.700   0.573  30.523  0.00  0.00    -0.157 NA
BRANCH  13  14
ATOM     14  C   UNL d   1      57.360   0.179  31.182  0.00  0.00     0.114 C 
BRANCH  14  15
ATOM     15  C   UNL d   1      56.819   0.573  31.656  0.00  0.00     0.041 C 
BRANCH  15  16
ATOM     16  C   UNL d   1      56.386   0.165  32.230  0.00  0.00     0.090 A 
ATOM     17  N   UNL d   1      55.887   0.514  32.790  0.00  0.00    -0.238 NA
ATOM     18  C   UNL d   1      55.569  -0.095  33.252  0.00  0.00     0.111 A 
ATOM     19  C   UNL d   1      55.036  -0.004  33.886  0.00  0.00     0.028 C 
ATOM     20  S   UNL d   1      55.867  -0.814  32.980  0.00  0.00    -0.066 SA
ATOM     21  C   UNL d   1      56.376  -0.652  32.344  0.00  0.00     0.056 A 
ENDBRANCH  15  16
ENDBRANCH  14  15
ENDBRANCH  13  14
ENDBRANCH   1  13
TORSDOF 6
ENDMDL
MODEL 3
REMARK VINA RESULT:      -3.8      1.548      4.951
REMARK  6 active torsions:
REMARK  status: ('A' for Active; 'I' for Inactive)
REMARK    1  A    between atoms: C_3  and  S_1 
REMARK    2  A    between atoms: N_12  and  S_1 
REMARK    3  A    between atoms: C_6  and  C_16 
REMARK    4  A    between atoms: C_17  and  N_12 
REMARK    5  A    between atoms: O_18  and  C_13 
REMARK    6  A    between atoms: C_16  and  C_17 
ROOT
ATOM      1  S   UNL d   1      58.171   0.071  30.203  0.00  0.00     0.285 S 
ATOM      2  O   UNL d   1      58.802   0.423  30.616  0.00  0.00    -0.198 OA
ATOM      3  O   UNL d   1      57.544  -0.280  29.791  0.00  0.00    -0.198 OA
ENDROOT
BRANCH   1   4
ATOM      4  C   UNL d   1      58.708  -0.374  29.767  0.00  0.00     0.105 A 
ATOM      5  C   UNL d   1      58.581  -1.178  29.655  0.00  0.00     0.015 A 
ATOM      6  C   UNL d   1      59.128  -1.621  29.212  0.00  0.00     0.023 A 
ATOM      7  C   UNL d   1      59.001  -2.432  29.098  0.00  0.00     0.002 C 
ATOM      8  C   UNL d   1      59.784  -1.261  28.893  0.00  0.00     0.094 A 
ATOM      9  C   UNL d   1      59.910  -0.454  29.007  0.00  0.00     0.025 A 
ATOM     10  C   UNL d   1      59.375  -0.012  29.441  0.00  0.00     0.015 A 
BRANCH   8  11
ATOM     11  O   UNL d   1      60.324  -1.702  28.456  0.00  0.00    -0.328 OA
ATOM     12  C   UNL d   1      61.130  -1.613  28.584  0.00  0.00     0.181 C 
ENDBRANCH   8  11
ENDBRANCH   1   4
BRANCH   1  13
ATOM     13  N   UNL d   1      57.639   0.522  30.645  0.00  0.00    -0.157 NA
BRANCH  13  14
ATOM     14  C   UNL d   1      57.215   0.158  31.272  0.00  0.00     0.114 C 
BRANCH  14  15
ATOM     15  C   UNL d   1      56.811   0.624  31.813  0.00  0.00     0.041 C 
BRANCH  15  16
ATOM     16  C   UNL d   1      56.312   0.280  32.375  0.00  0.00     0.090 A 
ATOM     17  N   UNL d   1      55.734   0.682  32.809  0.00  0.00    -0.238 NA
ATOM     18  C   UNL d   1      55.367   0.128  33.304  0.00  0.00     0.111 A 
ATOM     19  C   UNL d   1      54.750   0.282  33.842  0.00  0.00     0.028 C 
ATOM     20  S   UNL d   1      55.715  -0.609  33.177  0.00  0.00    -0.066 SA
ATOM     21  C   UNL d   1      56.303  -0.513  32.598  0.00  0.00     0.056 A 
ENDBRANCH  15  16
ENDBRANCH  14  15
ENDBRANCH  13  14
ENDBRANCH   1  13
TORSDOF 6
ENDMDL
MODEL 4
REMARK VINA RESULT:      -3.1      1.635      4.990
REMARK  6 active torsions:
REMARK  status: ('A' for Active; 'I' for Inactive)
REMARK    1  A    between atoms: C_3  and  S_1 
REMARK    2  A    between atoms: N_12  and  S_1 
REMARK    3  A    between atoms: C_6  and  C_16 
REMARK    4  A    between atoms: C_17  and  N_12 
REMARK    5  A    between atoms: O_18  and  C_13 
REMARK    6  A    between atoms: C_16  and  C_17 
ROOT
ATOM      1  S   UNL d   1      57.429  -0.298  30.872  0.00  0.00     0.285 S 
ATOM      2  O   UNL d   1      57.393  -1.105  30.675  0.00  0.00    -0.198 OA
ATOM      3  O   UNL d   1      57.467   0.506  31.067  0.00  0.00    -0.198 OA
ENDROOT
BRANCH   1   4
ATOM      4  C   UNL d   1      58.125  -0.226  30.438  0.00  0.00     0.105 A 
ATOM      5  C   UNL d   1      58.359  -0.829  29.933  0.00  0.00     0.015 A 
ATOM      6  C   UNL d   1      59.063  -0.749  29.499  0.00  0.00     0.023 A 
ATOM      7  C   UNL d   1      59.302  -1.357  28.988  0.00  0.00     0.002 C 
ATOM      8  C   UNL d   1      59.517  -0.077  29.574  0.00  0.00     0.094 A 
ATOM      9  C   UNL d   1      59.280   0.528  30.082  0.00  0.00     0.025 A 
ATOM     10  C   UNL d   1      58.587   0.454  30.512  0.00  0.00     0.015 A 
BRANCH   8  11
ATOM     11  O   UNL d   1      60.213  -0.000  29.143  0.00  0.00    -0.328 OA
ATOM     12  C   UNL d   1      60.667   0.681  29.208  0.00  0.00     0.181 C 
ENDBRANCH   8  11
ENDBRANCH   1   4
BRANCH   1  13
ATOM     13  N   UNL d   1      56.731  -0.379  31.304  0.00  0.00    -0.157 NA
BRANCH  13  14
ATOM     14  C   UNL d   1      56.750  -0.279  32.138  0.00  0.00     0.114 C 
BRANCH  14  15
ATOM     15  C   UNL d   1      56.125  -0.549  32.594  0.00  0.00     0.041 C 
BRANCH  15  16
ATOM     16  C   UNL d   1      55.916  -0.162  33.293  0.00  0.00     0.090 A 
ATOM     17  N   UNL d   1      55.147  -0.101  33.594  0.00  0.00    -0.238 NA
ATOM     18  C   UNL d   1      55.191   0.330  34.300  0.00  0.00     0.111 A 
ATOM     19  C   UNL d   1      54.552   0.528  34.796  0.00  0.00     0.028 C 
ATOM     20  S   UNL d   1      55.979   0.533  34.435  0.00  0.00    -0.066 SA
ATOM     21  C   UNL d   1      56.429   0.227  33.808  0.00  0.00     0.056 A 
ENDBRANCH  15  16
ENDBRANCH  14  15
ENDBRANCH  13  14
ENDBRANCH   1  13
TORSDOF 6
ENDMDL
