MODEL 1
REMARK VINA RESULT:      83.9      0.000      0.000
REMARK  3 active torsions:
REMARK  status: ('A' for Active; 'I' for Inactive)
REMARK    1  A    between atoms: C_8  and  C_6 
REMARK    2  A    between atoms: C_9  and  C_8 
REMARK       I    between atoms: N_10  and  C_9 
REMARK    3  A    between atoms: C_14  and  N_10 
ROOT
ATOM      1  C   UNL d   1      61.125  47.683  50.821  0.00  0.00     0.085 A 
ATOM      2  C   UNL d   1      61.633  46.479  49.820  0.00  0.00     0.094 A 
ATOM      3  C   UNL d   1      61.735  47.823  50.287  0.00  0.00     0.021 A 
ATOM      4  C   UNL d   1      60.767  46.944  50.857  0.00  0.00     0.021 A 
ATOM      5  C   UNL d   1      61.017  46.339  50.359  0.00  0.00     0.026 A 
ATOM      6  C   UNL d   1      61.989  47.221  49.786  0.00  0.00     0.026 A 
ATOM      7  O   UNL d   1      61.882  45.887  49.328  0.00  0.00    -0.328 OA
ATOM      8  C   UNL d   1      62.134  45.286  48.830  0.00  0.00     0.181 C 
ENDROOT
BRANCH   1   9
ATOM      9  N   UNL d   1      60.868  48.285  51.325  0.00  0.00    -0.208 NA
ATOM     10  C   UNL d   1      60.320  48.844  51.058  0.00  0.00     0.281 C 
ATOM     11  O   UNL d   1      60.067  49.444  51.566  0.00  0.00    -0.265 OA
BRANCH  10  12
ATOM     12  C   UNL d   1      60.027  48.799  50.280  0.00  0.00     0.086 C 
BRANCH  12  13
ATOM     13  C   UNL d   1      59.235  48.978  50.137  0.00  0.00     0.144 A 
ATOM     14  N   UNL d   1      58.804  49.114  50.822  0.00  0.00    -0.240 NA
ATOM     15  C   UNL d   1      58.009  49.304  50.889  0.00  0.00     0.083 A 
ATOM     16  C   UNL d   1      57.444  49.407  50.293  0.00  0.00     0.035 A 
ATOM     17  C   UNL d   1      57.793  49.394  51.680  0.00  0.00     0.019 A 
ATOM     18  C   UNL d   1      57.663  49.315  49.494  0.00  0.00     0.086 A 
ATOM     19  C   UNL d   1      56.662  49.599  50.479  0.00  0.00     0.003 A 
ATOM     20  N   UNL d   1      58.407  49.125  49.194  0.00  0.00    -0.207 NA
ATOM     21  C   UNL d   1      57.101  49.417  48.897  0.00  0.00     0.019 A 
ATOM     22  C   UNL d   1      59.104  48.981  49.585  0.00  0.00     0.297 A 
ATOM     23  O   UNL d   1      59.748  48.806  49.105  0.00  0.00    -0.264 OA
ATOM     24  C   UNL d   1      56.321  49.610  49.091  0.00  0.00     0.002 A 
ATOM     25  C   UNL d   1      56.104  49.700  49.882  0.00  0.00     0.000 A 
ATOM     26  C   UNL d   1      56.443  49.691  51.279  0.00  0.00     0.000 A 
ATOM     27  C   UNL d   1      57.002  49.590  51.877  0.00  0.00     0.002 A 
ENDBRANCH  12  13
ENDBRANCH  10  12
ENDBRANCH   1   9
TORSDOF 3
ENDMDL
MODEL 2
REMARK VINA RESULT:      86.3      1.227      4.614
REMARK  3 active torsions:
REMARK  status: ('A' for Active; 'I' for Inactive)
REMARK    1  A    between atoms: C_8  and  C_6 
REMARK    2  A    between atoms: C_9  and  C_8 
REMARK       I    between atoms: N_10  and  C_9 
REMARK    3  A    between atoms: C_14  and  N_10 
ROOT
ATOM      1  C   UNL d   1      59.120  49.707  51.309  0.00  0.00     0.085 A 
ATOM      2  C   UNL d   1      57.618  49.707  50.636  0.00  0.00     0.094 A 
ATOM      3  C   UNL d   1      59.037  49.707  50.490  0.00  0.00     0.021 A 
ATOM      4  C   UNL d   1      58.457  49.707  51.793  0.00  0.00     0.021 A 
ATOM      5  C   UNL d   1      57.704  49.707  51.463  0.00  0.00     0.026 A 
ATOM      6  C   UNL d   1      58.286  49.707  50.154  0.00  0.00     0.026 A 
ATOM      7  O   UNL d   1      56.879  49.707  50.307  0.00  0.00    -0.328 OA
ATOM      8  C   UNL d   1      56.130  49.707  49.974  0.00  0.00     0.181 C 
ENDROOT
BRANCH   1   9
ATOM      9  N   UNL d   1      59.874  49.707  51.648  0.00  0.00    -0.208 NA
ATOM     10  C   UNL d   1      60.504  49.336  51.261  0.00  0.00     0.281 C 
ATOM     11  O   UNL d   1      61.254  49.340  51.606  0.00  0.00    -0.265 OA
BRANCH  10  12
ATOM     12  C   UNL d   1      60.379  48.963  50.528  0.00  0.00     0.086 C 
BRANCH  12  13
ATOM     13  C   UNL d   1      60.814  48.290  50.338  0.00  0.00     0.144 A 
ATOM     14  N   UNL d   1      60.524  47.606  50.688  0.00  0.00    -0.240 NA
ATOM     15  C   UNL d   1      60.815  46.843  50.623  0.00  0.00     0.083 A 
ATOM     16  C   UNL d   1      61.468  46.567  50.195  0.00  0.00     0.035 A 
ATOM     17  C   UNL d   1      60.360  46.314  51.063  0.00  0.00     0.019 A 
ATOM     18  C   UNL d   1      61.927  47.101  49.749  0.00  0.00     0.086 A 
ATOM     19  C   UNL d   1      61.671  45.766  50.202  0.00  0.00     0.003 A 
ATOM     20  N   UNL d   1      61.819  47.914  49.670  0.00  0.00    -0.207 NA
ATOM     21  C   UNL d   1      62.579  46.828  49.321  0.00  0.00     0.019 A 
ATOM     22  C   UNL d   1      61.252  48.398  49.994  0.00  0.00     0.297 A 
ATOM     23  O   UNL d   1      61.310  49.193  49.794  0.00  0.00    -0.264 OA
ATOM     24  C   UNL d   1      62.777  46.026  49.333  0.00  0.00     0.002 A 
ATOM     25  C   UNL d   1      62.322  45.497  49.773  0.00  0.00     0.000 A 
ATOM     26  C   UNL d   1      61.211  45.231  50.647  0.00  0.00     0.000 A 
ATOM     27  C   UNL d   1      60.560  45.500  51.076  0.00  0.00     0.002 A 
ENDBRANCH  12  13
ENDBRANCH  10  12
ENDBRANCH   1   9
TORSDOF 3
ENDMDL
