MODEL 1
REMARK VINA RESULT:      -5.9      0.000      0.000
REMARK  5 active torsions:
REMARK  status: ('A' for Active; 'I' for Inactive)
REMARK    1  A    between atoms: C_6  and  N_1 
REMARK    2  A    between atoms: O_9  and  C_6 
REMARK    3  A    between atoms: C_8  and  O_9 
REMARK    4  A    between atoms: C_12  and  C_8 
REMARK    5  A    between atoms: C_14  and  C_12 
ROOT
ATOM      1  N   UNL d   1      57.244  -0.739  31.209  0.00  0.00    -0.150 N 
ATOM      2  N   UNL d   1      56.990  -1.490  31.436  0.00  0.00    -0.055 NA
ATOM      3  C   UNL d   1      56.982  -0.063  31.611  0.00  0.00     0.285 A 
ATOM      4  N   UNL d   1      56.471  -1.573  32.066  0.00  0.00    -0.130 NA
ATOM      5  C   UNL d   1      56.460  -0.162  32.243  0.00  0.00     0.077 A 
ATOM      6  C   UNL d   1      56.205  -0.914  32.469  0.00  0.00     0.109 A 
ATOM      7  O   UNL d   1      57.234   0.682  31.387  0.00  0.00    -0.265 OA
ATOM      8  C   UNL d   1      56.193   0.504  32.648  0.00  0.00     0.006 A 
ATOM      9  C   UNL d   1      55.686  -0.995  33.100  0.00  0.00     0.021 A 
ATOM     10  C   UNL d   1      55.674   0.421  33.279  0.00  0.00     0.000 A 
ATOM     11  C   UNL d   1      55.418  -0.335  33.506  0.00  0.00     0.002 A 
ENDROOT
BRANCH   1  12
ATOM     12  C   UNL d   1      57.768  -0.654  30.574  0.00  0.00     0.233 C 
BRANCH  12  13
ATOM     13  O   UNL d   1      58.069  -1.322  30.197  0.00  0.00    -0.251 OA
BRANCH  13  14
ATOM     14  C   UNL d   1      58.627  -1.236  29.598  0.00  0.00     0.302 C 
ATOM     15  O   UNL d   1      59.207  -0.652  29.652  0.00  0.00    -0.259 OA
BRANCH  14  16
ATOM     16  C   UNL d   1      58.604  -1.736  28.943  0.00  0.00     0.069 C 
BRANCH  16  17
ATOM     17  C   UNL d   1      59.150  -2.268  28.854  0.00  0.00     0.005 A 
ATOM     18  C   UNL d   1      59.926  -2.054  28.672  0.00  0.00     0.000 A 
ATOM     19  C   UNL d   1      60.517  -2.629  28.575  0.00  0.00     0.000 A 
ATOM     20  C   UNL d   1      60.324  -3.435  28.663  0.00  0.00     0.000 A 
ATOM     21  C   UNL d   1      59.547  -3.658  28.845  0.00  0.00     0.000 A 
ATOM     22  C   UNL d   1      58.951  -3.080  28.943  0.00  0.00     0.000 A 
ENDBRANCH  16  17
ENDBRANCH  14  16
ENDBRANCH  13  14
ENDBRANCH  12  13
ENDBRANCH   1  12
TORSDOF 5
ENDMDL
MODEL 2
REMARK VINA RESULT:      -5.5      0.964      5.002
REMARK  5 active torsions:
REMARK  status: ('A' for Active; 'I' for Inactive)
REMARK    1  A    between atoms: C_6  and  N_1 
REMARK    2  A    between atoms: O_9  and  C_6 
REMARK    3  A    between atoms: C_8  and  O_9 
REMARK    4  A    between atoms: C_12  and  C_8 
REMARK    5  A    between atoms: C_14  and  C_12 
ROOT
ATOM      1  N   UNL d   1      58.411  -1.063  29.907  0.00  0.00    -0.150 N 
ATOM      2  N   UNL d   1      58.086  -1.822  29.905  0.00  0.00    -0.055 NA
ATOM      3  C   UNL d   1      59.142  -0.913  29.546  0.00  0.00     0.285 A 
ATOM      4  N   UNL d   1      58.489  -2.437  29.541  0.00  0.00    -0.130 NA
ATOM      5  C   UNL d   1      59.535  -1.543  29.184  0.00  0.00     0.077 A 
ATOM      6  C   UNL d   1      59.210  -2.301  29.182  0.00  0.00     0.109 A 
ATOM      7  O   UNL d   1      59.463  -0.162  29.548  0.00  0.00    -0.265 OA
ATOM      8  C   UNL d   1      60.262  -1.404  28.822  0.00  0.00     0.006 A 
ATOM      9  C   UNL d   1      59.614  -2.917  28.817  0.00  0.00     0.021 A 
ATOM     10  C   UNL d   1      60.664  -2.020  28.458  0.00  0.00     0.000 A 
ATOM     11  C   UNL d   1      60.338  -2.782  28.456  0.00  0.00     0.002 A 
ENDROOT
BRANCH   1  12
ATOM     12  C   UNL d   1      58.006  -0.442  30.274  0.00  0.00     0.233 C 
BRANCH  12  13
ATOM     13  O   UNL d   1      57.615  -0.569  30.988  0.00  0.00    -0.251 OA
BRANCH  13  14
ATOM     14  C   UNL d   1      57.226   0.054  31.359  0.00  0.00     0.302 C 
ATOM     15  O   UNL d   1      56.823   0.616  30.909  0.00  0.00    -0.259 OA
BRANCH  14  16
ATOM     16  C   UNL d   1      57.242   0.116  32.180  0.00  0.00     0.069 C 
BRANCH  16  17
ATOM     17  C   UNL d   1      56.596   0.008  32.580  0.00  0.00     0.005 A 
ATOM     18  C   UNL d   1      56.275  -0.746  32.675  0.00  0.00     0.000 A 
ATOM     19  C   UNL d   1      55.576  -0.864  33.107  0.00  0.00     0.000 A 
ATOM     20  C   UNL d   1      55.191  -0.210  33.451  0.00  0.00     0.000 A 
ATOM     21  C   UNL d   1      55.506   0.551  33.361  0.00  0.00     0.000 A 
ATOM     22  C   UNL d   1      56.211   0.671  32.925  0.00  0.00     0.000 A 
ENDBRANCH  16  17
ENDBRANCH  14  16
ENDBRANCH  13  14
ENDBRANCH  12  13
ENDBRANCH   1  12
TORSDOF 5
ENDMDL
MODEL 3
REMARK VINA RESULT:      -4.7      1.285      5.278
REMARK  5 active torsions:
REMARK  status: ('A' for Active; 'I' for Inactive)
REMARK    1  A    between atoms: C_6  and  N_1 
REMARK    2  A    between atoms: O_9  and  C_6 
REMARK    3  A    between atoms: C_8  and  O_9 
REMARK    4  A    between atoms: C_12  and  C_8 
REMARK    5  A    between atoms: C_14  and  C_12 
ROOT
ATOM      1  N   UNL d   1      57.752  -0.486  30.675  0.00  0.00    -0.150 N 
ATOM      2  N   UNL d   1      57.998   0.300  30.636  0.00  0.00    -0.055 NA
ATOM      3  C   UNL d   1      58.064  -1.055  30.159  0.00  0.00     0.285 A 
ATOM      4  N   UNL d   1      58.559   0.525  30.081  0.00  0.00    -0.130 NA
ATOM      5  C   UNL d   1      58.628  -0.813  29.606  0.00  0.00     0.077 A 
ATOM      6  C   UNL d   1      58.874  -0.027  29.567  0.00  0.00     0.109 A 
ATOM      7  O   UNL d   1      57.820  -1.834  30.197  0.00  0.00    -0.265 OA
ATOM      8  C   UNL d   1      58.944  -1.371  29.089  0.00  0.00     0.006 A 
ATOM      9  C   UNL d   1      59.435   0.198  29.011  0.00  0.00     0.021 A 
ATOM     10  C   UNL d   1      59.506  -1.145  28.534  0.00  0.00     0.000 A 
ATOM     11  C   UNL d   1      59.753  -0.355  28.495  0.00  0.00     0.002 A 
ENDROOT
BRANCH   1  12
ATOM     12  C   UNL d   1      57.186  -0.715  31.234  0.00  0.00     0.233 C 
BRANCH  12  13
ATOM     13  O   UNL d   1      57.063  -0.255  31.906  0.00  0.00    -0.251 OA
BRANCH  13  14
ATOM     14  C   UNL d   1      56.431  -0.423  32.407  0.00  0.00     0.302 C 
ATOM     15  O   UNL d   1      56.358  -1.173  32.743  0.00  0.00    -0.259 OA
BRANCH  14  16
ATOM     16  C   UNL d   1      55.872   0.159  32.570  0.00  0.00     0.069 C 
BRANCH  16  17
ATOM     17  C   UNL d   1      55.691   0.316  33.299  0.00  0.00     0.005 A 
ATOM     18  C   UNL d   1      56.274   0.511  33.850  0.00  0.00     0.000 A 
ATOM     19  C   UNL d   1      56.078   0.680  34.639  0.00  0.00     0.000 A 
ATOM     20  C   UNL d   1      55.282   0.653  34.880  0.00  0.00     0.000 A 
ATOM     21  C   UNL d   1      54.690   0.457  34.333  0.00  0.00     0.000 A 
ATOM     22  C   UNL d   1      54.885   0.286  33.538  0.00  0.00     0.000 A 
ENDBRANCH  16  17
ENDBRANCH  14  16
ENDBRANCH  13  14
ENDBRANCH  12  13
ENDBRANCH   1  12
TORSDOF 5
ENDMDL
MODEL 4
REMARK VINA RESULT:      -4.2      1.511      2.202
REMARK  5 active torsions:
REMARK  status: ('A' for Active; 'I' for Inactive)
REMARK    1  A    between atoms: C_6  and  N_1 
REMARK    2  A    between atoms: O_9  and  C_6 
REMARK    3  A    between atoms: C_8  and  O_9 
REMARK    4  A    between atoms: C_12  and  C_8 
REMARK    5  A    between atoms: C_14  and  C_12 
ROOT
ATOM      1  N   UNL d   1      56.867  -0.188  32.333  0.00  0.00    -0.150 N 
ATOM      2  N   UNL d   1      57.411   0.236  32.786  0.00  0.00    -0.055 NA
ATOM      3  C   UNL d   1      56.098  -0.326  32.611  0.00  0.00     0.285 A 
ATOM      4  N   UNL d   1      57.192   0.524  33.522  0.00  0.00    -0.130 NA
ATOM      5  C   UNL d   1      55.893  -0.030  33.354  0.00  0.00     0.077 A 
ATOM      6  C   UNL d   1      56.437   0.393  33.807  0.00  0.00     0.109 A 
ATOM      7  O   UNL d   1      55.560  -0.745  32.162  0.00  0.00    -0.265 OA
ATOM      8  C   UNL d   1      55.132  -0.163  33.639  0.00  0.00     0.006 A 
ATOM      9  C   UNL d   1      56.217   0.682  34.544  0.00  0.00     0.021 A 
ATOM     10  C   UNL d   1      54.913   0.126  34.376  0.00  0.00     0.000 A 
ATOM     11  C   UNL d   1      55.459   0.551  34.832  0.00  0.00     0.002 A 
ENDROOT
BRANCH   1  12
ATOM     12  C   UNL d   1      57.087  -0.479  31.590  0.00  0.00     0.233 C 
BRANCH  12  13
ATOM     13  O   UNL d   1      57.773  -0.204  31.226  0.00  0.00    -0.251 OA
BRANCH  13  14
ATOM     14  C   UNL d   1      57.958  -0.450  30.463  0.00  0.00     0.302 C 
ATOM     15  O   UNL d   1      57.867  -1.242  30.249  0.00  0.00    -0.259 OA
BRANCH  14  16
ATOM     16  C   UNL d   1      58.235   0.097  29.912  0.00  0.00     0.069 C 
BRANCH  16  17
ATOM     17  C   UNL d   1      58.937   0.012  29.615  0.00  0.00     0.005 A 
ATOM     18  C   UNL d   1      59.071  -0.499  28.981  0.00  0.00     0.000 A 
ATOM     19  C   UNL d   1      59.831  -0.591  28.659  0.00  0.00     0.000 A 
ATOM     20  C   UNL d   1      60.468  -0.161  28.979  0.00  0.00     0.000 A 
ATOM     21  C   UNL d   1      60.342   0.355  29.616  0.00  0.00     0.000 A 
ATOM     22  C   UNL d   1      59.576   0.449  29.941  0.00  0.00     0.000 A 
ENDBRANCH  16  17
ENDBRANCH  14  16
ENDBRANCH  13  14
ENDBRANCH  12  13
ENDBRANCH   1  12
TORSDOF 5
ENDMDL
