MODEL 1
REMARK VINA RESULT:      22.0      0.000      0.000
REMARK  5 active torsions:
REMARK  status: ('A' for Active; 'I' for Inactive)
REMARK    1  A    between atoms: C_2  and  S_1 
REMARK    2  A    between atoms: C_3  and  S_1 
REMARK    3  A    between atoms: C_5  and  C_3 
REMARK    4  A    between atoms: O_13  and  C_8 
REMARK    5  A    between atoms: O_14  and  C_10 
ROOT
ATOM      1  C   UNL d   1      59.448  49.574  50.592  0.00  0.00     0.048 A 
ATOM      2  C   UNL d   1      60.151  49.360  50.227  0.00  0.00     0.030 A 
ATOM      3  C   UNL d   1      60.839  49.276  50.681  0.00  0.00     0.116 A 
ATOM      4  C   UNL d   1      60.818  49.407  51.495  0.00  0.00     0.116 A 
ATOM      5  C   UNL d   1      59.418  49.707  51.406  0.00  0.00     0.006 A 
ATOM      6  C   UNL d   1      60.101  49.624  51.856  0.00  0.00     0.026 A 
ENDROOT
BRANCH   1   7
ATOM      7  C   UNL d   1      58.761  49.658  50.138  0.00  0.00     0.227 C 
ATOM      8  O   UNL d   1      58.817  49.701  49.316  0.00  0.00    -0.279 OA
BRANCH   7   9
ATOM      9  S   UNL d   1      58.026  49.698  50.510  0.00  0.00    -0.020 SA
BRANCH   9  10
ATOM     10  C   UNL d   1      57.338  49.640  50.061  0.00  0.00     0.143 A 
ATOM     11  N   UNL d   1      57.305  49.584  49.232  0.00  0.00    -0.230 NA
ATOM     12  C   UNL d   1      56.506  49.537  49.020  0.00  0.00     0.107 A 
ATOM     13  C   UNL d   1      56.052  49.564  49.705  0.00  0.00     0.058 A 
ATOM     14  S   UNL d   1      56.567  49.627  50.341  0.00  0.00    -0.059 SA
ENDBRANCH   9  10
ENDBRANCH   7   9
ENDBRANCH   1   7
BRANCH   3  15
ATOM     15  O   UNL d   1      61.531  49.061  50.291  0.00  0.00    -0.326 OA
ATOM     16  C   UNL d   1      61.695  48.261  50.162  0.00  0.00     0.181 C 
ENDBRANCH   3  15
BRANCH   4  17
ATOM     17  O   UNL d   1      61.497  49.324  51.945  0.00  0.00    -0.326 OA
ATOM     18  C   UNL d   1      61.559  49.700  52.676  0.00  0.00     0.181 C 
ENDBRANCH   4  17
TORSDOF 5
ENDMDL
MODEL 2
REMARK VINA RESULT:      24.8      1.746      4.148
REMARK  5 active torsions:
REMARK  status: ('A' for Active; 'I' for Inactive)
REMARK    1  A    between atoms: C_2  and  S_1 
REMARK    2  A    between atoms: C_3  and  S_1 
REMARK    3  A    between atoms: C_5  and  C_3 
REMARK    4  A    between atoms: O_13  and  C_8 
REMARK    5  A    between atoms: O_14  and  C_10 
ROOT
ATOM      1  C   UNL d   1      58.784  49.700  50.142  0.00  0.00     0.048 A 
ATOM      2  C   UNL d   1      58.266  49.695  50.779  0.00  0.00     0.030 A 
ATOM      3  C   UNL d   1      57.449  49.697  50.641  0.00  0.00     0.116 A 
ATOM      4  C   UNL d   1      57.158  49.703  49.870  0.00  0.00     0.116 A 
ATOM      5  C   UNL d   1      58.501  49.706  49.367  0.00  0.00     0.006 A 
ATOM      6  C   UNL d   1      57.690  49.708  49.232  0.00  0.00     0.026 A 
ENDROOT
BRANCH   1   7
ATOM      7  C   UNL d   1      59.601  49.698  50.280  0.00  0.00     0.227 C 
ATOM      8  O   UNL d   1      60.122  49.687  49.641  0.00  0.00    -0.279 OA
BRANCH   7   9
ATOM      9  S   UNL d   1      59.886  49.708  51.054  0.00  0.00    -0.020 SA
BRANCH   9  10
ATOM     10  C   UNL d   1      60.603  49.342  51.228  0.00  0.00     0.143 A 
ATOM     11  N   UNL d   1      60.845  48.595  50.952  0.00  0.00    -0.230 NA
ATOM     12  C   UNL d   1      61.597  48.450  51.264  0.00  0.00     0.107 A 
ATOM     13  C   UNL d   1      61.819  49.094  51.725  0.00  0.00     0.058 A 
ATOM     14  S   UNL d   1      61.205  49.639  51.700  0.00  0.00    -0.059 SA
ENDBRANCH   9  10
ENDBRANCH   7   9
ENDBRANCH   1   7
BRANCH   3  15
ATOM     15  O   UNL d   1      56.951  49.692  51.296  0.00  0.00    -0.326 OA
ATOM     16  C   UNL d   1      56.136  49.605  51.189  0.00  0.00     0.181 C 
ENDBRANCH   3  15
BRANCH   4  17
ATOM     17  O   UNL d   1      56.351  49.705  49.733  0.00  0.00    -0.326 OA
ATOM     18  C   UNL d   1      56.060  49.667  48.962  0.00  0.00     0.181 C 
ENDBRANCH   4  17
TORSDOF 5
ENDMDL
