MODEL 1
REMARK VINA RESULT:      -5.2      0.000      0.000
REMARK  2 active torsions:
REMARK  status: ('A' for Active; 'I' for Inactive)
REMARK    1  A    between atoms: C_7  and  C_1 
REMARK    2  A    between atoms: C_8  and  C_7 
ROOT
ATOM      1  C   UNL d   1     -41.909-122.202 -54.273  0.00  0.00     0.033 A 
ATOM      2  C   UNL d   1     -41.844-122.216 -52.946  0.00  0.00     0.100 A 
ATOM      3  C   UNL d   1     -41.665-122.648 -53.623  0.00  0.00     0.025 A 
ATOM      4  O   UNL d   1     -42.197-121.507 -53.176  0.00  0.00    -0.305 OA
ATOM      5  C   UNL d   1     -42.235-121.503 -53.999  0.00  0.00     0.123 A 
ATOM      6  C   UNL d   1     -41.308-123.380 -53.557  0.00  0.00     0.002 A 
ATOM      7  C   UNL d   1     -41.666-122.517 -52.192  0.00  0.00     0.025 A 
ATOM      8  C   UNL d   1     -41.125-123.690 -52.812  0.00  0.00     0.000 A 
ATOM      9  C   UNL d   1     -41.305-123.256 -52.128  0.00  0.00     0.002 A 
ATOM     10  C   UNL d   1     -41.126-123.817 -54.241  0.00  0.00     0.000 C 
ATOM     11  C   UNL d   1     -41.123-123.566 -51.384  0.00  0.00     0.000 C 
ENDROOT
BRANCH   1  12
ATOM     12  C   UNL d   1     -41.834-122.429 -55.062  0.00  0.00     0.072 C 
BRANCH  12  13
ATOM     13  C   UNL d   1     -42.043-121.902 -55.666  0.00  0.00     0.211 C 
ATOM     14  O   UNL d   1     -41.495-121.337 -55.933  0.00  0.00    -0.644 OA
ATOM     15  O   UNL d   1     -42.796-121.939 -56.002  0.00  0.00    -0.644 OA
ENDBRANCH  12  13
ENDBRANCH   1  12
TORSDOF 2
ENDMDL
MODEL 2
REMARK VINA RESULT:      -5.0      0.802      1.398
REMARK  2 active torsions:
REMARK  status: ('A' for Active; 'I' for Inactive)
REMARK    1  A    between atoms: C_7  and  C_1 
REMARK    2  A    between atoms: C_8  and  C_7 
ROOT
ATOM      1  C   UNL d   1     -41.638-122.543 -54.143  0.00  0.00     0.033 A 
ATOM      2  C   UNL d   1     -41.325-123.473 -53.246  0.00  0.00     0.100 A 
ATOM      3  C   UNL d   1     -41.543-122.684 -53.336  0.00  0.00     0.025 A 
ATOM      4  O   UNL d   1     -41.285-123.817 -53.995  0.00  0.00    -0.305 OA
ATOM      5  C   UNL d   1     -41.479-123.238 -54.547  0.00  0.00     0.123 A 
ATOM      6  C   UNL d   1     -41.625-122.207 -52.677  0.00  0.00     0.002 A 
ATOM      7  C   UNL d   1     -41.187-123.791 -52.491  0.00  0.00     0.025 A 
ATOM      8  C   UNL d   1     -41.490-122.512 -51.921  0.00  0.00     0.000 A 
ATOM      9  C   UNL d   1     -41.270-123.307 -51.828  0.00  0.00     0.002 A 
ATOM     10  C   UNL d   1     -41.845-121.410 -52.768  0.00  0.00     0.000 C 
ATOM     11  C   UNL d   1     -41.135-123.612 -51.073  0.00  0.00     0.000 C 
ENDROOT
BRANCH   1  12
ATOM     12  C   UNL d   1     -41.854-121.822 -54.480  0.00  0.00     0.072 C 
BRANCH  12  13
ATOM     13  C   UNL d   1     -42.040-121.781 -55.285  0.00  0.00     0.211 C 
ATOM     14  O   UNL d   1     -41.452-121.582 -55.837  0.00  0.00    -0.644 OA
ATOM     15  O   UNL d   1     -42.809-121.937 -55.540  0.00  0.00    -0.644 OA
ENDBRANCH  12  13
ENDBRANCH   1  12
TORSDOF 2
ENDMDL
MODEL 3
REMARK VINA RESULT:      -4.2      1.169      3.042
REMARK  2 active torsions:
REMARK  status: ('A' for Active; 'I' for Inactive)
REMARK    1  A    between atoms: C_7  and  C_1 
REMARK    2  A    between atoms: C_8  and  C_7 
ROOT
ATOM      1  C   UNL d   1     -41.521-122.491 -52.763  0.00  0.00     0.033 A 
ATOM      2  C   UNL d   1     -41.934-121.753 -53.789  0.00  0.00     0.100 A 
ATOM      3  C   UNL d   1     -41.628-122.488 -53.581  0.00  0.00     0.025 A 
ATOM      4  O   UNL d   1     -42.016-121.303 -53.103  0.00  0.00    -0.305 OA
ATOM      5  C   UNL d   1     -41.760-121.764 -52.470  0.00  0.00     0.123 A 
ATOM      6  C   UNL d   1     -41.489-123.050 -54.159  0.00  0.00     0.002 A 
ATOM      7  C   UNL d   1     -42.104-121.574 -54.583  0.00  0.00     0.025 A 
ATOM      8  C   UNL d   1     -41.654-122.884 -54.952  0.00  0.00     0.000 A 
ATOM      9  C   UNL d   1     -41.963-122.143 -55.163  0.00  0.00     0.002 A 
ATOM     10  C   UNL d   1     -41.180-123.793 -53.949  0.00  0.00     0.000 C 
ATOM     11  C   UNL d   1     -42.128-121.977 -55.955  0.00  0.00     0.000 C 
ENDROOT
BRANCH   1  12
ATOM     12  C   UNL d   1     -41.225-123.121 -52.322  0.00  0.00     0.072 C 
BRANCH  12  13
ATOM     13  C   UNL d   1     -41.388-123.172 -51.512  0.00  0.00     0.211 C 
ATOM     14  O   UNL d   1     -41.820-123.817 -51.215  0.00  0.00    -0.644 OA
ATOM     15  O   UNL d   1     -41.123-122.582 -51.000  0.00  0.00    -0.644 OA
ENDBRANCH  12  13
ENDBRANCH   1  12
TORSDOF 2
ENDMDL
MODEL 4
REMARK VINA RESULT:      -4.1      2.143      3.512
REMARK  2 active torsions:
REMARK  status: ('A' for Active; 'I' for Inactive)
REMARK    1  A    between atoms: C_7  and  C_1 
REMARK    2  A    between atoms: C_8  and  C_7 
ROOT
ATOM      1  C   UNL d   1     -42.081-122.468 -50.979  0.00  0.00     0.033 A 
ATOM      2  C   UNL d   1     -42.834-122.526 -49.886  0.00  0.00     0.100 A 
ATOM      3  C   UNL d   1     -42.185-122.863 -50.262  0.00  0.00     0.025 A 
ATOM      4  O   UNL d   1     -43.131-121.926 -50.368  0.00  0.00    -0.305 OA
ATOM      5  C   UNL d   1     -42.662-121.894 -51.044  0.00  0.00     0.123 A 
ATOM      6  C   UNL d   1     -41.779-123.476 -49.904  0.00  0.00     0.002 A 
ATOM      7  C   UNL d   1     -43.085-122.803 -49.144  0.00  0.00     0.025 A 
ATOM      8  C   UNL d   1     -42.020-123.761 -49.166  0.00  0.00     0.000 A 
ATOM      9  C   UNL d   1     -42.675-123.423 -48.785  0.00  0.00     0.002 A 
ATOM     10  C   UNL d   1     -41.123-123.817 -50.284  0.00  0.00     0.000 C 
ATOM     11  C   UNL d   1     -42.914-123.707 -48.047  0.00  0.00     0.000 C 
ENDROOT
BRANCH   1  12
ATOM     12  C   UNL d   1     -41.491-122.630 -51.532  0.00  0.00     0.072 C 
BRANCH  12  13
ATOM     13  C   UNL d   1     -41.485-122.233 -52.258  0.00  0.00     0.211 C 
ATOM     14  O   UNL d   1     -41.803-122.597 -52.934  0.00  0.00    -0.644 OA
ATOM     15  O   UNL d   1     -41.162-121.476 -52.311  0.00  0.00    -0.644 OA
ENDBRANCH  12  13
ENDBRANCH   1  12
TORSDOF 2
ENDMDL
MODEL 5
REMARK VINA RESULT:      -2.3      1.481      3.354
REMARK  2 active torsions:
REMARK  status: ('A' for Active; 'I' for Inactive)
REMARK    1  A    between atoms: C_7  and  C_1 
REMARK    2  A    between atoms: C_8  and  C_7 
ROOT
ATOM      1  C   UNL d   1     -41.488-122.872 -52.589  0.00  0.00     0.033 A 
ATOM      2  C   UNL d   1     -41.632-123.107 -53.889  0.00  0.00     0.100 A 
ATOM      3  C   UNL d   1     -41.670-122.521 -53.312  0.00  0.00     0.025 A 
ATOM      4  O   UNL d   1     -41.428-123.817 -53.523  0.00  0.00    -0.305 OA
ATOM      5  C   UNL d   1     -41.340-123.668 -52.718  0.00  0.00     0.123 A 
ATOM      6  C   UNL d   1     -41.863-121.754 -53.523  0.00  0.00     0.002 A 
ATOM      7  C   UNL d   1     -41.788-122.929 -54.686  0.00  0.00     0.025 A 
ATOM      8  C   UNL d   1     -42.020-121.565 -54.312  0.00  0.00     0.000 A 
ATOM      9  C   UNL d   1     -41.982-122.155 -54.895  0.00  0.00     0.002 A 
ATOM     10  C   UNL d   1     -41.901-121.162 -52.940  0.00  0.00     0.000 C 
ATOM     11  C   UNL d   1     -42.139-121.966 -55.683  0.00  0.00     0.000 C 
ENDROOT
BRANCH   1  12
ATOM     12  C   UNL d   1     -41.462-122.483 -51.863  0.00  0.00     0.072 C 
BRANCH  12  13
ATOM     13  C   UNL d   1     -41.327-122.912 -51.168  0.00  0.00     0.211 C 
ATOM     14  O   UNL d   1     -41.309-122.521 -50.435  0.00  0.00    -0.644 OA
ATOM     15  O   UNL d   1     -41.210-123.728 -51.203  0.00  0.00    -0.644 OA
ENDBRANCH  12  13
ENDBRANCH   1  12
TORSDOF 2
ENDMDL
