MODEL 1
REMARK VINA RESULT:      63.3      0.000      0.000
REMARK  7 active torsions:
REMARK  status: ('A' for Active; 'I' for Inactive)
REMARK    1  A    between atoms: O_8  and  C_1 
REMARK    2  A    between atoms: C_10  and  C_5 
REMARK    3  A    between atoms: C_12  and  O_8 
REMARK    4  A    between atoms: N_9  and  C_10 
REMARK    5  A    between atoms: C_25  and  N_14 
REMARK    6  A    between atoms: O_24  and  C_17 
REMARK    7  A    between atoms: C_29  and  C_25 
ROOT
ATOM      1  C   UNL d   1      46.034 -16.317  44.015  0.00  0.00     0.161 A 
ATOM      2  C   UNL d   1      46.214 -17.572  42.935  0.00  0.00     0.108 A 
ATOM      3  C   UNL d   1      45.860 -17.704  43.682  0.00  0.00     0.064 A 
ATOM      4  C   UNL d   1      45.771 -17.085  44.217  0.00  0.00     0.222 A 
ATOM      5  C   UNL d   1      46.299 -18.200  42.405  0.00  0.00     0.079 A 
ATOM      6  O   UNL d   1      46.476 -16.816  42.730  0.00  0.00    -0.305 OA
ATOM      7  C   UNL d   1      46.387 -16.185  43.272  0.00  0.00     0.126 A 
ATOM      8  C   UNL d   1      45.599 -18.471  43.880  0.00  0.00     0.009 A 
ATOM      9  C   UNL d   1      46.042 -18.954  42.599  0.00  0.00     0.199 A 
ATOM     10  O   UNL d   1      45.423 -17.211  44.954  0.00  0.00    -0.284 OA
ATOM     11  C   UNL d   1      45.688 -19.091  43.345  0.00  0.00     0.042 A 
ATOM     12  O   UNL d   1      46.126 -19.576  42.076  0.00  0.00    -0.286 OA
ATOM     13  C   UNL d   1      46.647 -15.430  43.070  0.00  0.00     0.029 C 
ENDROOT
BRANCH   5  14
ATOM     14  C   UNL d   1      46.647 -18.066  41.675  0.00  0.00     0.086 C 
BRANCH  14  15
ATOM     15  N   UNL d   1      46.173 -17.986  41.001  0.00  0.00    -0.300 N 
ATOM     16  C   UNL d   1      46.458 -18.239  40.269  0.00  0.00     0.100 A 
ATOM     17  C   UNL d   1      45.988 -18.160  39.599  0.00  0.00     0.100 A 
ATOM     18  N   UNL d   1      45.233 -17.827  39.658  0.00  0.00    -0.297 N 
ATOM     19  C   UNL d   1      44.952 -17.575  40.392  0.00  0.00     0.100 A 
ATOM     20  C   UNL d   1      45.423 -17.653  41.073  0.00  0.00     0.100 A 
BRANCH  18  21
ATOM     21  C   UNL d   1      44.763 -17.748  38.987  0.00  0.00     0.126 C 
BRANCH  21  22
ATOM     22  C   UNL d   1      44.434 -17.015  38.798  0.00  0.00     0.253 C 
ATOM     23  O   UNL d   1      44.666 -16.625  38.103  0.00  0.00    -0.281 OA
ENDBRANCH  21  22
ENDBRANCH  18  21
ENDBRANCH  14  15
ENDBRANCH   5  14
BRANCH   1  24
ATOM     24  O   UNL d   1      45.945 -15.697  44.549  0.00  0.00    -0.300 OA
BRANCH  24  25
ATOM     25  C   UNL d   1      45.260 -15.253  44.543  0.00  0.00     0.122 A 
ATOM     26  C   UNL d   1      45.292 -14.448  44.678  0.00  0.00     0.117 A 
ATOM     27  C   UNL d   1      44.604 -14.001  44.672  0.00  0.00     0.026 A 
ATOM     28  C   UNL d   1      43.879 -14.371  44.528  0.00  0.00     0.002 A 
ATOM     29  C   UNL d   1      43.846 -15.176  44.393  0.00  0.00     0.002 A 
ATOM     30  C   UNL d   1      44.539 -15.625  44.399  0.00  0.00     0.027 A 
BRANCH  26  31
ATOM     31  O   UNL d   1      46.020 -14.090  44.819  0.00  0.00    -0.326 OA
ATOM     32  C   UNL d   1      46.298 -13.502  44.311  0.00  0.00     0.181 C 
ENDBRANCH  26  31
ENDBRANCH  24  25
ENDBRANCH   1  24
TORSDOF 7
ENDMDL
