MODEL 1
REMARK VINA RESULT:      45.7      0.000      0.000
REMARK  6 active torsions:
REMARK  status: ('A' for Active; 'I' for Inactive)
REMARK    1  A    between atoms: C_2  and  C_1 
REMARK       I    between atoms: N_5  and  C_1 
REMARK    2  A    between atoms: C_4  and  C_2 
REMARK    3  A    between atoms: O_13  and  C_3 
REMARK    4  A    between atoms: C_9  and  C_4 
REMARK    5  A    between atoms: C_11  and  N_5 
REMARK    6  A    between atoms: O_14  and  C_6 
ROOT
ATOM      1  C   UNL d   1     -49.897  26.836  33.728  0.00  0.00     0.005 C 
ENDROOT
BRANCH   1   2
ATOM      2  C   UNL d   1     -49.751  27.151  34.478  0.00  0.00     0.062 C 
BRANCH   2   3
ATOM      3  C   UNL d   1     -49.105  27.651  34.600  0.00  0.00     0.279 C 
ATOM      4  N   UNL d   1     -49.160  28.249  35.084  0.00  0.00    -0.208 NA
ATOM      5  O   UNL d   1     -48.439  27.518  34.225  0.00  0.00    -0.265 OA
BRANCH   4   6
ATOM      6  C   UNL d   1     -48.555  28.718  35.198  0.00  0.00     0.085 A 
ATOM      7  C   UNL d   1     -48.285  29.126  34.589  0.00  0.00     0.019 A 
ATOM      8  C   UNL d   1     -47.680  29.597  34.693  0.00  0.00     0.002 A 
ATOM      9  C   UNL d   1     -47.343  29.660  35.413  0.00  0.00     0.000 A 
ATOM     10  C   UNL d   1     -47.621  29.246  36.020  0.00  0.00     0.002 A 
ATOM     11  C   UNL d   1     -48.230  28.771  35.916  0.00  0.00     0.019 A 
ENDBRANCH   4   6
ENDBRANCH   2   3
ENDBRANCH   1   2
BRANCH   1  12
ATOM     12  C   UNL d   1     -50.493  26.275  33.623  0.00  0.00     0.002 A 
ATOM     13  C   UNL d   1     -50.297  25.474  33.516  0.00  0.00     0.026 A 
ATOM     14  C   UNL d   1     -50.893  24.913  33.410  0.00  0.00     0.116 A 
ATOM     15  C   UNL d   1     -51.684  25.153  33.412  0.00  0.00     0.116 A 
ATOM     16  C   UNL d   1     -51.881  25.951  33.518  0.00  0.00     0.026 A 
ATOM     17  C   UNL d   1     -51.281  26.510  33.624  0.00  0.00     0.002 A 
BRANCH  14  18
ATOM     18  O   UNL d   1     -50.701  24.129  33.306  0.00  0.00    -0.326 OA
ATOM     19  C   UNL d   1     -49.925  23.874  33.433  0.00  0.00     0.181 C 
ENDBRANCH  14  18
BRANCH  15  20
ATOM     20  O   UNL d   1     -52.287  24.594  33.306  0.00  0.00    -0.326 OA
ATOM     21  C   UNL d   1     -52.930  24.571  33.826  0.00  0.00     0.181 C 
ENDBRANCH  15  20
ENDBRANCH   1  12
TORSDOF 6
ENDMDL
