MODEL 1
REMARK VINA RESULT:      -4.8      0.000      0.000
REMARK  8 active torsions:
REMARK  status: ('A' for Active; 'I' for Inactive)
REMARK    1  A    between atoms: S_7  and  C_3 
REMARK    2  A    between atoms: C_8  and  C_4 
REMARK    3  A    between atoms: C_14  and  S_7 
REMARK    4  A    between atoms: C_17  and  C_8 
REMARK    5  A    between atoms: C_9  and  C_14 
REMARK       I    between atoms: N_12  and  C_9 
REMARK    6  A    between atoms: C_15  and  N_12 
REMARK    7  A    between atoms: O_22  and  C_16 
REMARK    8  A    between atoms: C_23  and  O_22 
ROOT
ATOM      1  N   UNL d   1     -44.395  12.158  22.480  0.00  0.00    -0.149 N 
ATOM      2  C   UNL d   1     -45.103  12.146  22.869  0.00  0.00     0.303 A 
ATOM      3  C   UNL d   1     -44.206  12.775  21.967  0.00  0.00     0.220 A 
ATOM      4  C   UNL d   1     -45.632  12.759  22.747  0.00  0.00     0.161 A 
ATOM      5  N   UNL d   1     -45.466  13.377  22.245  0.00  0.00    -0.141 NA
ATOM      6  N   UNL d   1     -44.758  13.389  21.856  0.00  0.00    -0.121 NA
ATOM      7  O   UNL d   1     -45.288  11.521  23.386  0.00  0.00    -0.263 OA
ATOM      8  N   UNL d   1     -43.829  11.545  22.583  0.00  0.00    -0.037 N 
ENDROOT
BRANCH   3   9
ATOM      9  S   UNL d   1     -43.493  12.794  21.570  0.00  0.00    -0.041 SA
BRANCH   9  10
ATOM     10  C   UNL d   1     -43.131  13.524  21.404  0.00  0.00     0.101 C 
BRANCH  10  11
ATOM     11  C   UNL d   1     -42.390  13.533  21.060  0.00  0.00     0.286 C 
ATOM     12  N   UNL d   1     -41.939  14.223  21.083  0.00  0.00    -0.208 NA
ATOM     13  O   UNL d   1     -42.060  12.877  20.683  0.00  0.00    -0.265 OA
BRANCH  12  14
ATOM     14  C   UNL d   1     -41.198  14.248  20.743  0.00  0.00     0.085 A 
ATOM     15  C   UNL d   1     -40.506  14.144  21.196  0.00  0.00     0.021 A 
ATOM     16  C   UNL d   1     -39.762  14.172  20.838  0.00  0.00     0.026 A 
ATOM     17  C   UNL d   1     -39.679  14.300  20.039  0.00  0.00     0.100 A 
ATOM     18  C   UNL d   1     -40.370  14.404  19.586  0.00  0.00     0.026 A 
ATOM     19  C   UNL d   1     -41.098  14.379  19.919  0.00  0.00     0.021 A 
BRANCH  17  20
ATOM     20  O   UNL d   1     -38.952  14.324  19.706  0.00  0.00    -0.305 OA
BRANCH  20  21
ATOM     21  C   UNL d   1     -38.702  13.755  19.160  0.00  0.00     0.123 C 
ATOM     22  C   UNL d   1     -37.940  13.760  18.844  0.00  0.00     0.029 C 
ENDBRANCH  20  21
ENDBRANCH  17  20
ENDBRANCH  12  14
ENDBRANCH  10  11
ENDBRANCH   9  10
ENDBRANCH   3   9
BRANCH   4  23
ATOM     23  C   UNL d   1     -46.370  12.747  23.152  0.00  0.00     0.026 C 
BRANCH  23  24
ATOM     24  C   UNL d   1     -47.013  13.111  22.815  0.00  0.00     0.002 A 
ATOM     25  C   UNL d   1     -47.483  12.734  22.259  0.00  0.00     0.000 A 
ATOM     26  C   UNL d   1     -48.120  13.099  21.927  0.00  0.00     0.000 A 
ATOM     27  C   UNL d   1     -48.311  13.886  22.154  0.00  0.00     0.000 A 
ATOM     28  C   UNL d   1     -47.845  14.278  22.715  0.00  0.00     0.000 A 
ATOM     29  C   UNL d   1     -47.204  13.898  23.042  0.00  0.00     0.000 A 
ENDBRANCH  23  24
ENDBRANCH   4  23
TORSDOF 8
ENDMDL
MODEL 2
REMARK VINA RESULT:      -4.8      1.917      3.176
REMARK  8 active torsions:
REMARK  status: ('A' for Active; 'I' for Inactive)
REMARK    1  A    between atoms: S_7  and  C_3 
REMARK    2  A    between atoms: C_8  and  C_4 
REMARK    3  A    between atoms: C_14  and  S_7 
REMARK    4  A    between atoms: C_17  and  C_8 
REMARK    5  A    between atoms: C_9  and  C_14 
REMARK       I    between atoms: N_12  and  C_9 
REMARK    6  A    between atoms: C_15  and  N_12 
REMARK    7  A    between atoms: O_22  and  C_16 
REMARK    8  A    between atoms: C_23  and  O_22 
ROOT
ATOM      1  N   UNL d   1     -47.390  11.939  23.323  0.00  0.00    -0.149 N 
ATOM      2  C   UNL d   1     -48.187  11.825  23.399  0.00  0.00     0.303 A 
ATOM      3  C   UNL d   1     -47.093  12.649  23.027  0.00  0.00     0.220 A 
ATOM      4  C   UNL d   1     -48.696  12.427  23.176  0.00  0.00     0.161 A 
ATOM      5  N   UNL d   1     -48.424  13.134  22.882  0.00  0.00    -0.141 NA
ATOM      6  N   UNL d   1     -47.627  13.248  22.806  0.00  0.00    -0.121 NA
ATOM      7  O   UNL d   1     -48.482  11.107  23.698  0.00  0.00    -0.263 OA
ATOM      8  N   UNL d   1     -46.840  11.343  23.542  0.00  0.00    -0.037 N 
ENDROOT
BRANCH   3   9
ATOM      9  S   UNL d   1     -46.289  12.772  22.948  0.00  0.00    -0.041 SA
BRANCH   9  10
ATOM     10  C   UNL d   1     -45.956  12.851  22.191  0.00  0.00     0.101 C 
BRANCH  10  11
ATOM     11  C   UNL d   1     -45.167  13.050  22.121  0.00  0.00     0.286 C 
ATOM     12  N   UNL d   1     -44.694  12.652  21.575  0.00  0.00    -0.208 NA
ATOM     13  O   UNL d   1     -44.809  13.640  22.575  0.00  0.00    -0.265 OA
BRANCH  12  14
ATOM     14  C   UNL d   1     -43.904  12.840  21.494  0.00  0.00     0.085 A 
ATOM     15  C   UNL d   1     -43.656  13.524  21.088  0.00  0.00     0.021 A 
ATOM     16  C   UNL d   1     -42.853  13.700  21.014  0.00  0.00     0.026 A 
ATOM     17  C   UNL d   1     -42.280  13.217  21.331  0.00  0.00     0.100 A 
ATOM     18  C   UNL d   1     -42.527  12.533  21.737  0.00  0.00     0.026 A 
ATOM     19  C   UNL d   1     -43.303  12.349  21.816  0.00  0.00     0.021 A 
BRANCH  17  20
ATOM     20  O   UNL d   1     -41.505  13.401  21.252  0.00  0.00    -0.305 OA
BRANCH  20  21
ATOM     21  C   UNL d   1     -41.257  14.151  21.009  0.00  0.00     0.123 C 
ATOM     22  C   UNL d   1     -40.460  14.363  20.996  0.00  0.00     0.029 C 
ENDBRANCH  20  21
ENDBRANCH  17  20
ENDBRANCH  12  14
ENDBRANCH  10  11
ENDBRANCH   9  10
ENDBRANCH   3   9
BRANCH   4  23
ATOM     23  C   UNL d   1     -49.526  12.307  23.254  0.00  0.00     0.026 C 
BRANCH  23  24
ATOM     24  C   UNL d   1     -50.034  12.752  22.801  0.00  0.00     0.002 A 
ATOM     25  C   UNL d   1     -50.395  13.427  23.092  0.00  0.00     0.000 A 
ATOM     26  C   UNL d   1     -50.899  13.865  22.639  0.00  0.00     0.000 A 
ATOM     27  C   UNL d   1     -51.060  13.625  21.850  0.00  0.00     0.000 A 
ATOM     28  C   UNL d   1     -50.702  12.944  21.544  0.00  0.00     0.000 A 
ATOM     29  C   UNL d   1     -50.195  12.512  22.012  0.00  0.00     0.000 A 
ENDBRANCH  23  24
ENDBRANCH   4  23
TORSDOF 8
ENDMDL
MODEL 3
REMARK VINA RESULT:      -4.3      1.418      6.566
REMARK  8 active torsions:
REMARK  status: ('A' for Active; 'I' for Inactive)
REMARK    1  A    between atoms: S_7  and  C_3 
REMARK    2  A    between atoms: C_8  and  C_4 
REMARK    3  A    between atoms: C_14  and  S_7 
REMARK    4  A    between atoms: C_17  and  C_8 
REMARK    5  A    between atoms: C_9  and  C_14 
REMARK       I    between atoms: N_12  and  C_9 
REMARK    6  A    between atoms: C_15  and  N_12 
REMARK    7  A    between atoms: O_22  and  C_16 
REMARK    8  A    between atoms: C_23  and  O_22 
ROOT
ATOM      1  N   UNL d   1     -40.851  14.064  20.979  0.00  0.00    -0.149 N 
ATOM      2  C   UNL d   1     -40.326  14.409  20.471  0.00  0.00     0.303 A 
ATOM      3  C   UNL d   1     -41.530  13.692  20.695  0.00  0.00     0.220 A 
ATOM      4  C   UNL d   1     -40.479  14.384  19.666  0.00  0.00     0.161 A 
ATOM      5  N   UNL d   1     -41.142  14.023  19.366  0.00  0.00    -0.141 NA
ATOM      6  N   UNL d   1     -41.667  13.678  19.874  0.00  0.00    -0.121 NA
ATOM      7  O   UNL d   1     -39.642  14.783  20.762  0.00  0.00    -0.263 OA
ATOM      8  N   UNL d   1     -40.724  14.071  21.810  0.00  0.00    -0.037 N 
ENDROOT
BRANCH   3   9
ATOM      9  S   UNL d   1     -42.065  13.341  21.202  0.00  0.00    -0.041 SA
BRANCH   9  10
ATOM     10  C   UNL d   1     -42.799  13.081  20.913  0.00  0.00     0.101 C 
BRANCH  10  11
ATOM     11  C   UNL d   1     -43.372  12.835  21.441  0.00  0.00     0.286 C 
ATOM     12  N   UNL d   1     -44.114  13.194  21.434  0.00  0.00    -0.208 NA
ATOM     13  O   UNL d   1     -43.247  12.234  21.994  0.00  0.00    -0.265 OA
BRANCH  12  14
ATOM     14  C   UNL d   1     -44.696  12.959  21.955  0.00  0.00     0.085 A 
ATOM     15  C   UNL d   1     -44.707  12.193  22.281  0.00  0.00     0.021 A 
ATOM     16  C   UNL d   1     -45.303  11.970  22.808  0.00  0.00     0.026 A 
ATOM     17  C   UNL d   1     -45.894  12.485  23.025  0.00  0.00     0.100 A 
ATOM     18  C   UNL d   1     -45.883  13.251  22.699  0.00  0.00     0.026 A 
ATOM     19  C   UNL d   1     -45.312  13.482  22.187  0.00  0.00     0.021 A 
BRANCH  17  20
ATOM     20  O   UNL d   1     -46.465  12.255  23.536  0.00  0.00    -0.305 OA
BRANCH  20  21
ATOM     21  C   UNL d   1     -47.268  12.294  23.342  0.00  0.00     0.123 C 
ATOM     22  C   UNL d   1     -47.827  11.803  23.698  0.00  0.00     0.029 C 
ENDBRANCH  20  21
ENDBRANCH  17  20
ENDBRANCH  12  14
ENDBRANCH  10  11
ENDBRANCH   9  10
ENDBRANCH   3   9
BRANCH   4  23
ATOM     23  C   UNL d   1     -39.932  14.744  19.137  0.00  0.00     0.026 C 
BRANCH  23  24
ATOM     24  C   UNL d   1     -40.184  14.961  18.395  0.00  0.00     0.002 A 
ATOM     25  C   UNL d   1     -40.595  15.658  18.264  0.00  0.00     0.000 A 
ATOM     26  C   UNL d   1     -40.843  15.870  17.527  0.00  0.00     0.000 A 
ATOM     27  C   UNL d   1     -40.677  15.367  16.874  0.00  0.00     0.000 A 
ATOM     28  C   UNL d   1     -40.262  14.660  16.993  0.00  0.00     0.000 A 
ATOM     29  C   UNL d   1     -40.018  14.458  17.742  0.00  0.00     0.000 A 
ENDBRANCH  23  24
ENDBRANCH   4  23
TORSDOF 8
ENDMDL
MODEL 4
REMARK VINA RESULT:      -4.1      2.254      3.750
REMARK  8 active torsions:
REMARK  status: ('A' for Active; 'I' for Inactive)
REMARK    1  A    between atoms: S_7  and  C_3 
REMARK    2  A    between atoms: C_8  and  C_4 
REMARK    3  A    between atoms: C_14  and  S_7 
REMARK    4  A    between atoms: C_17  and  C_8 
REMARK    5  A    between atoms: C_9  and  C_14 
REMARK       I    between atoms: N_12  and  C_9 
REMARK    6  A    between atoms: C_15  and  N_12 
REMARK    7  A    between atoms: O_22  and  C_16 
REMARK    8  A    between atoms: C_23  and  O_22 
ROOT
ATOM      1  N   UNL d   1     -47.918  14.777  22.615  0.00  0.00    -0.149 N 
ATOM      2  C   UNL d   1     -48.721  14.754  22.697  0.00  0.00     0.303 A 
ATOM      3  C   UNL d   1     -47.462  14.101  22.738  0.00  0.00     0.220 A 
ATOM      4  C   UNL d   1     -49.078  14.046  22.905  0.00  0.00     0.161 A 
ATOM      5  N   UNL d   1     -48.647  13.368  23.030  0.00  0.00    -0.141 NA
ATOM      6  N   UNL d   1     -47.844  13.391  22.949  0.00  0.00    -0.121 NA
ATOM      7  O   UNL d   1     -49.177  15.439  22.572  0.00  0.00    -0.263 OA
ATOM      8  N   UNL d   1     -47.521  15.487  22.404  0.00  0.00    -0.037 N 
ENDROOT
BRANCH   3   9
ATOM      9  S   UNL d   1     -46.650  14.117  22.657  0.00  0.00    -0.041 SA
BRANCH   9  10
ATOM     10  C   UNL d   1     -46.238  13.415  22.488  0.00  0.00     0.101 C 
BRANCH  10  11
ATOM     11  C   UNL d   1     -45.439  13.452  22.318  0.00  0.00     0.286 C 
ATOM     12  N   UNL d   1     -45.087  12.847  21.883  0.00  0.00    -0.208 NA
ATOM     13  O   UNL d   1     -44.955  14.075  22.562  0.00  0.00    -0.265 OA
BRANCH  12  14
ATOM     14  C   UNL d   1     -44.291  12.870  21.705  0.00  0.00     0.085 A 
ATOM     15  C   UNL d   1     -43.992  13.366  21.107  0.00  0.00     0.021 A 
ATOM     16  C   UNL d   1     -43.183  13.379  20.938  0.00  0.00     0.026 A 
ATOM     17  C   UNL d   1     -42.656  12.911  21.346  0.00  0.00     0.100 A 
ATOM     18  C   UNL d   1     -42.956  12.414  21.943  0.00  0.00     0.026 A 
ATOM     19  C   UNL d   1     -43.737  12.392  22.118  0.00  0.00     0.021 A 
BRANCH  17  20
ATOM     20  O   UNL d   1     -41.875  12.934  21.171  0.00  0.00    -0.305 OA
BRANCH  20  21
ATOM     21  C   UNL d   1     -41.450  13.643  21.162  0.00  0.00     0.123 C 
ATOM     22  C   UNL d   1     -40.630  13.658  21.079  0.00  0.00     0.029 C 
ENDBRANCH  20  21
ENDBRANCH  17  20
ENDBRANCH  12  14
ENDBRANCH  10  11
ENDBRANCH   9  10
ENDBRANCH   3   9
BRANCH   4  23
ATOM     23  C   UNL d   1     -49.915  14.022  22.990  0.00  0.00     0.026 C 
BRANCH  23  24
ATOM     24  C   UNL d   1     -50.294  13.303  22.972  0.00  0.00     0.002 A 
ATOM     25  C   UNL d   1     -50.487  12.932  22.267  0.00  0.00     0.000 A 
ATOM     26  C   UNL d   1     -50.863  12.220  22.253  0.00  0.00     0.000 A 
ATOM     27  C   UNL d   1     -51.064  11.844  22.978  0.00  0.00     0.000 A 
ATOM     28  C   UNL d   1     -50.875  12.208  23.698  0.00  0.00     0.000 A 
ATOM     29  C   UNL d   1     -50.495  12.927  23.697  0.00  0.00     0.000 A 
ENDBRANCH  23  24
ENDBRANCH   4  23
TORSDOF 8
ENDMDL
MODEL 5
REMARK VINA RESULT:      -3.2      1.829      6.816
REMARK  8 active torsions:
REMARK  status: ('A' for Active; 'I' for Inactive)
REMARK    1  A    between atoms: S_7  and  C_3 
REMARK    2  A    between atoms: C_8  and  C_4 
REMARK    3  A    between atoms: C_14  and  S_7 
REMARK    4  A    between atoms: C_17  and  C_8 
REMARK    5  A    between atoms: C_9  and  C_14 
REMARK       I    between atoms: N_12  and  C_9 
REMARK    6  A    between atoms: C_15  and  N_12 
REMARK    7  A    between atoms: O_22  and  C_16 
REMARK    8  A    between atoms: C_23  and  O_22 
ROOT
ATOM      1  N   UNL d   1     -44.348  12.215  22.423  0.00  0.00    -0.149 N 
ATOM      2  C   UNL d   1     -43.604  12.097  22.133  0.00  0.00     0.303 A 
ATOM      3  C   UNL d   1     -44.780  12.886  22.215  0.00  0.00     0.220 A 
ATOM      4  C   UNL d   1     -43.282  12.656  21.628  0.00  0.00     0.161 A 
ATOM      5  N   UNL d   1     -43.691  13.324  21.410  0.00  0.00    -0.141 NA
ATOM      6  N   UNL d   1     -44.435  13.442  21.701  0.00  0.00    -0.121 NA
ATOM      7  O   UNL d   1     -43.172  11.417  22.345  0.00  0.00    -0.263 OA
ATOM      8  N   UNL d   1     -44.708  11.661  22.943  0.00  0.00    -0.037 N 
ENDROOT
BRANCH   3   9
ATOM      9  S   UNL d   1     -45.533  13.012  22.505  0.00  0.00    -0.041 SA
BRANCH   9  10
ATOM     10  C   UNL d   1     -45.957  13.688  22.272  0.00  0.00     0.101 C 
BRANCH  10  11
ATOM     11  C   UNL d   1     -46.695  13.827  22.594  0.00  0.00     0.286 C 
ATOM     12  N   UNL d   1     -47.298  14.127  22.118  0.00  0.00    -0.208 NA
ATOM     13  O   UNL d   1     -46.875  13.680  23.387  0.00  0.00    -0.265 OA
BRANCH  12  14
ATOM     14  C   UNL d   1     -48.040  14.271  22.426  0.00  0.00     0.085 A 
ATOM     15  C   UNL d   1     -48.267  15.030  22.681  0.00  0.00     0.021 A 
ATOM     16  C   UNL d   1     -49.022  15.160  22.990  0.00  0.00     0.026 A 
ATOM     17  C   UNL d   1     -49.565  14.557  23.056  0.00  0.00     0.100 A 
ATOM     18  C   UNL d   1     -49.337  13.798  22.801  0.00  0.00     0.026 A 
ATOM     19  C   UNL d   1     -48.609  13.657  22.499  0.00  0.00     0.021 A 
BRANCH  17  20
ATOM     20  O   UNL d   1     -50.292  14.698  23.358  0.00  0.00    -0.305 OA
BRANCH  20  21
ATOM     21  C   UNL d   1     -50.756  15.333  23.102  0.00  0.00     0.123 C 
ATOM     22  C   UNL d   1     -51.062  15.890  23.629  0.00  0.00     0.029 C 
ENDBRANCH  20  21
ENDBRANCH  17  20
ENDBRANCH  12  14
ENDBRANCH  10  11
ENDBRANCH   9  10
ENDBRANCH   3   9
BRANCH   4  23
ATOM     23  C   UNL d   1     -42.506  12.533  21.325  0.00  0.00     0.026 C 
BRANCH  23  24
ATOM     24  C   UNL d   1     -42.060  13.176  21.107  0.00  0.00     0.002 A 
ATOM     25  C   UNL d   1     -42.115  13.509  20.361  0.00  0.00     0.000 A 
ATOM     26  C   UNL d   1     -41.670  14.147  20.148  0.00  0.00     0.000 A 
ATOM     27  C   UNL d   1     -41.136  14.482  20.704  0.00  0.00     0.000 A 
ATOM     28  C   UNL d   1     -41.070  14.155  21.463  0.00  0.00     0.000 A 
ATOM     29  C   UNL d   1     -41.525  13.511  21.663  0.00  0.00     0.000 A 
ENDBRANCH  23  24
ENDBRANCH   4  23
TORSDOF 8
ENDMDL
MODEL 6
REMARK VINA RESULT:      -3.0      1.444      6.704
REMARK  8 active torsions:
REMARK  status: ('A' for Active; 'I' for Inactive)
REMARK    1  A    between atoms: S_7  and  C_3 
REMARK    2  A    between atoms: C_8  and  C_4 
REMARK    3  A    between atoms: C_14  and  S_7 
REMARK    4  A    between atoms: C_17  and  C_8 
REMARK    5  A    between atoms: C_9  and  C_14 
REMARK       I    between atoms: N_12  and  C_9 
REMARK    6  A    between atoms: C_15  and  N_12 
REMARK    7  A    between atoms: O_22  and  C_16 
REMARK    8  A    between atoms: C_23  and  O_22 
ROOT
ATOM      1  N   UNL d   1     -41.523  14.670  20.957  0.00  0.00    -0.149 N 
ATOM      2  C   UNL d   1     -40.739  14.853  21.022  0.00  0.00     0.303 A 
ATOM      3  C   UNL d   1     -41.786  13.897  21.068  0.00  0.00     0.220 A 
ATOM      4  C   UNL d   1     -40.207  14.256  21.202  0.00  0.00     0.161 A 
ATOM      5  N   UNL d   1     -40.446  13.487  21.316  0.00  0.00    -0.141 NA
ATOM      6  N   UNL d   1     -41.230  13.305  21.250  0.00  0.00    -0.121 NA
ATOM      7  O   UNL d   1     -40.477  15.635  20.909  0.00  0.00    -0.263 OA
ATOM      8  N   UNL d   1     -42.094  15.259  20.773  0.00  0.00    -0.037 N 
ENDROOT
BRANCH   3   9
ATOM      9  S   UNL d   1     -42.578  13.705  21.003  0.00  0.00    -0.041 SA
BRANCH   9  10
ATOM     10  C   UNL d   1     -42.875  13.037  21.399  0.00  0.00     0.101 C 
BRANCH  10  11
ATOM     11  C   UNL d   1     -43.682  12.953  21.488  0.00  0.00     0.286 C 
ATOM     12  N   UNL d   1     -44.023  13.054  22.232  0.00  0.00    -0.208 NA
ATOM     13  O   UNL d   1     -44.188  12.767  20.862  0.00  0.00    -0.265 OA
BRANCH  12  14
ATOM     14  C   UNL d   1     -44.828  12.973  22.337  0.00  0.00     0.085 A 
ATOM     15  C   UNL d   1     -45.353  13.603  22.194  0.00  0.00     0.021 A 
ATOM     16  C   UNL d   1     -46.166  13.506  22.304  0.00  0.00     0.026 A 
ATOM     17  C   UNL d   1     -46.479  12.797  22.554  0.00  0.00     0.100 A 
ATOM     18  C   UNL d   1     -45.954  12.167  22.697  0.00  0.00     0.026 A 
ATOM     19  C   UNL d   1     -45.164  12.247  22.595  0.00  0.00     0.021 A 
BRANCH  17  20
ATOM     20  O   UNL d   1     -47.269  12.718  22.657  0.00  0.00    -0.305 OA
BRANCH  20  21
ATOM     21  C   UNL d   1     -47.796  12.733  22.020  0.00  0.00     0.123 C 
ATOM     22  C   UNL d   1     -48.586  12.509  22.102  0.00  0.00     0.029 C 
ENDBRANCH  20  21
ENDBRANCH  17  20
ENDBRANCH  12  14
ENDBRANCH  10  11
ENDBRANCH   9  10
ENDBRANCH   3   9
BRANCH   4  23
ATOM     23  C   UNL d   1     -39.390  14.446  21.271  0.00  0.00     0.026 C 
BRANCH  23  24
ATOM     24  C   UNL d   1     -38.923  14.013  21.777  0.00  0.00     0.002 A 
ATOM     25  C   UNL d   1     -38.930  14.138  22.586  0.00  0.00     0.000 A 
ATOM     26  C   UNL d   1     -38.466  13.706  23.085  0.00  0.00     0.000 A 
ATOM     27  C   UNL d   1     -37.962  13.112  22.769  0.00  0.00     0.000 A 
ATOM     28  C   UNL d   1     -37.946  12.975  21.952  0.00  0.00     0.000 A 
ATOM     29  C   UNL d   1     -38.419  13.418  21.461  0.00  0.00     0.000 A 
ENDBRANCH  23  24
ENDBRANCH   4  23
TORSDOF 8
ENDMDL
