MODEL 1
REMARK VINA RESULT:       3.5      0.000      0.000
REMARK  4 active torsions:
REMARK  status: ('A' for Active; 'I' for Inactive)
REMARK    1  A    between atoms: N_7  and  C_1 
REMARK    2  A    between atoms: C_11  and  C_2 
REMARK       I    between atoms: C_8  and  N_7 
REMARK    3  A    between atoms: C_13  and  C_8 
REMARK    4  A    between atoms: N_9  and  C_13 
ROOT
ATOM      1  C   UNL d   1     -41.612-122.605 -51.925  0.00  0.00     0.142 A 
ATOM      2  C   UNL d   1     -41.744-122.216 -51.218  0.00  0.00     0.024 A 
ATOM      3  C   UNL d   1     -41.813-123.402 -51.993  0.00  0.00     0.297 A 
ATOM      4  C   UNL d   1     -42.074-122.604 -50.574  0.00  0.00     0.020 A 
ATOM      5  N   UNL d   1     -42.147-123.810 -51.354  0.00  0.00    -0.207 NA
ATOM      6  C   UNL d   1     -42.276-123.401 -50.642  0.00  0.00     0.085 A 
ATOM      7  C   UNL d   1     -42.205-122.214 -49.871  0.00  0.00     0.008 A 
ATOM      8  O   UNL d   1     -41.684-123.811 -52.708  0.00  0.00    -0.264 OA
ATOM      9  C   UNL d   1     -42.608-123.809 -50.007  0.00  0.00     0.020 A 
ATOM     10  C   UNL d   1     -42.533-122.602 -49.230  0.00  0.00     0.035 A 
ATOM     11  C   UNL d   1     -42.735-123.399 -49.298  0.00  0.00     0.008 A 
ATOM     12 BR   UNL d   1     -42.674-122.213 -48.500  0.00  0.00    -0.049 Br
ENDROOT
BRANCH   1  13
ATOM     13  N   UNL d   1     -41.276-122.217 -52.585  0.00  0.00    -0.202 NA
ATOM     14  C   UNL d   1     -41.537-122.432 -53.357  0.00  0.00     0.297 C 
ATOM     15  O   UNL d   1     -41.996-122.899 -53.407  0.00  0.00    -0.264 OA
BRANCH  14  16
ATOM     16  C   UNL d   1     -41.208-122.052 -54.005  0.00  0.00     0.144 C 
BRANCH  16  17
ATOM     17  N   UNL d   1     -41.665-121.975 -54.701  0.00  0.00    -0.295 N 
ATOM     18  C   UNL d   1     -41.394-122.299 -55.403  0.00  0.00     0.107 A 
ATOM     19  C   UNL d   1     -41.855-122.221 -56.104  0.00  0.00     0.142 A 
ATOM     20  O   UNL d   1     -42.573-121.821 -56.083  0.00  0.00    -0.300 OA
ATOM     21  C   UNL d   1     -42.844-121.489 -55.347  0.00  0.00     0.142 A 
ATOM     22  C   UNL d   1     -42.385-121.572 -54.671  0.00  0.00     0.107 A 
ENDBRANCH  16  17
ENDBRANCH  14  16
ENDBRANCH   1  13
BRANCH   2  23
ATOM     23  C   UNL d   1     -41.538-121.401 -51.148  0.00  0.00     0.002 A 
ATOM     24  C   UNL d   1     -41.553-120.918 -51.812  0.00  0.00     0.000 A 
ATOM     25  C   UNL d   1     -41.352-120.124 -51.744  0.00  0.00     0.000 A 
ATOM     26  C   UNL d   1     -41.131-119.793 -51.011  0.00  0.00     0.000 A 
ATOM     27  C   UNL d   1     -41.122-120.302 -50.346  0.00  0.00     0.000 A 
ATOM     28  C   UNL d   1     -41.323-121.095 -50.413  0.00  0.00     0.000 A 
ENDBRANCH   2  23
TORSDOF 4
ENDMDL
