MODEL 1
REMARK VINA RESULT:      62.9      0.000      0.000
REMARK  4 active torsions:
REMARK  status: ('A' for Active; 'I' for Inactive)
REMARK    1  A    between atoms: C_11  and  C_3 
REMARK    2  A    between atoms: N_10  and  C_4 
REMARK    3  A    between atoms: C_15  and  N_10 
REMARK    4  A    between atoms: C_16  and  C_15 
ROOT
ATOM      1  C   UNL d   1     -50.698  26.281  33.527  0.00  0.00     0.167 A 
ATOM      2  N   UNL d   1     -50.217  26.978  33.590  0.00  0.00    -0.195 N 
ATOM      3  C   UNL d   1     -51.506  26.342  33.559  0.00  0.00     0.057 A 
ATOM      4  C   UNL d   1     -49.417  26.902  33.556  0.00  0.00     0.167 A 
ATOM      5  N   UNL d   1     -51.394  27.763  33.713  0.00  0.00    -0.161 NA
ATOM      6  N   UNL d   1     -50.347  25.554  33.436  0.00  0.00    -0.227 NA
ATOM      7  C   UNL d   1     -49.052  26.170  33.464  0.00  0.00     0.058 A 
ATOM      8  C   UNL d   1     -51.860  27.088  33.653  0.00  0.00     0.124 A 
ATOM      9  C   UNL d   1     -49.525  25.484  33.402  0.00  0.00     0.086 A 
ATOM     10  C   UNL d   1     -49.153  24.716  33.306  0.00  0.00     0.021 C 
ENDROOT
BRANCH   4  11
ATOM     11  N   UNL d   1     -48.927  27.604  33.619  0.00  0.00    -0.224 NA
BRANCH  11  12
ATOM     12  C   UNL d   1     -48.168  27.871  33.916  0.00  0.00     0.120 C 
BRANCH  12  13
ATOM     13  C   UNL d   1     -48.135  28.463  34.534  0.00  0.00     0.101 A 
ATOM     14  N   UNL d   1     -48.105  28.208  35.358  0.00  0.00    -0.242 NA
ATOM     15  C   UNL d   1     -48.072  28.801  35.975  0.00  0.00     0.099 A 
ATOM     16  C   UNL d   1     -48.068  29.636  35.774  0.00  0.00     0.021 A 
ATOM     17  C   UNL d   1     -48.098  29.879  34.955  0.00  0.00     0.003 A 
ATOM     18  C   UNL d   1     -48.131  29.287  34.336  0.00  0.00     0.021 A 
ENDBRANCH  12  13
ENDBRANCH  11  12
ENDBRANCH   4  11
BRANCH   3  19
ATOM     19  C   UNL d   1     -51.972  25.666  33.498  0.00  0.00     0.005 A 
ATOM     20  C   UNL d   1     -52.778  25.736  33.419  0.00  0.00     0.001 A 
ATOM     21  C   UNL d   1     -53.245  25.060  33.359  0.00  0.00     0.011 A 
ATOM     22  C   UNL d   1     -52.897  24.325  33.378  0.00  0.00     0.058 A 
ATOM     23  C   UNL d   1     -52.083  24.265  33.459  0.00  0.00     0.011 A 
ATOM     24 CL   UNL d   1     -53.385  23.618  33.315  0.00  0.00    -0.082 Cl
ATOM     25  C   UNL d   1     -51.624  24.930  33.518  0.00  0.00     0.001 A 
ENDBRANCH   3  19
TORSDOF 4
ENDMDL
