MODEL 1
REMARK VINA RESULT:       7.7      0.000      0.000
REMARK  9 active torsions:
REMARK  status: ('A' for Active; 'I' for Inactive)
REMARK    1  A    between atoms: C_14  and  N_1 
REMARK    2  A    between atoms: C_8  and  C_2 
REMARK    3  A    between atoms: C_3  and  N_11 
REMARK    4  A    between atoms: S_16  and  C_4 
REMARK    5  A    between atoms: C_10  and  C_8 
REMARK       I    between atoms: N_11  and  C_17 
REMARK    6  A    between atoms: C_23  and  C_14 
REMARK    7  A    between atoms: C_22  and  S_16 
REMARK    8  A    between atoms: C_17  and  C_22 
REMARK    9  A    between atoms: C_25  and  C_23 
ROOT
ATOM      1  N   UNL d   1     -41.422-122.563 -53.198  0.00  0.00    -0.268 N 
ATOM      2  C   UNL d   1     -41.645-122.647 -53.989  0.00  0.00     0.172 A 
ATOM      3  C   UNL d   1     -41.548-123.282 -52.815  0.00  0.00     0.201 A 
ATOM      4  N   UNL d   1     -41.909-123.417 -54.096  0.00  0.00    -0.128 NA
ATOM      5  N   UNL d   1     -41.853-123.815 -53.376  0.00  0.00    -0.121 NA
ENDROOT
BRANCH   3   6
ATOM      6  S   UNL d   1     -41.402-123.446 -52.026  0.00  0.00    -0.043 SA
BRANCH   6   7
ATOM      7  C   UNL d   1     -42.029-123.565 -51.503  0.00  0.00     0.101 C 
BRANCH   7   8
ATOM      8  C   UNL d   1     -41.903-123.513 -50.688  0.00  0.00     0.288 C 
ATOM      9  N   UNL d   1     -42.469-123.162 -50.210  0.00  0.00    -0.182 NA
ATOM     10  O   UNL d   1     -41.209-123.813 -50.358  0.00  0.00    -0.265 OA
BRANCH   9  11
ATOM     11  C   UNL d   1     -42.349-123.108 -49.402  0.00  0.00     0.197 A 
ATOM     12  N   UNL d   1     -41.732-122.704 -49.026  0.00  0.00    -0.221 NA
ATOM     13  C   UNL d   1     -41.825-122.794 -48.215  0.00  0.00     0.090 A 
ATOM     14  C   UNL d   1     -41.388-122.520 -47.579  0.00  0.00     0.020 A 
ATOM     15  C   UNL d   1     -42.498-123.254 -48.079  0.00  0.00     0.050 A 
ATOM     16  C   UNL d   1     -41.615-122.699 -46.807  0.00  0.00     0.002 A 
ATOM     17  C   UNL d   1     -42.290-123.161 -46.678  0.00  0.00     0.001 A 
ATOM     18  C   UNL d   1     -42.724-123.433 -47.306  0.00  0.00     0.008 A 
ATOM     19  S   UNL d   1     -42.832-123.455 -48.810  0.00  0.00    -0.047 SA
ENDBRANCH   9  11
ENDBRANCH   7   8
ENDBRANCH   6   7
ENDBRANCH   3   6
BRANCH   1  20
ATOM     20  C   UNL d   1     -41.123-121.875 -52.851  0.00  0.00     0.084 C 
BRANCH  20  21
ATOM     21  C   UNL d   1     -41.295-121.132 -53.190  0.00  0.00     0.019 C 
BRANCH  21  22
ATOM     22  C   UNL d   1     -41.255-120.446 -52.727  0.00  0.00     0.002 A 
ATOM     23  C   UNL d   1     -41.194-120.511 -51.913  0.00  0.00     0.000 A 
ATOM     24  C   UNL d   1     -41.154-119.825 -51.456  0.00  0.00     0.000 A 
ATOM     25  C   UNL d   1     -41.176-119.082 -51.823  0.00  0.00     0.000 A 
ATOM     26  C   UNL d   1     -41.238-119.024 -52.646  0.00  0.00     0.000 A 
ATOM     27  C   UNL d   1     -41.277-119.716 -53.093  0.00  0.00     0.000 A 
ENDBRANCH  21  22
ENDBRANCH  20  21
ENDBRANCH   1  20
BRANCH   2  28
ATOM     28  C   UNL d   1     -41.609-122.061 -54.571  0.00  0.00     0.057 C 
BRANCH  28  29
ATOM     29  C   UNL d   1     -42.211-121.991 -55.126  0.00  0.00     0.067 A 
ATOM     30  N   UNL d   1     -42.147-121.660 -55.880  0.00  0.00    -0.303 N 
ATOM     31  C   UNL d   1     -42.887-121.706 -56.245  0.00  0.00     0.080 A 
ATOM     32  C   UNL d   1     -41.462-121.341 -56.206  0.00  0.00     0.100 C 
ATOM     33  C   UNL d   1     -43.410-122.064 -55.722  0.00  0.00     0.021 A 
ATOM     34  C   UNL d   1     -42.998-122.242 -55.030  0.00  0.00     0.019 A 
ENDBRANCH  28  29
ENDBRANCH   2  28
TORSDOF 9
ENDMDL
