MODEL 1
REMARK VINA RESULT:      52.1      0.000      0.000
REMARK  3 active torsions:
REMARK  status: ('A' for Active; 'I' for Inactive)
REMARK    1  A    between atoms: C_11  and  N_2 
REMARK    2  A    between atoms: C_16  and  C_6 
REMARK    3  A    between atoms: C_12  and  C_11 
ROOT
ATOM      1  C   UNL d   1      45.491 -16.479  43.834  0.00  0.00     0.137 A 
ATOM      2  N   UNL d   1      45.218 -15.194  44.396  0.00  0.00    -0.256 N 
ATOM      3  C   UNL d   1      45.992 -16.130  43.272  0.00  0.00     0.192 A 
ATOM      4  C   UNL d   1      45.104 -16.010  44.396  0.00  0.00     0.272 A 
ATOM      5  N   UNL d   1      46.106 -15.316  43.271  0.00  0.00    -0.204 NA
ATOM      6  C   UNL d   1      45.718 -14.841  43.836  0.00  0.00     0.152 A 
ATOM      7  C   UNL d   1      45.379 -17.299  43.831  0.00  0.00     0.205 A 
ATOM      8  O   UNL d   1      46.374 -16.601  42.715  0.00  0.00    -0.289 OA
ATOM      9  C   UNL d   1      45.759 -17.763  43.279  0.00  0.00     0.062 A 
ATOM     10  C   UNL d   1      46.258 -17.420  42.718  0.00  0.00     0.105 A 
ATOM     11  O   UNL d   1      44.607 -16.362  44.953  0.00  0.00    -0.266 OA
ATOM     12  O   UNL d   1      44.881 -17.643  44.392  0.00  0.00    -0.286 OA
ATOM     13  C   UNL d   1      45.644 -18.586  43.279  0.00  0.00     0.005 A 
ATOM     14  C   UNL d   1      46.646 -17.896  42.153  0.00  0.00     0.025 A 
ATOM     15  C   UNL d   1      46.031 -19.054  42.718  0.00  0.00     0.000 A 
ATOM     16  C   UNL d   1      46.530 -18.710  42.156  0.00  0.00     0.002 A 
ENDROOT
BRANCH   2  17
ATOM     17  C   UNL d   1      44.834 -14.737  44.953  0.00  0.00     0.109 C 
BRANCH  17  18
ATOM     18  C   UNL d   1      44.016 -14.633  44.911  0.00  0.00     0.118 A 
ATOM     19  O   UNL d   1      43.630 -13.912  44.818  0.00  0.00    -0.304 OA
ATOM     20  C   UNL d   1      42.826 -14.061  44.804  0.00  0.00     0.123 A 
ATOM     21  C   UNL d   1      42.714 -14.874  44.888  0.00  0.00     0.029 A 
ATOM     22  C   UNL d   1      43.450 -15.222  44.954  0.00  0.00     0.028 A 
ENDBRANCH  17  18
ENDBRANCH   2  17
BRANCH   6  23
ATOM     23  C   UNL d   1      45.833 -14.022  43.834  0.00  0.00     0.035 A 
ATOM     24  C   UNL d   1      46.145 -13.642  44.496  0.00  0.00     0.003 A 
ATOM     25  C   UNL d   1      46.260 -12.829  44.493  0.00  0.00     0.000 A 
ATOM     26  C   UNL d   1      46.060 -12.390  43.821  0.00  0.00     0.000 A 
ATOM     27  C   UNL d   1      45.748 -12.770  43.159  0.00  0.00     0.000 A 
ATOM     28  C   UNL d   1      45.632 -13.585  43.158  0.00  0.00     0.003 A 
ENDBRANCH   6  23
TORSDOF 3
ENDMDL
