MODEL 1
REMARK VINA RESULT:      15.7      0.000      0.000
REMARK  2 active torsions:
REMARK  status: ('A' for Active; 'I' for Inactive)
REMARK    1  A    between atoms: C_10  and  N_1 
REMARK    2  A    between atoms: C_6  and  C_7 
ROOT
ATOM      1  N   UNL d   1      44.848 -15.694  36.667  0.00  0.00    -0.288 N 
ATOM      2  C   UNL d   1      45.007 -16.488  36.487  0.00  0.00     0.183 A 
ATOM      3  N   UNL d   1      44.282 -16.869  36.333  0.00  0.00    -0.224 NA
ATOM      4  C   UNL d   1      44.028 -15.584  36.625  0.00  0.00     0.083 A 
ATOM      5  C   UNL d   1      43.681 -16.304  36.420  0.00  0.00     0.099 A 
ATOM      6  C   UNL d   1      42.390 -15.693  36.461  0.00  0.00     0.066 A 
ATOM      7  C   UNL d   1      42.860 -16.357  36.339  0.00  0.00     0.027 A 
ATOM      8  C   UNL d   1      43.554 -14.917  36.748  0.00  0.00     0.019 A 
ATOM      9  C   UNL d   1      42.737 -14.973  36.666  0.00  0.00     0.008 A 
ENDROOT
BRANCH   1  10
ATOM     10  C   UNL d   1      45.402 -15.121  36.853  0.00  0.00     0.066 A 
ATOM     11  C   UNL d   1      45.272 -14.613  37.493  0.00  0.00     0.018 A 
ATOM     12  C   UNL d   1      45.821 -14.040  37.683  0.00  0.00     0.002 A 
ATOM     13  C   UNL d   1      46.518 -13.959  37.236  0.00  0.00     0.000 A 
ATOM     14  C   UNL d   1      46.647 -14.465  36.600  0.00  0.00     0.002 A 
ATOM     15  C   UNL d   1      46.089 -15.047  36.406  0.00  0.00     0.018 A 
ENDBRANCH   1  10
BRANCH   6  16
ATOM     16  C   UNL d   1      41.572 -15.748  36.379  0.00  0.00     0.211 C 
ATOM     17  O   UNL d   1      41.114 -15.062  36.342  0.00  0.00    -0.644 OA
ATOM     18  O   UNL d   1      41.206 -16.491  36.334  0.00  0.00    -0.644 OA
ENDBRANCH   6  16
TORSDOF 2
ENDMDL
MODEL 2
REMARK VINA RESULT:      15.9      7.722      8.241
REMARK  2 active torsions:
REMARK  status: ('A' for Active; 'I' for Inactive)
REMARK    1  A    between atoms: C_10  and  N_1 
REMARK    2  A    between atoms: C_6  and  C_7 
ROOT
ATOM      1  N   UNL d   1      45.058 -14.341  44.547  0.00  0.00    -0.288 N 
ATOM      2  C   UNL d   1      44.325 -14.514  44.896  0.00  0.00     0.183 A 
ATOM      3  N   UNL d   1      44.255 -15.342  44.955  0.00  0.00    -0.224 NA
ATOM      4  C   UNL d   1      45.440 -15.060  44.391  0.00  0.00     0.083 A 
ATOM      5  C   UNL d   1      44.948 -15.673  44.641  0.00  0.00     0.099 A 
ATOM      6  C   UNL d   1      45.922 -16.628  44.215  0.00  0.00     0.066 A 
ATOM      7  C   UNL d   1      45.191 -16.459  44.552  0.00  0.00     0.027 A 
ATOM      8  C   UNL d   1      46.175 -15.232  44.051  0.00  0.00     0.019 A 
ATOM      9  C   UNL d   1      46.414 -16.015  43.964  0.00  0.00     0.008 A 
ENDROOT
BRANCH   1  10
ATOM     10  C   UNL d   1      45.352 -13.595  44.385  0.00  0.00     0.066 A 
ATOM     11  C   UNL d   1      45.217 -13.249  43.647  0.00  0.00     0.018 A 
ATOM     12  C   UNL d   1      45.508 -12.505  43.480  0.00  0.00     0.002 A 
ATOM     13  C   UNL d   1      45.944 -12.085  44.051  0.00  0.00     0.000 A 
ATOM     14  C   UNL d   1      46.078 -12.430  44.786  0.00  0.00     0.002 A 
ATOM     15  C   UNL d   1      45.782 -13.187  44.955  0.00  0.00     0.018 A 
ENDBRANCH   1  10
BRANCH   6  16
ATOM     16  C   UNL d   1      46.162 -17.411  44.127  0.00  0.00     0.211 C 
ATOM     17  O   UNL d   1      46.160 -17.919  44.777  0.00  0.00    -0.644 OA
ATOM     18  O   UNL d   1      46.408 -17.692  43.385  0.00  0.00    -0.644 OA
ENDBRANCH   6  16
TORSDOF 2
ENDMDL
