MODEL 1
REMARK VINA RESULT:      -6.0      0.000      0.000
REMARK  7 active torsions:
REMARK  status: ('A' for Active; 'I' for Inactive)
REMARK    1  A    between atoms: C_3  and  N_1 
REMARK       I    between atoms: C_2  and  N_8 
REMARK    2  A    between atoms: O_16  and  C_2 
REMARK    3  A    between atoms: C_7  and  C_5 
REMARK    4  A    between atoms: C_12  and  C_7 
REMARK    5  A    between atoms: N_8  and  C_14 
REMARK    6  A    between atoms: S_11  and  C_12 
REMARK    7  A    between atoms: C_15  and  S_11 
ROOT
ATOM      1  S   UNL d   1     -41.536-122.071 -51.430  0.00  0.00    -0.083 SA
ENDROOT
BRANCH   1   2
ATOM      2  C   UNL d   1     -41.422-122.465 -52.142  0.00  0.00     0.077 C 
BRANCH   2   3
ATOM      3  C   UNL d   1     -41.327-122.036 -52.840  0.00  0.00     0.202 C 
ATOM      4  O   UNL d   1     -41.123-121.241 -52.810  0.00  0.00    -0.286 OA
BRANCH   3   5
ATOM      5  C   UNL d   1     -41.439-122.407 -53.569  0.00  0.00     0.041 A 
ATOM      6  C   UNL d   1     -41.739-121.984 -54.203  0.00  0.00     0.027 A 
ATOM      7  C   UNL d   1     -41.850-122.356 -54.930  0.00  0.00     0.127 A 
ATOM      8  C   UNL d   1     -41.659-123.158 -55.019  0.00  0.00     0.024 A 
ATOM      9  C   UNL d   1     -41.358-123.580 -54.378  0.00  0.00     0.002 A 
ATOM     10  C   UNL d   1     -41.248-123.209 -53.657  0.00  0.00     0.003 A 
BRANCH   7  11
ATOM     11  N   UNL d   1     -42.152-121.932 -55.572  0.00  0.00    -0.114 N 
ATOM     12  O   UNL d   1     -42.879-122.075 -55.938  0.00  0.00    -0.532 OA
ATOM     13  O   UNL d   1     -41.762-121.311 -55.926  0.00  0.00    -0.532 OA
ENDBRANCH   7  11
ENDBRANCH   3   5
ENDBRANCH   2   3
ENDBRANCH   1   2
BRANCH   1  14
ATOM     14  C   UNL d   1     -41.821-122.482 -50.771  0.00  0.00     0.030 A 
ATOM     15  C   UNL d   1     -41.380-123.103 -50.420  0.00  0.00     0.008 A 
ATOM     16  C   UNL d   1     -41.664-123.512 -49.763  0.00  0.00     0.020 A 
ATOM     17  C   UNL d   1     -42.396-123.312 -49.440  0.00  0.00     0.087 A 
ATOM     18  C   UNL d   1     -42.842-122.707 -49.770  0.00  0.00     0.020 A 
ATOM     19  C   UNL d   1     -42.558-122.297 -50.428  0.00  0.00     0.008 A 
BRANCH  17  20
ATOM     20  N   UNL d   1     -42.682-123.723 -48.780  0.00  0.00    -0.186 NA
ATOM     21  C   UNL d   1     -42.673-123.369 -48.039  0.00  0.00     0.388 C 
ATOM     22  O   UNL d   1     -42.380-122.602 -47.950  0.00  0.00    -0.236 OA
BRANCH  21  23
ATOM     23  O   UNL d   1     -42.957-123.779 -47.382  0.00  0.00    -0.281 OA
ATOM     24  C   UNL d   1     -42.529-123.770 -46.676  0.00  0.00     0.186 C 
ENDBRANCH  21  23
ENDBRANCH  17  20
ENDBRANCH   1  14
TORSDOF 7
ENDMDL
MODEL 2
REMARK VINA RESULT:      -4.0      1.003      5.859
REMARK  7 active torsions:
REMARK  status: ('A' for Active; 'I' for Inactive)
REMARK    1  A    between atoms: C_3  and  N_1 
REMARK       I    between atoms: C_2  and  N_8 
REMARK    2  A    between atoms: O_16  and  C_2 
REMARK    3  A    between atoms: C_7  and  C_5 
REMARK    4  A    between atoms: C_12  and  C_7 
REMARK    5  A    between atoms: N_8  and  C_14 
REMARK    6  A    between atoms: S_11  and  C_12 
REMARK    7  A    between atoms: C_15  and  S_11 
ROOT
ATOM      1  S   UNL d   1     -41.284-122.283 -51.191  0.00  0.00    -0.083 SA
ENDROOT
BRANCH   1   2
ATOM      2  C   UNL d   1     -41.754-122.738 -50.695  0.00  0.00     0.077 C 
BRANCH   2   3
ATOM      3  C   UNL d   1     -41.704-122.644 -49.877  0.00  0.00     0.202 C 
ATOM      4  O   UNL d   1     -41.123-122.162 -49.554  0.00  0.00    -0.286 OA
BRANCH   3   5
ATOM      5  C   UNL d   1     -42.239-123.036 -49.385  0.00  0.00     0.041 A 
ATOM      6  C   UNL d   1     -42.054-123.161 -48.597  0.00  0.00     0.027 A 
ATOM      7  C   UNL d   1     -42.589-123.552 -48.106  0.00  0.00     0.127 A 
ATOM      8  C   UNL d   1     -43.312-123.817 -48.411  0.00  0.00     0.024 A 
ATOM      9  C   UNL d   1     -43.494-123.690 -49.204  0.00  0.00     0.002 A 
ATOM     10  C   UNL d   1     -42.962-123.302 -49.690  0.00  0.00     0.003 A 
BRANCH   7  11
ATOM     11  N   UNL d   1     -42.406-123.679 -47.311  0.00  0.00    -0.114 N 
ATOM     12  O   UNL d   1     -41.647-123.817 -47.012  0.00  0.00    -0.532 OA
ATOM     13  O   UNL d   1     -42.962-123.686 -46.715  0.00  0.00    -0.532 OA
ENDBRANCH   7  11
ENDBRANCH   3   5
ENDBRANCH   2   3
ENDBRANCH   1   2
BRANCH   1  14
ATOM     14  C   UNL d   1     -41.338-122.374 -52.012  0.00  0.00     0.030 A 
ATOM     15  C   UNL d   1     -41.478-121.718 -52.514  0.00  0.00     0.008 A 
ATOM     16  C   UNL d   1     -41.532-121.809 -53.333  0.00  0.00     0.020 A 
ATOM     17  C   UNL d   1     -41.447-122.558 -53.669  0.00  0.00     0.087 A 
ATOM     18  C   UNL d   1     -41.309-123.211 -53.192  0.00  0.00     0.020 A 
ATOM     19  C   UNL d   1     -41.255-123.121 -52.374  0.00  0.00     0.008 A 
BRANCH  17  20
ATOM     20  N   UNL d   1     -41.501-122.649 -54.491  0.00  0.00    -0.186 NA
ATOM     21  C   UNL d   1     -42.130-122.316 -54.901  0.00  0.00     0.388 C 
ATOM     22  O   UNL d   1     -42.710-121.890 -54.495  0.00  0.00    -0.236 OA
BRANCH  21  23
ATOM     23  O   UNL d   1     -42.184-122.407 -55.719  0.00  0.00    -0.281 OA
ATOM     24  C   UNL d   1     -42.617-121.863 -56.164  0.00  0.00     0.186 C 
ENDBRANCH  21  23
ENDBRANCH  17  20
ENDBRANCH   1  14
TORSDOF 7
ENDMDL
