MODEL 1
REMARK VINA RESULT:      -3.6      0.000      0.000
REMARK  4 active torsions:
REMARK  status: ('A' for Active; 'I' for Inactive)
REMARK    1  A    between atoms: C_8  and  N_1 
REMARK    2  A    between atoms: C_6  and  C_3 
REMARK       I    between atoms: N_9  and  C_6 
REMARK    3  A    between atoms: C_13  and  N_9 
REMARK    4  A    between atoms: C_14  and  C_13 
ROOT
ATOM      1  N   UNL d   1      59.764  -1.204  29.228  0.00  0.00    -0.276 N 
ATOM      2  C   UNL d   1      58.978  -1.012  29.057  0.00  0.00     0.181 A 
ATOM      3  C   UNL d   1      58.849  -0.230  29.265  0.00  0.00     0.126 A 
ATOM      4  C   UNL d   1      60.121  -0.526  29.547  0.00  0.00     0.152 A 
ATOM      5  S   UNL d   1      59.556   0.077  29.570  0.00  0.00    -0.051 SA
ATOM      6  S   UNL d   1      60.910  -0.465  29.798  0.00  0.00    -0.052 SA
ATOM      7  N   UNL d   1      58.418  -1.525  28.731  0.00  0.00    -0.128 N 
ENDROOT
BRANCH   3   8
ATOM      8  C   UNL d   1      58.140   0.190  29.188  0.00  0.00     0.288 C 
ATOM      9  N   UNL d   1      57.658   0.307  29.847  0.00  0.00    -0.204 NA
ATOM     10  O   UNL d   1      57.911   0.491  28.456  0.00  0.00    -0.265 OA
BRANCH   9  11
ATOM     11  C   UNL d   1      57.885   0.006  30.587  0.00  0.00     0.127 C 
BRANCH  11  12
ATOM     12  C   UNL d   1      57.372   0.045  31.230  0.00  0.00     0.119 A 
ATOM     13  O   UNL d   1      56.813  -0.524  31.433  0.00  0.00    -0.304 OA
ATOM     14  C   UNL d   1      56.415  -0.269  32.116  0.00  0.00     0.123 A 
ATOM     15  C   UNL d   1      56.740   0.466  32.329  0.00  0.00     0.029 A 
ATOM     16  C   UNL d   1      57.328   0.659  31.784  0.00  0.00     0.028 A 
ENDBRANCH  11  12
ENDBRANCH   9  11
ENDBRANCH   3   8
BRANCH   1  17
ATOM     17  C   UNL d   1      60.133  -1.935  29.107  0.00  0.00     0.067 A 
ATOM     18  C   UNL d   1      60.758  -1.997  28.581  0.00  0.00     0.018 A 
ATOM     19  C   UNL d   1      61.128  -2.727  28.460  0.00  0.00     0.002 A 
ATOM     20  C   UNL d   1      60.863  -3.390  28.871  0.00  0.00     0.000 A 
ATOM     21  C   UNL d   1      60.224  -3.323  29.407  0.00  0.00     0.002 A 
ATOM     22  C   UNL d   1      59.866  -2.596  29.519  0.00  0.00     0.018 A 
ENDBRANCH   1  17
TORSDOF 4
ENDMDL
MODEL 2
REMARK VINA RESULT:      -3.4      0.804      1.186
REMARK  4 active torsions:
REMARK  status: ('A' for Active; 'I' for Inactive)
REMARK    1  A    between atoms: C_8  and  N_1 
REMARK    2  A    between atoms: C_6  and  C_3 
REMARK       I    between atoms: N_9  and  C_6 
REMARK    3  A    between atoms: C_13  and  N_9 
REMARK    4  A    between atoms: C_14  and  C_13 
ROOT
ATOM      1  N   UNL d   1      59.455  -0.503  29.637  0.00  0.00    -0.276 N 
ATOM      2  C   UNL d   1      58.644  -0.492  29.477  0.00  0.00     0.181 A 
ATOM      3  C   UNL d   1      58.306   0.131  29.890  0.00  0.00     0.126 A 
ATOM      4  C   UNL d   1      59.615   0.125  30.156  0.00  0.00     0.152 A 
ATOM      5  S   UNL d   1      58.904   0.517  30.313  0.00  0.00    -0.051 SA
ATOM      6  S   UNL d   1      60.360   0.323  30.465  0.00  0.00    -0.052 SA
ATOM      7  N   UNL d   1      58.243  -1.020  28.985  0.00  0.00    -0.128 N 
ENDROOT
BRANCH   3   8
ATOM      8  C   UNL d   1      57.506   0.345  29.889  0.00  0.00     0.288 C 
ATOM      9  N   UNL d   1      57.048   0.226  30.565  0.00  0.00    -0.204 NA
ATOM     10  O   UNL d   1      57.164   0.678  29.217  0.00  0.00    -0.265 OA
BRANCH   9  11
ATOM     11  C   UNL d   1      57.389  -0.109  31.244  0.00  0.00     0.127 C 
BRANCH  11  12
ATOM     12  C   UNL d   1      56.914  -0.411  31.845  0.00  0.00     0.119 A 
ATOM     13  O   UNL d   1      56.487  -1.114  31.811  0.00  0.00    -0.304 OA
ATOM     14  C   UNL d   1      56.085  -1.213  32.531  0.00  0.00     0.123 A 
ATOM     15  C   UNL d   1      56.274  -0.557  33.008  0.00  0.00     0.029 A 
ATOM     16  C   UNL d   1      56.783  -0.065  32.585  0.00  0.00     0.028 A 
ENDBRANCH  11  12
ENDBRANCH   9  11
ENDBRANCH   3   8
BRANCH   1  17
ATOM     17  C   UNL d   1      60.012  -1.038  29.338  0.00  0.00     0.067 A 
ATOM     18  C   UNL d   1      60.032  -1.807  29.618  0.00  0.00     0.018 A 
ATOM     19  C   UNL d   1      60.588  -2.343  29.319  0.00  0.00     0.002 A 
ATOM     20  C   UNL d   1      61.120  -2.096  28.740  0.00  0.00     0.000 A 
ATOM     21  C   UNL d   1      61.095  -1.309  28.457  0.00  0.00     0.002 A 
ATOM     22  C   UNL d   1      60.541  -0.789  28.759  0.00  0.00     0.018 A 
ENDBRANCH   1  17
TORSDOF 4
ENDMDL
MODEL 3
REMARK VINA RESULT:      -1.4      1.510      4.444
REMARK  4 active torsions:
REMARK  status: ('A' for Active; 'I' for Inactive)
REMARK    1  A    between atoms: C_8  and  N_1 
REMARK    2  A    between atoms: C_6  and  C_3 
REMARK       I    between atoms: N_9  and  C_6 
REMARK    3  A    between atoms: C_13  and  N_9 
REMARK    4  A    between atoms: C_14  and  C_13 
ROOT
ATOM      1  N   UNL d   1      57.158   0.166  31.856  0.00  0.00    -0.276 N 
ATOM      2  C   UNL d   1      57.069   0.079  31.039  0.00  0.00     0.181 A 
ATOM      3  C   UNL d   1      57.751   0.350  30.672  0.00  0.00     0.126 A 
ATOM      4  C   UNL d   1      57.908   0.497  31.991  0.00  0.00     0.152 A 
ATOM      5  S   UNL d   1      58.275   0.610  31.258  0.00  0.00    -0.051 SA
ATOM      6  S   UNL d   1      58.233   0.680  32.733  0.00  0.00    -0.052 SA
ATOM      7  N   UNL d   1      56.404  -0.229  30.658  0.00  0.00    -0.128 N 
ENDROOT
BRANCH   3   8
ATOM      8  C   UNL d   1      57.898   0.365  29.858  0.00  0.00     0.288 C 
ATOM      9  N   UNL d   1      58.606   0.061  29.562  0.00  0.00    -0.204 NA
ATOM     10  O   UNL d   1      57.342   0.682  29.338  0.00  0.00    -0.265 OA
BRANCH   9  11
ATOM     11  C   UNL d   1      59.170  -0.259  30.081  0.00  0.00     0.127 C 
BRANCH  11  12
ATOM     12  C   UNL d   1      59.847  -0.625  29.790  0.00  0.00     0.119 A 
ATOM     13  O   UNL d   1      60.616  -0.489  30.051  0.00  0.00    -0.304 OA
ATOM     14  C   UNL d   1      61.132  -0.970  29.612  0.00  0.00     0.123 A 
ATOM     15  C   UNL d   1      60.665  -1.405  29.078  0.00  0.00     0.029 A 
ATOM     16  C   UNL d   1      59.876  -1.192  29.188  0.00  0.00     0.028 A 
ENDBRANCH  11  12
ENDBRANCH   9  11
ENDBRANCH   3   8
BRANCH   1  17
ATOM     17  C   UNL d   1      56.606  -0.036  32.440  0.00  0.00     0.067 A 
ATOM     18  C   UNL d   1      56.123   0.540  32.764  0.00  0.00     0.018 A 
ATOM     19  C   UNL d   1      55.572   0.339  33.347  0.00  0.00     0.002 A 
ATOM     20  C   UNL d   1      55.512  -0.444  33.598  0.00  0.00     0.000 A 
ATOM     21  C   UNL d   1      56.008  -1.029  33.263  0.00  0.00     0.002 A 
ATOM     22  C   UNL d   1      56.550  -0.819  32.688  0.00  0.00     0.018 A 
ENDBRANCH   1  17
TORSDOF 4
ENDMDL
