MODEL 1
REMARK VINA RESULT:      -2.0      0.000      0.000
REMARK  4 active torsions:
REMARK  status: ('A' for Active; 'I' for Inactive)
REMARK    1  A    between atoms: S_10  and  C_3 
REMARK    2  A    between atoms: C_11  and  C_7 
REMARK    3  A    between atoms: C_13  and  S_10 
REMARK    4  A    between atoms: C_14  and  C_13 
ROOT
ATOM      1  N   UNL d   1     -41.454-121.917 -51.781  0.00  0.00    -0.186 N 
ATOM      2  N   UNL d   1     -41.603-122.410 -52.415  0.00  0.00    -0.162 NA
ATOM      3  C   UNL d   1     -41.478-122.048 -50.963  0.00  0.00     0.217 A 
ATOM      4  C   UNL d   1     -41.234-121.132 -51.898  0.00  0.00     0.187 A 
ATOM      5  N   UNL d   1     -41.274-121.346 -50.594  0.00  0.00    -0.120 NA
ATOM      6  N   UNL d   1     -41.123-120.778 -51.171  0.00  0.00    -0.127 NA
ATOM      7  C   UNL d   1     -41.531-122.114 -53.185  0.00  0.00     0.102 A 
ATOM      8  C   UNL d   1     -41.164-120.837 -52.672  0.00  0.00     0.042 A 
ATOM      9  C   UNL d   1     -41.311-121.326 -53.309  0.00  0.00     0.024 A 
ENDROOT
BRANCH   3  10
ATOM     10  S   UNL d   1     -41.669-122.749 -50.572  0.00  0.00    -0.046 SA
BRANCH  10  11
ATOM     11  C   UNL d   1     -41.331-122.927 -49.853  0.00  0.00     0.038 C 
BRANCH  11  12
ATOM     12  C   UNL d   1     -41.799-123.151 -49.223  0.00  0.00     0.007 A 
ATOM     13  C   UNL d   1     -41.582-122.949 -48.452  0.00  0.00     0.001 A 
ATOM     14  C   UNL d   1     -42.055-123.175 -47.809  0.00  0.00     0.000 A 
ATOM     15  C   UNL d   1     -42.744-123.601 -47.929  0.00  0.00     0.000 A 
ATOM     16  C   UNL d   1     -42.969-123.807 -48.702  0.00  0.00     0.000 A 
ATOM     17  C   UNL d   1     -43.202-123.817 -47.278  0.00  0.00     0.000 C 
ATOM     18  C   UNL d   1     -42.495-123.581 -49.339  0.00  0.00     0.001 A 
ENDBRANCH  11  12
ENDBRANCH  10  11
ENDBRANCH   3  10
BRANCH   7  19
ATOM     19  C   UNL d   1     -41.680-122.606 -53.830  0.00  0.00     0.022 A 
ATOM     20  C   UNL d   1     -41.280-123.323 -53.903  0.00  0.00     0.022 A 
ATOM     21  C   UNL d   1     -41.425-123.817 -54.544  0.00  0.00     0.099 A 
ATOM     22  N   UNL d   1     -41.969-123.595 -55.112  0.00  0.00    -0.242 NA
ATOM     23  C   UNL d   1     -42.383-122.860 -55.043  0.00  0.00     0.099 A 
ATOM     24  C   UNL d   1     -42.223-122.382 -54.395  0.00  0.00     0.022 A 
ENDBRANCH   7  19
TORSDOF 4
ENDMDL
