MODEL 1
REMARK VINA RESULT:      -8.0      0.000      0.000
REMARK  3 active torsions:
REMARK  status: ('A' for Active; 'I' for Inactive)
REMARK    1  A    between atoms: C_9  and  N_1 
REMARK       I    between atoms: C_8  and  N_2 
REMARK    2  A    between atoms: C_3  and  C_9 
REMARK    3  A    between atoms: C_13  and  C_8 
ROOT
ATOM      1  N   UNL d   1      53.274  30.863  53.718  0.00  0.00    -0.194 N 
ATOM      2  C   UNL d   1      53.410  32.183  53.549  0.00  0.00     0.055 A 
ATOM      3  N   UNL d   1      53.619  31.183  54.412  0.00  0.00    -0.163 NA
ATOM      4  C   UNL d   1      53.151  31.483  53.199  0.00  0.00     0.089 A 
ATOM      5  C   UNL d   1      53.097  30.070  53.597  0.00  0.00     0.286 C 
ATOM      6  C   UNL d   1      53.698  31.999  54.297  0.00  0.00     0.104 A 
ATOM      7  O   UNL d   1      52.754  29.839  52.874  0.00  0.00    -0.265 OA
ATOM      8  C   UNL d   1      52.819  31.409  52.444  0.00  0.00     0.021 C 
ATOM      9  C   UNL d   1      54.015  32.532  54.846  0.00  0.00     0.023 C 
ENDROOT
BRANCH   2  10
ATOM     10  C   UNL d   1      53.382  32.940  53.203  0.00  0.00     0.089 C 
BRANCH  10  11
ATOM     11  N   UNL d   1      52.671  33.361  53.180  0.00  0.00    -0.240 N 
ATOM     12  C   UNL d   1      52.136  33.363  52.561  0.00  0.00     0.267 A 
ATOM     13  C   UNL d   1      51.509  33.858  52.779  0.00  0.00     0.061 A 
ATOM     14  O   UNL d   1      52.209  32.947  51.851  0.00  0.00    -0.267 OA
ATOM     15  C   UNL d   1      50.821  34.069  52.381  0.00  0.00     0.005 A 
ATOM     16  C   UNL d   1      51.659  34.158  53.525  0.00  0.00     0.061 A 
ATOM     17  C   UNL d   1      50.281  34.581  52.733  0.00  0.00     0.000 A 
ATOM     18  C   UNL d   1      50.431  34.884  53.486  0.00  0.00     0.000 A 
ATOM     19  C   UNL d   1      51.120  34.673  53.884  0.00  0.00     0.005 A 
ATOM     20  C   UNL d   1      52.382  33.852  53.783  0.00  0.00     0.267 A 
ATOM     21  O   UNL d   1      52.747  34.010  54.510  0.00  0.00    -0.267 OA
ENDBRANCH  10  11
ENDBRANCH   2  10
BRANCH   5  22
ATOM     22  C   UNL d   1      53.260  29.516  54.185  0.00  0.00     0.087 A 
ATOM     23  S   UNL d   1      53.867  28.957  54.167  0.00  0.00    -0.082 SA
ATOM     24  C   UNL d   1      53.826  28.521  54.866  0.00  0.00     0.036 A 
ATOM     25  C   UNL d   1      53.204  28.804  55.311  0.00  0.00     0.008 A 
ATOM     26  C   UNL d   1      52.849  29.425  54.890  0.00  0.00     0.012 A 
ENDBRANCH   5  22
TORSDOF 3
ENDMDL
MODEL 2
REMARK VINA RESULT:      -7.2      1.827      4.551
REMARK  3 active torsions:
REMARK  status: ('A' for Active; 'I' for Inactive)
REMARK    1  A    between atoms: C_9  and  N_1 
REMARK       I    between atoms: C_8  and  N_2 
REMARK    2  A    between atoms: C_3  and  C_9 
REMARK    3  A    between atoms: C_13  and  C_8 
ROOT
ATOM      1  N   UNL d   1      53.339  33.310  53.672  0.00  0.00    -0.194 N 
ATOM      2  C   UNL d   1      52.983  32.177  53.058  0.00  0.00     0.055 A 
ATOM      3  N   UNL d   1      52.515  33.341  53.518  0.00  0.00    -0.163 NA
ATOM      4  C   UNL d   1      53.613  32.594  53.387  0.00  0.00     0.089 A 
ATOM      5  C   UNL d   1      53.776  33.899  54.043  0.00  0.00     0.286 C 
ATOM      6  C   UNL d   1      52.306  32.636  53.139  0.00  0.00     0.104 A 
ATOM      7  O   UNL d   1      54.594  33.783  54.155  0.00  0.00    -0.265 OA
ATOM      8  C   UNL d   1      54.399  32.340  53.426  0.00  0.00     0.021 C 
ATOM      9  C   UNL d   1      51.543  32.436  52.887  0.00  0.00     0.023 C 
ENDROOT
BRANCH   2  10
ATOM     10  C   UNL d   1      53.029  31.422  52.708  0.00  0.00     0.089 C 
BRANCH  10  11
ATOM     11  N   UNL d   1      53.080  30.746  53.181  0.00  0.00    -0.240 N 
ATOM     12  C   UNL d   1      53.768  30.347  53.372  0.00  0.00     0.267 A 
ATOM     13  C   UNL d   1      53.556  29.708  53.854  0.00  0.00     0.061 A 
ATOM     14  O   UNL d   1      54.531  30.546  53.128  0.00  0.00    -0.267 OA
ATOM     15  C   UNL d   1      54.011  29.122  54.209  0.00  0.00     0.005 A 
ATOM     16  C   UNL d   1      52.745  29.715  53.958  0.00  0.00     0.061 A 
ATOM     17  C   UNL d   1      53.651  28.542  54.669  0.00  0.00     0.000 A 
ATOM     18  C   UNL d   1      52.833  28.548  54.775  0.00  0.00     0.000 A 
ATOM     19  C   UNL d   1      52.377  29.135  54.419  0.00  0.00     0.005 A 
ATOM     20  C   UNL d   1      52.439  30.360  53.541  0.00  0.00     0.267 A 
ATOM     21  O   UNL d   1      51.642  30.577  53.493  0.00  0.00    -0.267 OA
ENDBRANCH  10  11
ENDBRANCH   2  10
BRANCH   5  22
ATOM     22  C   UNL d   1      53.406  34.590  54.297  0.00  0.00     0.087 A 
ATOM     23  S   UNL d   1      53.169  34.754  55.070  0.00  0.00    -0.082 SA
ATOM     24  C   UNL d   1      52.825  35.503  55.073  0.00  0.00     0.036 A 
ATOM     25  C   UNL d   1      52.848  35.800  54.314  0.00  0.00     0.008 A 
ATOM     26  C   UNL d   1      53.210  35.233  53.827  0.00  0.00     0.012 A 
ENDBRANCH   5  22
TORSDOF 3
ENDMDL
MODEL 3
REMARK VINA RESULT:      -6.6      2.175      4.868
REMARK  3 active torsions:
REMARK  status: ('A' for Active; 'I' for Inactive)
REMARK    1  A    between atoms: C_9  and  N_1 
REMARK       I    between atoms: C_8  and  N_2 
REMARK    2  A    between atoms: C_3  and  C_9 
REMARK    3  A    between atoms: C_13  and  C_8 
ROOT
ATOM      1  N   UNL d   1      50.626  34.664  52.773  0.00  0.00    -0.194 N 
ATOM      2  C   UNL d   1      51.934  34.413  52.889  0.00  0.00     0.055 A 
ATOM      3  N   UNL d   1      50.922  35.105  53.422  0.00  0.00    -0.163 NA
ATOM      4  C   UNL d   1      51.253  34.246  52.456  0.00  0.00     0.089 A 
ATOM      5  C   UNL d   1      49.845  34.664  52.516  0.00  0.00     0.286 C 
ATOM      6  C   UNL d   1      51.731  34.942  53.485  0.00  0.00     0.104 A 
ATOM      7  O   UNL d   1      49.638  34.194  51.860  0.00  0.00    -0.265 OA
ATOM      8  C   UNL d   1      51.201  33.738  51.805  0.00  0.00     0.021 C 
ATOM      9  C   UNL d   1      52.242  35.262  54.053  0.00  0.00     0.023 C 
ENDROOT
BRANCH   2  10
ATOM     10  C   UNL d   1      52.692  34.098  52.745  0.00  0.00     0.089 C 
BRANCH  10  11
ATOM     11  N   UNL d   1      52.938  33.411  53.134  0.00  0.00    -0.240 N 
ATOM     12  C   UNL d   1      53.345  33.382  53.843  0.00  0.00     0.267 A 
ATOM     13  C   UNL d   1      53.473  32.584  54.021  0.00  0.00     0.061 A 
ATOM     14  O   UNL d   1      53.582  34.030  54.296  0.00  0.00    -0.267 OA
ATOM     15  C   UNL d   1      53.850  32.224  54.657  0.00  0.00     0.005 A 
ATOM     16  C   UNL d   1      53.148  32.127  53.426  0.00  0.00     0.061 A 
ATOM     17  C   UNL d   1      53.900  31.403  54.696  0.00  0.00     0.000 A 
ATOM     18  C   UNL d   1      53.572  30.940  54.097  0.00  0.00     0.000 A 
ATOM     19  C   UNL d   1      53.195  31.301  53.459  0.00  0.00     0.005 A 
ATOM     20  C   UNL d   1      52.811  32.635  52.868  0.00  0.00     0.267 A 
ATOM     21  O   UNL d   1      52.421  32.408  52.174  0.00  0.00    -0.267 OA
ENDBRANCH  10  11
ENDBRANCH   2  10
BRANCH   5  22
ATOM     22  C   UNL d   1      49.282  35.123  52.904  0.00  0.00     0.087 A 
ATOM     23  S   UNL d   1      48.753  35.644  52.544  0.00  0.00    -0.082 SA
ATOM     24  C   UNL d   1      48.293  35.984  53.139  0.00  0.00     0.036 A 
ATOM     25  C   UNL d   1      48.533  35.679  53.856  0.00  0.00     0.008 A 
ATOM     26  C   UNL d   1      49.149  35.142  53.714  0.00  0.00     0.012 A 
ENDBRANCH   5  22
TORSDOF 3
ENDMDL
