MODEL 1
REMARK VINA RESULT:      -7.0      0.000      0.000
REMARK  6 active torsions:
REMARK  status: ('A' for Active; 'I' for Inactive)
REMARK    1  A    between atoms: C_7  and  C_4 
REMARK    2  A    between atoms: O_17  and  C_6 
REMARK    3  A    between atoms: C_8  and  C_7 
REMARK    4  A    between atoms: C_12  and  C_8 
REMARK    5  A    between atoms: O_21  and  C_11 
REMARK    6  A    between atoms: O_22  and  C_18 
ROOT
ATOM      1  C   UNL d   1     -48.912  12.430  22.608  0.00  0.00     0.090 A 
ATOM      2  C   UNL d   1     -48.548  11.816  23.014  0.00  0.00     0.302 A 
ATOM      3  O   UNL d   1     -47.778  11.996  22.987  0.00  0.00    -0.273 OA
ATOM      4  C   UNL d   1     -47.659  12.668  22.598  0.00  0.00     0.107 A 
ATOM      5  C   UNL d   1     -48.366  12.957  22.350  0.00  0.00     0.030 A 
ATOM      6  C   UNL d   1     -49.733  12.559  22.444  0.00  0.00     0.121 A 
ATOM      7  C   UNL d   1     -48.590  13.622  21.929  0.00  0.00     0.004 A 
ATOM      8  O   UNL d   1     -48.924  11.139  23.378  0.00  0.00    -0.259 OA
ATOM      9  C   UNL d   1     -49.949  13.236  22.016  0.00  0.00     0.117 A 
ATOM     10  C   UNL d   1     -49.390  13.748  21.769  0.00  0.00     0.026 A 
ENDROOT
BRANCH   4  11
ATOM     11  C   UNL d   1     -46.912  13.030  22.461  0.00  0.00     0.067 C 
BRANCH  11  12
ATOM     12  C   UNL d   1     -46.205  12.828  22.844  0.00  0.00     0.198 C 
ATOM     13  O   UNL d   1     -46.281  12.691  23.697  0.00  0.00    -0.286 OA
BRANCH  12  14
ATOM     14  C   UNL d   1     -45.522  12.759  22.509  0.00  0.00     0.039 A 
ATOM     15  C   UNL d   1     -45.032  12.189  22.763  0.00  0.00     0.005 A 
ATOM     16  C   UNL d   1     -44.283  12.112  22.396  0.00  0.00     0.024 A 
ATOM     17  C   UNL d   1     -43.993  12.598  21.763  0.00  0.00     0.094 A 
ATOM     18  C   UNL d   1     -44.545  13.191  21.524  0.00  0.00     0.024 A 
ATOM     19  C   UNL d   1     -45.238  13.233  21.891  0.00  0.00     0.005 A 
BRANCH  17  20
ATOM     20  O   UNL d   1     -43.259  12.507  21.419  0.00  0.00    -0.328 OA
ATOM     21  C   UNL d   1     -42.631  13.228  21.291  0.00  0.00     0.181 C 
ENDBRANCH  17  20
ENDBRANCH  12  14
ENDBRANCH  11  12
ENDBRANCH   4  11
BRANCH   6  22
ATOM     22  O   UNL d   1     -50.311  12.045  22.691  0.00  0.00    -0.326 OA
ATOM     23  C   UNL d   1     -50.841  12.274  23.230  0.00  0.00     0.181 C 
ENDBRANCH   6  22
BRANCH   9  24
ATOM     24  O   UNL d   1     -50.734  13.414  21.827  0.00  0.00    -0.326 OA
ATOM     25  C   UNL d   1     -50.930  14.122  21.492  0.00  0.00     0.181 C 
ENDBRANCH   9  24
TORSDOF 6
ENDMDL
MODEL 2
REMARK VINA RESULT:      -6.1      1.346      1.989
REMARK  6 active torsions:
REMARK  status: ('A' for Active; 'I' for Inactive)
REMARK    1  A    between atoms: C_7  and  C_4 
REMARK    2  A    between atoms: O_17  and  C_6 
REMARK    3  A    between atoms: C_8  and  C_7 
REMARK    4  A    between atoms: C_12  and  C_8 
REMARK    5  A    between atoms: O_21  and  C_11 
REMARK    6  A    between atoms: O_22  and  C_18 
ROOT
ATOM      1  C   UNL d   1     -49.603  13.316  22.424  0.00  0.00     0.090 A 
ATOM      2  C   UNL d   1     -49.424  12.633  22.004  0.00  0.00     0.302 A 
ATOM      3  O   UNL d   1     -48.696  12.439  22.251  0.00  0.00    -0.273 OA
ATOM      4  C   UNL d   1     -48.433  12.954  22.783  0.00  0.00     0.107 A 
ATOM      5  C   UNL d   1     -48.994  13.516  22.905  0.00  0.00     0.030 A 
ATOM      6  C   UNL d   1     -50.302  13.793  22.407  0.00  0.00     0.121 A 
ATOM      7  C   UNL d   1     -49.036  14.179  23.384  0.00  0.00     0.004 A 
ATOM      8  O   UNL d   1     -49.916  12.230  21.433  0.00  0.00    -0.259 OA
ATOM      9  C   UNL d   1     -50.334  14.463  22.896  0.00  0.00     0.117 A 
ATOM     10  C   UNL d   1     -49.717  14.645  23.368  0.00  0.00     0.026 A 
ENDROOT
BRANCH   4  11
ATOM     11  C   UNL d   1     -47.684  12.924  23.165  0.00  0.00     0.067 C 
BRANCH  11  12
ATOM     12  C   UNL d   1     -46.950  12.913  22.780  0.00  0.00     0.198 C 
ATOM     13  O   UNL d   1     -46.870  13.488  22.135  0.00  0.00    -0.286 OA
BRANCH  12  14
ATOM     14  C   UNL d   1     -46.366  12.450  22.949  0.00  0.00     0.039 A 
ATOM     15  C   UNL d   1     -45.675  12.560  22.575  0.00  0.00     0.005 A 
ATOM     16  C   UNL d   1     -45.035  12.054  22.760  0.00  0.00     0.024 A 
ATOM     17  C   UNL d   1     -45.057  11.419  23.323  0.00  0.00     0.094 A 
ATOM     18  C   UNL d   1     -45.810  11.337  23.697  0.00  0.00     0.024 A 
ATOM     19  C   UNL d   1     -46.387  11.830  23.499  0.00  0.00     0.005 A 
BRANCH  17  20
ATOM     20  O   UNL d   1     -44.421  10.936  23.489  0.00  0.00    -0.328 OA
ATOM     21  C   UNL d   1     -44.485   9.978  23.593  0.00  0.00     0.181 C 
ENDBRANCH  17  20
ENDBRANCH  12  14
ENDBRANCH  11  12
ENDBRANCH   4  11
BRANCH   6  22
ATOM     22  O   UNL d   1     -50.936  13.618  21.932  0.00  0.00    -0.326 OA
ATOM     23  C   UNL d   1     -51.062  14.035  21.272  0.00  0.00     0.181 C 
ENDBRANCH   6  22
BRANCH   9  24
ATOM     24  O   UNL d   1     -50.990  14.966  22.923  0.00  0.00    -0.326 OA
ATOM     25  C   UNL d   1     -51.049  15.543  23.484  0.00  0.00     0.181 C 
ENDBRANCH   9  24
TORSDOF 6
ENDMDL
MODEL 3
REMARK VINA RESULT:      -4.6      8.587      9.573
REMARK  6 active torsions:
REMARK  status: ('A' for Active; 'I' for Inactive)
REMARK    1  A    between atoms: C_7  and  C_4 
REMARK    2  A    between atoms: O_17  and  C_6 
REMARK    3  A    between atoms: C_8  and  C_7 
REMARK    4  A    between atoms: C_12  and  C_8 
REMARK    5  A    between atoms: O_21  and  C_11 
REMARK    6  A    between atoms: O_22  and  C_18 
ROOT
ATOM      1  C   UNL d   1     -39.318  15.314  17.962  0.00  0.00     0.090 A 
ATOM      2  C   UNL d   1     -38.544  15.073  18.100  0.00  0.00     0.302 A 
ATOM      3  O   UNL d   1     -38.466  15.118  18.887  0.00  0.00    -0.273 OA
ATOM      4  C   UNL d   1     -39.132  15.367  19.223  0.00  0.00     0.107 A 
ATOM      5  C   UNL d   1     -39.682  15.495  18.652  0.00  0.00     0.030 A 
ATOM      6  C   UNL d   1     -39.738  15.386  17.231  0.00  0.00     0.121 A 
ATOM      7  C   UNL d   1     -40.460  15.751  18.662  0.00  0.00     0.004 A 
ATOM      8  O   UNL d   1     -37.964  14.831  17.521  0.00  0.00    -0.259 OA
ATOM      9  C   UNL d   1     -40.526  15.646  17.252  0.00  0.00     0.117 A 
ATOM     10  C   UNL d   1     -40.870  15.821  17.950  0.00  0.00     0.026 A 
ENDROOT
BRANCH   4  11
ATOM     11  C   UNL d   1     -39.252  15.480  20.048  0.00  0.00     0.067 C 
BRANCH  11  12
ATOM     12  C   UNL d   1     -38.655  15.481  20.623  0.00  0.00     0.198 C 
ATOM     13  O   UNL d   1     -37.941  15.921  20.404  0.00  0.00    -0.286 OA
BRANCH  12  14
ATOM     14  C   UNL d   1     -38.693  15.134  21.303  0.00  0.00     0.039 A 
ATOM     15  C   UNL d   1     -38.268  15.431  21.903  0.00  0.00     0.005 A 
ATOM     16  C   UNL d   1     -38.309  15.052  22.648  0.00  0.00     0.024 A 
ATOM     17  C   UNL d   1     -38.773  14.364  22.826  0.00  0.00     0.094 A 
ATOM     18  C   UNL d   1     -39.209  14.081  22.160  0.00  0.00     0.024 A 
ATOM     19  C   UNL d   1     -39.147  14.462  21.476  0.00  0.00     0.005 A 
BRANCH  17  20
ATOM     20  O   UNL d   1     -38.799  14.010  23.560  0.00  0.00    -0.328 OA
ATOM     21  C   UNL d   1     -38.778  13.055  23.698  0.00  0.00     0.181 C 
ENDBRANCH  17  20
ENDBRANCH  12  14
ENDBRANCH  11  12
ENDBRANCH   4  11
BRANCH   6  22
ATOM     22  O   UNL d   1     -39.399  15.211  16.515  0.00  0.00    -0.326 OA
ATOM     23  C   UNL d   1     -39.003  15.768  16.117  0.00  0.00     0.181 C 
ENDBRANCH   6  22
BRANCH   9  24
ATOM     24  O   UNL d   1     -40.987  15.736  16.571  0.00  0.00    -0.326 OA
ATOM     25  C   UNL d   1     -41.792  15.763  16.615  0.00  0.00     0.181 C 
ENDBRANCH   9  24
TORSDOF 6
ENDMDL
MODEL 4
REMARK VINA RESULT:      -4.5      1.715      3.126
REMARK  6 active torsions:
REMARK  status: ('A' for Active; 'I' for Inactive)
REMARK    1  A    between atoms: C_7  and  C_4 
REMARK    2  A    between atoms: O_17  and  C_6 
REMARK    3  A    between atoms: C_8  and  C_7 
REMARK    4  A    between atoms: C_12  and  C_8 
REMARK    5  A    between atoms: O_21  and  C_11 
REMARK    6  A    between atoms: O_22  and  C_18 
ROOT
ATOM      1  C   UNL d   1     -45.844  12.483  22.900  0.00  0.00     0.090 A 
ATOM      2  C   UNL d   1     -45.380  11.823  23.057  0.00  0.00     0.302 A 
ATOM      3  O   UNL d   1     -44.722  11.944  22.634  0.00  0.00    -0.273 OA
ATOM      4  C   UNL d   1     -44.761  12.624  22.240  0.00  0.00     0.107 A 
ATOM      5  C   UNL d   1     -45.464  12.979  22.397  0.00  0.00     0.030 A 
ATOM      6  C   UNL d   1     -46.615  12.683  23.188  0.00  0.00     0.121 A 
ATOM      7  C   UNL d   1     -45.812  13.679  22.155  0.00  0.00     0.004 A 
ATOM      8  O   UNL d   1     -45.573  11.161  23.563  0.00  0.00    -0.259 OA
ATOM      9  C   UNL d   1     -46.958  13.395  22.936  0.00  0.00     0.117 A 
ATOM     10  C   UNL d   1     -46.563  13.874  22.435  0.00  0.00     0.026 A 
ENDROOT
BRANCH   4  11
ATOM     11  C   UNL d   1     -44.163  12.933  21.735  0.00  0.00     0.067 C 
BRANCH  11  12
ATOM     12  C   UNL d   1     -43.389  12.643  21.677  0.00  0.00     0.198 C 
ATOM     13  O   UNL d   1     -43.280  11.837  21.979  0.00  0.00    -0.286 OA
BRANCH  12  14
ATOM     14  C   UNL d   1     -42.793  13.023  21.387  0.00  0.00     0.039 A 
ATOM     15  C   UNL d   1     -42.817  13.239  20.624  0.00  0.00     0.005 A 
ATOM     16  C   UNL d   1     -42.164  13.656  20.306  0.00  0.00     0.024 A 
ATOM     17  C   UNL d   1     -41.464  13.874  20.733  0.00  0.00     0.094 A 
ATOM     18  C   UNL d   1     -41.480  13.626  21.540  0.00  0.00     0.024 A 
ATOM     19  C   UNL d   1     -42.109  13.236  21.804  0.00  0.00     0.005 A 
BRANCH  17  20
ATOM     20  O   UNL d   1     -40.838  14.281  20.403  0.00  0.00    -0.328 OA
ATOM     21  C   UNL d   1     -40.787  15.244  20.358  0.00  0.00     0.181 C 
ENDBRANCH  17  20
ENDBRANCH  12  14
ENDBRANCH  11  12
ENDBRANCH   4  11
BRANCH   6  22
ATOM     22  O   UNL d   1     -47.026  12.204  23.698  0.00  0.00    -0.326 OA
ATOM     23  C   UNL d   1     -47.677  11.830  23.451  0.00  0.00     0.181 C 
ENDBRANCH   6  22
BRANCH   9  24
ATOM     24  O   UNL d   1     -47.708  13.643  23.183  0.00  0.00    -0.326 OA
ATOM     25  C   UNL d   1     -48.064  14.284  22.847  0.00  0.00     0.181 C 
ENDBRANCH   9  24
TORSDOF 6
ENDMDL
