MODEL 1
REMARK VINA RESULT:      29.6      0.000      0.000
REMARK  8 active torsions:
REMARK  status: ('A' for Active; 'I' for Inactive)
REMARK    1  A    between atoms: C_2  and  S_1 
REMARK    2  A    between atoms: N_13  and  S_1 
REMARK    3  A    between atoms: C_16  and  C_4 
REMARK    4  A    between atoms: O_17  and  C_5 
REMARK    5  A    between atoms: N_8  and  C_18 
REMARK    6  A    between atoms: C_21  and  N_13 
REMARK    7  A    between atoms: C_18  and  C_19 
REMARK    8  A    between atoms: C_19  and  C_21 
ROOT
ATOM      1  C   UNL d   1      14.630  13.312  -1.242  0.00  0.00     0.128 A 
ATOM      2  C   UNL d   1      14.585  14.070  -1.578  0.00  0.00     0.015 A 
ATOM      3  C   UNL d   1      14.909  14.715  -1.180  0.00  0.00     0.001 A 
ATOM      4  C   UNL d   1      14.999  13.202  -0.510  0.00  0.00     0.106 A 
ATOM      5  C   UNL d   1      15.279  14.603  -0.444  0.00  0.00     0.002 A 
ATOM      6  C   UNL d   1      15.323  13.848  -0.112  0.00  0.00     0.025 A 
ATOM      7  C   UNL d   1      15.604  15.249  -0.046  0.00  0.00     0.000 C 
ENDROOT
BRANCH   1   8
ATOM      8  S   UNL d   1      14.306  12.667  -1.640  0.00  0.00     0.287 S 
ATOM      9  O   UNL d   1      15.042  12.505  -1.976  0.00  0.00    -0.198 OA
ATOM     10  O   UNL d   1      13.569  12.829  -1.304  0.00  0.00    -0.198 OA
BRANCH   8  11
ATOM     11  N   UNL d   1      13.980  12.018  -2.041  0.00  0.00    -0.157 NA
BRANCH  11  12
ATOM     12  C   UNL d   1      13.271  12.109  -2.465  0.00  0.00     0.114 C 
BRANCH  12  13
ATOM     13  C   UNL d   1      13.207  11.800  -3.227  0.00  0.00     0.041 C 
BRANCH  13  14
ATOM     14  C   UNL d   1      12.836  12.233  -3.827  0.00  0.00     0.083 C 
BRANCH  14  15
ATOM     15  N   UNL d   1      13.214  12.358  -4.549  0.00  0.00    -0.285 N 
ATOM     16  C   UNL d   1      13.839  11.910  -4.847  0.00  0.00     0.183 A 
ATOM     17  N   UNL d   1      14.043  12.230  -5.583  0.00  0.00    -0.222 NA
ATOM     18  C   UNL d   1      13.545  12.870  -5.733  0.00  0.00     0.120 A 
ATOM     19  C   UNL d   1      13.031  12.949  -5.090  0.00  0.00     0.102 A 
ENDBRANCH  14  15
ENDBRANCH  13  14
ENDBRANCH  12  13
ENDBRANCH  11  12
ENDBRANCH   8  11
ENDBRANCH   1   8
BRANCH   4  20
ATOM     20  O   UNL d   1      15.042  12.450  -0.179  0.00  0.00    -0.327 OA
ATOM     21  C   UNL d   1      15.644  11.937  -0.404  0.00  0.00     0.181 C 
ENDBRANCH   4  20
BRANCH   3  22
ATOM     22  C   UNL d   1      14.866  15.469  -1.510  0.00  0.00     0.000 C 
ATOM     23  C   UNL d   1      14.935  16.136  -1.030  0.00  0.00     0.000 C 
ATOM     24  C   UNL d   1      14.755  15.554  -2.321  0.00  0.00     0.000 C 
ENDBRANCH   3  22
TORSDOF 8
ENDMDL
MODEL 2
REMARK VINA RESULT:      32.4      1.911      4.270
REMARK  8 active torsions:
REMARK  status: ('A' for Active; 'I' for Inactive)
REMARK    1  A    between atoms: C_2  and  S_1 
REMARK    2  A    between atoms: N_13  and  S_1 
REMARK    3  A    between atoms: C_16  and  C_4 
REMARK    4  A    between atoms: O_17  and  C_5 
REMARK    5  A    between atoms: N_8  and  C_18 
REMARK    6  A    between atoms: C_21  and  N_13 
REMARK    7  A    between atoms: C_18  and  C_19 
REMARK    8  A    between atoms: C_19  and  C_21 
ROOT
ATOM      1  C   UNL d   1      14.346  12.977  -2.154  0.00  0.00     0.128 A 
ATOM      2  C   UNL d   1      14.009  13.383  -2.795  0.00  0.00     0.015 A 
ATOM      3  C   UNL d   1      13.499  12.986  -3.308  0.00  0.00     0.001 A 
ATOM      4  C   UNL d   1      14.173  12.180  -2.027  0.00  0.00     0.106 A 
ATOM      5  C   UNL d   1      13.325  12.184  -3.179  0.00  0.00     0.002 A 
ATOM      6  C   UNL d   1      13.663  11.783  -2.539  0.00  0.00     0.025 A 
ATOM      7  C   UNL d   1      12.815  11.787  -3.691  0.00  0.00     0.000 C 
ENDROOT
BRANCH   1   8
ATOM      8  S   UNL d   1      14.856  13.374  -1.641  0.00  0.00     0.287 S 
ATOM      9  O   UNL d   1      14.227  13.832  -1.368  0.00  0.00    -0.198 OA
ATOM     10  O   UNL d   1      15.487  12.916  -1.914  0.00  0.00    -0.198 OA
BRANCH   8  11
ATOM     11  N   UNL d   1      15.370  13.773  -1.125  0.00  0.00    -0.157 NA
BRANCH  11  12
ATOM     12  C   UNL d   1      15.067  14.339  -0.599  0.00  0.00     0.114 C 
BRANCH  12  13
ATOM     13  C   UNL d   1      15.550  14.955  -0.337  0.00  0.00     0.041 C 
BRANCH  13  14
ATOM     14  C   UNL d   1      15.219  15.664  -0.066  0.00  0.00     0.083 C 
BRANCH  14  15
ATOM     15  N   UNL d   1      15.431  16.384  -0.409  0.00  0.00    -0.285 N 
ATOM     16  C   UNL d   1      16.199  16.675  -0.476  0.00  0.00     0.183 A 
ATOM     17  N   UNL d   1      16.153  17.410  -0.854  0.00  0.00    -0.222 NA
ATOM     18  C   UNL d   1      15.360  17.566  -1.017  0.00  0.00     0.120 A 
ATOM     19  C   UNL d   1      14.912  16.928  -0.740  0.00  0.00     0.102 A 
ENDBRANCH  14  15
ENDBRANCH  13  14
ENDBRANCH  12  13
ENDBRANCH  11  12
ENDBRANCH   8  11
ENDBRANCH   1   8
BRANCH   4  20
ATOM     20  O   UNL d   1      14.509  11.781  -1.390  0.00  0.00    -0.327 OA
ATOM     21  C   UNL d   1      14.131  11.782  -0.659  0.00  0.00     0.181 C 
ENDBRANCH   4  20
BRANCH   3  22
ATOM     22  C   UNL d   1      13.162  13.385  -3.945  0.00  0.00     0.000 C 
ATOM     23  C   UNL d   1      12.795  12.961  -4.551  0.00  0.00     0.000 C 
ATOM     24  C   UNL d   1      13.193  14.206  -3.977  0.00  0.00     0.000 C 
ENDBRANCH   3  22
TORSDOF 8
ENDMDL
