MODEL 1
REMARK VINA RESULT:      -1.0      0.000      0.000
REMARK  5 active torsions:
REMARK  status: ('A' for Active; 'I' for Inactive)
REMARK    1  A    between atoms: S_10  and  C_4 
REMARK    2  A    between atoms: C_15  and  S_10 
REMARK    3  A    between atoms: C_11  and  C_15 
REMARK       I    between atoms: N_12  and  C_11 
REMARK    4  A    between atoms: C_16  and  N_12 
REMARK    5  A    between atoms: C_17  and  C_16 
ROOT
ATOM      1  C   UNL d   1      32.823  22.284 -20.315  0.00  0.00     0.141 A 
ATOM      2  C   UNL d   1      32.413  22.973 -20.124  0.00  0.00     0.110 A 
ATOM      3  O   UNL d   1      33.167  21.991 -19.625  0.00  0.00    -0.303 OA
ATOM      4  C   UNL d   1      32.830  22.011 -21.094  0.00  0.00     0.137 A 
ATOM      5  N   UNL d   1      32.426  22.429 -21.680  0.00  0.00    -0.218 NA
ATOM      6  C   UNL d   1      32.504  23.107 -19.313  0.00  0.00     0.043 A 
ATOM      7  N   UNL d   1      32.010  23.391 -20.709  0.00  0.00    -0.225 NA
ATOM      8  C   UNL d   1      32.970  22.499 -19.006  0.00  0.00     0.102 A 
ATOM      9  C   UNL d   1      32.017  23.119 -21.488  0.00  0.00     0.163 A 
ATOM     10  C   UNL d   1      32.222  23.702 -18.817  0.00  0.00     0.004 A 
ATOM     11  C   UNL d   1      33.155  22.488 -18.202  0.00  0.00     0.025 A 
ATOM     12  C   UNL d   1      31.614  23.536 -22.074  0.00  0.00     0.042 C 
ATOM     13  C   UNL d   1      32.407  23.691 -18.012  0.00  0.00     0.000 A 
ATOM     14  C   UNL d   1      32.873  23.084 -17.705  0.00  0.00     0.002 A 
ENDROOT
BRANCH   4  15
ATOM     15  S   UNL d   1      33.239  21.323 -21.287  0.00  0.00    -0.060 SA
BRANCH  15  16
ATOM     16  C   UNL d   1      32.908  20.780 -21.815  0.00  0.00     0.099 C 
BRANCH  16  17
ATOM     17  C   UNL d   1      33.062  19.975 -21.731  0.00  0.00     0.286 C 
ATOM     18  N   UNL d   1      33.136  19.497 -22.399  0.00  0.00    -0.204 NA
ATOM     19  O   UNL d   1      33.142  19.647 -20.977  0.00  0.00    -0.265 OA
BRANCH  18  20
ATOM     20  C   UNL d   1      33.057  19.823 -23.152  0.00  0.00     0.127 C 
BRANCH  20  21
ATOM     21  C   UNL d   1      32.797  19.357 -23.780  0.00  0.00     0.119 A 
ATOM     22  O   UNL d   1      32.145  18.851 -23.771  0.00  0.00    -0.304 OA
ATOM     23  C   UNL d   1      32.088  18.496 -24.512  0.00  0.00     0.123 A 
ATOM     24  C   UNL d   1      32.704  18.780 -24.981  0.00  0.00     0.029 A 
ATOM     25  C   UNL d   1      33.143  19.313 -24.528  0.00  0.00     0.028 A 
ENDBRANCH  20  21
ENDBRANCH  18  20
ENDBRANCH  16  17
ENDBRANCH  15  16
ENDBRANCH   4  15
TORSDOF 5
ENDMDL
MODEL 2
REMARK VINA RESULT:       1.2      3.529      6.454
REMARK  5 active torsions:
REMARK  status: ('A' for Active; 'I' for Inactive)
REMARK    1  A    between atoms: S_10  and  C_4 
REMARK    2  A    between atoms: C_15  and  S_10 
REMARK    3  A    between atoms: C_11  and  C_15 
REMARK       I    between atoms: N_12  and  C_11 
REMARK    4  A    between atoms: C_16  and  N_12 
REMARK    5  A    between atoms: C_17  and  C_16 
ROOT
ATOM      1  C   UNL d   1      29.673  16.968 -24.059  0.00  0.00     0.141 A 
ATOM      2  C   UNL d   1      28.905  17.262 -24.006  0.00  0.00     0.110 A 
ATOM      3  O   UNL d   1      29.697  16.242 -23.666  0.00  0.00    -0.303 OA
ATOM      4  C   UNL d   1      30.253  17.398 -24.458  0.00  0.00     0.137 A 
ATOM      5  N   UNL d   1      30.062  18.122 -24.804  0.00  0.00    -0.218 NA
ATOM      6  C   UNL d   1      28.453  16.718 -23.579  0.00  0.00     0.043 A 
ATOM      7  N   UNL d   1      28.714  17.986 -24.351  0.00  0.00    -0.225 NA
ATOM      8  C   UNL d   1      28.943  16.088 -23.369  0.00  0.00     0.102 A 
ATOM      9  C   UNL d   1      29.294  18.417 -24.751  0.00  0.00     0.163 A 
ATOM     10  C   UNL d   1      27.659  16.715 -23.355  0.00  0.00     0.004 A 
ATOM     11  C   UNL d   1      28.639  15.455 -22.935  0.00  0.00     0.025 A 
ATOM     12  C   UNL d   1      29.104  19.141 -25.097  0.00  0.00     0.042 C 
ATOM     13  C   UNL d   1      27.354  16.082 -22.920  0.00  0.00     0.000 A 
ATOM     14  C   UNL d   1      27.845  15.453 -22.711  0.00  0.00     0.002 A 
ENDROOT
BRANCH   4  15
ATOM     15  S   UNL d   1      31.021  17.105 -24.513  0.00  0.00    -0.060 SA
BRANCH  15  16
ATOM     16  C   UNL d   1      31.665  17.615 -24.418  0.00  0.00     0.099 C 
BRANCH  16  17
ATOM     17  C   UNL d   1      32.327  17.370 -23.993  0.00  0.00     0.286 C 
ATOM     18  N   UNL d   1      32.744  17.912 -23.531  0.00  0.00    -0.204 NA
ATOM     19  O   UNL d   1      32.572  16.583 -24.029  0.00  0.00    -0.265 OA
BRANCH  18  20
ATOM     20  C   UNL d   1      32.500  18.698 -23.495  0.00  0.00     0.127 C 
BRANCH  20  21
ATOM     21  C   UNL d   1      32.783  19.193 -22.899  0.00  0.00     0.119 A 
ATOM     22  O   UNL d   1      32.917  18.977 -22.113  0.00  0.00    -0.304 OA
ATOM     23  C   UNL d   1      33.198  19.640 -21.712  0.00  0.00     0.123 A 
ATOM     24  C   UNL d   1      33.239  20.265 -22.248  0.00  0.00     0.029 A 
ATOM     25  C   UNL d   1      32.982  19.989 -22.982  0.00  0.00     0.028 A 
ENDBRANCH  20  21
ENDBRANCH  18  20
ENDBRANCH  16  17
ENDBRANCH  15  16
ENDBRANCH   4  15
TORSDOF 5
ENDMDL
