MODEL 1
REMARK VINA RESULT:      35.8      0.000      0.000
REMARK  5 active torsions:
REMARK  status: ('A' for Active; 'I' for Inactive)
REMARK    1  A    between atoms: N_2  and  S_1 
REMARK    2  A    between atoms: C_6  and  S_1 
REMARK    3  A    between atoms: C_3  and  N_2 
REMARK    4  A    between atoms: N_7  and  C_3 
REMARK    5  A    between atoms: C_9  and  N_7 
ROOT
ATOM      1  N   UNL d   1      59.306  49.467  50.526  0.00  0.00    -0.128 NA
ENDROOT
BRANCH   1   2
ATOM      2  S   UNL d   1      58.487  49.527  50.407  0.00  0.00     0.287 S 
ATOM      3  O   UNL d   1      58.359  49.549  51.232  0.00  0.00    -0.198 OA
ATOM      4  O   UNL d   1      58.594  49.506  49.585  0.00  0.00    -0.198 OA
BRANCH   2   5
ATOM      5  C   UNL d   1      57.662  49.588  50.288  0.00  0.00     0.105 A 
ATOM      6  C   UNL d   1      57.354  49.613  49.514  0.00  0.00     0.013 A 
ATOM      7  C   UNL d   1      56.541  49.673  49.397  0.00  0.00     0.001 A 
ATOM      8  C   UNL d   1      56.033  49.708  50.043  0.00  0.00     0.000 A 
ATOM      9  C   UNL d   1      56.335  49.683  50.815  0.00  0.00     0.001 A 
ATOM     10  C   UNL d   1      57.149  49.623  50.933  0.00  0.00     0.013 A 
ENDBRANCH   2   5
ENDBRANCH   1   2
BRANCH   1  11
ATOM     11  C   UNL d   1      60.086  49.628  50.271  0.00  0.00     0.232 C 
ATOM     12  S   UNL d   1      60.244  49.705  49.465  0.00  0.00    -0.036 SA
BRANCH  11  13
ATOM     13  N   UNL d   1      60.691  49.707  50.828  0.00  0.00    -0.217 NA
BRANCH  13  14
ATOM     14  C   UNL d   1      60.984  49.040  51.217  0.00  0.00     0.084 A 
ATOM     15  C   UNL d   1      61.240  49.098  51.997  0.00  0.00     0.019 A 
ATOM     16  C   UNL d   1      61.530  48.437  52.385  0.00  0.00     0.002 A 
ATOM     17  C   UNL d   1      61.569  47.713  51.999  0.00  0.00     0.000 A 
ATOM     18  C   UNL d   1      61.313  47.651  51.216  0.00  0.00     0.002 A 
ATOM     19  C   UNL d   1      61.020  48.314  50.822  0.00  0.00     0.019 A 
ENDBRANCH  13  14
ENDBRANCH  11  13
ENDBRANCH   1  11
TORSDOF 5
ENDMDL
