MODEL 1
REMARK VINA RESULT:      -6.2      0.000      0.000
REMARK  6 active torsions:
REMARK  status: ('A' for Active; 'I' for Inactive)
REMARK    1  A    between atoms: C_8  and  C_3 
REMARK    2  A    between atoms: C_6  and  O_10 
REMARK    3  A    between atoms: S_9  and  C_8 
REMARK    4  A    between atoms: C_16  and  S_9 
REMARK    5  A    between atoms: O_10  and  C_17 
REMARK    6  A    between atoms: C_17  and  C_16 
ROOT
ATOM      1  S   UNL d   1     -47.011  12.963  22.870  0.00  0.00    -0.081 SA
ENDROOT
BRANCH   1   2
ATOM      2  C   UNL d   1     -46.205  12.797  22.850  0.00  0.00     0.074 C 
BRANCH   2   3
ATOM      3  C   UNL d   1     -45.931  12.066  23.109  0.00  0.00     0.169 A 
ATOM      4  N   UNL d   1     -45.997  11.311  23.464  0.00  0.00    -0.225 NA
ATOM      5  C   UNL d   1     -45.242  10.947  23.440  0.00  0.00     0.101 A 
ATOM      6  C   UNL d   1     -44.720  11.482  23.072  0.00  0.00     0.101 A 
ATOM      7  C   UNL d   1     -44.954  10.212  23.698  0.00  0.00     0.021 A 
ATOM      8  N   UNL d   1     -45.137  12.175  22.865  0.00  0.00    -0.225 NA
ATOM      9  C   UNL d   1     -43.920  11.272  22.969  0.00  0.00     0.021 A 
ATOM     10  C   UNL d   1     -43.652  10.546  23.228  0.00  0.00     0.002 A 
ATOM     11  C   UNL d   1     -44.169  10.016  23.592  0.00  0.00     0.002 A 
ENDBRANCH   2   3
ENDBRANCH   1   2
BRANCH   1  12
ATOM     12  C   UNL d   1     -47.301  13.637  22.497  0.00  0.00     0.062 C 
BRANCH  12  13
ATOM     13  C   UNL d   1     -48.093  13.846  22.581  0.00  0.00     0.130 C 
BRANCH  13  14
ATOM     14  O   UNL d   1     -48.611  13.735  21.949  0.00  0.00    -0.305 OA
BRANCH  14  15
ATOM     15  C   UNL d   1     -49.137  14.263  22.304  0.00  0.00     0.100 A 
ATOM     16  C   UNL d   1     -49.932  14.231  22.124  0.00  0.00     0.023 A 
ATOM     17  C   UNL d   1     -50.211  13.667  21.582  0.00  0.00     0.002 C 
ATOM     18  C   UNL d   1     -50.461  14.757  22.477  0.00  0.00     0.002 A 
ATOM     19  C   UNL d   1     -50.186  15.315  23.013  0.00  0.00     0.000 A 
ATOM     20  C   UNL d   1     -49.378  15.344  23.194  0.00  0.00     0.002 A 
ATOM     21  C   UNL d   1     -48.856  14.815  22.836  0.00  0.00     0.025 A 
ENDBRANCH  14  15
ENDBRANCH  13  14
ENDBRANCH  12  13
ENDBRANCH   1  12
TORSDOF 6
ENDMDL
MODEL 2
REMARK VINA RESULT:      -5.4      1.476      1.912
REMARK  6 active torsions:
REMARK  status: ('A' for Active; 'I' for Inactive)
REMARK    1  A    between atoms: C_8  and  C_3 
REMARK    2  A    between atoms: C_6  and  O_10 
REMARK    3  A    between atoms: S_9  and  C_8 
REMARK    4  A    between atoms: C_16  and  S_9 
REMARK    5  A    between atoms: O_10  and  C_17 
REMARK    6  A    between atoms: C_17  and  C_16 
ROOT
ATOM      1  S   UNL d   1     -47.249  13.267  22.939  0.00  0.00    -0.081 SA
ENDROOT
BRANCH   1   2
ATOM      2  C   UNL d   1     -46.535  13.505  22.607  0.00  0.00     0.074 C 
BRANCH   2   3
ATOM      3  C   UNL d   1     -45.878  13.012  22.651  0.00  0.00     0.169 A 
ATOM      4  N   UNL d   1     -45.425  12.372  22.945  0.00  0.00    -0.225 NA
ATOM      5  C   UNL d   1     -44.698  12.357  22.529  0.00  0.00     0.101 A 
ATOM      6  C   UNL d   1     -44.711  12.987  21.983  0.00  0.00     0.101 A 
ATOM      7  C   UNL d   1     -44.029  11.866  22.564  0.00  0.00     0.021 A 
ATOM      8  N   UNL d   1     -45.435  13.396  22.053  0.00  0.00    -0.225 NA
ATOM      9  C   UNL d   1     -44.055  13.114  21.485  0.00  0.00     0.021 A 
ATOM     10  C   UNL d   1     -43.405  12.623  21.532  0.00  0.00     0.002 A 
ATOM     11  C   UNL d   1     -43.392  11.999  22.071  0.00  0.00     0.002 A 
ENDBRANCH   2   3
ENDBRANCH   1   2
BRANCH   1  12
ATOM     12  C   UNL d   1     -47.886  13.788  22.960  0.00  0.00     0.062 C 
BRANCH  12  13
ATOM     13  C   UNL d   1     -48.649  13.501  23.075  0.00  0.00     0.130 C 
BRANCH  13  14
ATOM     14  O   UNL d   1     -49.274  14.033  23.163  0.00  0.00    -0.305 OA
BRANCH  14  15
ATOM     15  C   UNL d   1     -49.796  13.395  23.197  0.00  0.00     0.100 A 
ATOM     16  C   UNL d   1     -50.519  13.437  22.821  0.00  0.00     0.023 A 
ATOM     17  C   UNL d   1     -50.728  14.125  22.404  0.00  0.00     0.002 C 
ATOM     18  C   UNL d   1     -51.043  12.801  22.852  0.00  0.00     0.002 A 
ATOM     19  C   UNL d   1     -50.837  12.122  23.264  0.00  0.00     0.000 A 
ATOM     20  C   UNL d   1     -50.103  12.081  23.645  0.00  0.00     0.002 A 
ATOM     21  C   UNL d   1     -49.584  12.722  23.608  0.00  0.00     0.025 A 
ENDBRANCH  14  15
ENDBRANCH  13  14
ENDBRANCH  12  13
ENDBRANCH   1  12
TORSDOF 6
ENDMDL
MODEL 3
REMARK VINA RESULT:      -5.1      1.511      5.617
REMARK  6 active torsions:
REMARK  status: ('A' for Active; 'I' for Inactive)
REMARK    1  A    between atoms: C_8  and  C_3 
REMARK    2  A    between atoms: C_6  and  O_10 
REMARK    3  A    between atoms: S_9  and  C_8 
REMARK    4  A    between atoms: C_16  and  S_9 
REMARK    5  A    between atoms: O_10  and  C_17 
REMARK    6  A    between atoms: C_17  and  C_16 
ROOT
ATOM      1  S   UNL d   1     -47.009  12.871  22.717  0.00  0.00    -0.081 SA
ENDROOT
BRANCH   1   2
ATOM      2  C   UNL d   1     -47.531  13.479  22.905  0.00  0.00     0.074 C 
BRANCH   2   3
ATOM      3  C   UNL d   1     -48.270  13.510  22.546  0.00  0.00     0.169 A 
ATOM      4  N   UNL d   1     -48.880  13.248  22.035  0.00  0.00    -0.225 NA
ATOM      5  C   UNL d   1     -49.522  13.783  22.104  0.00  0.00     0.101 A 
ATOM      6  C   UNL d   1     -49.301  14.367  22.655  0.00  0.00     0.101 A 
ATOM      7  C   UNL d   1     -50.271  13.825  21.748  0.00  0.00     0.021 A 
ATOM      8  N   UNL d   1     -48.530  14.206  22.933  0.00  0.00    -0.225 NA
ATOM      9  C   UNL d   1     -49.833  14.981  22.840  0.00  0.00     0.021 A 
ATOM     10  C   UNL d   1     -50.566  15.009  22.482  0.00  0.00     0.002 A 
ATOM     11  C   UNL d   1     -50.785  14.430  21.936  0.00  0.00     0.002 A 
ENDBRANCH   2   3
ENDBRANCH   1   2
BRANCH   1  12
ATOM     12  C   UNL d   1     -46.283  12.819  23.103  0.00  0.00     0.062 C 
BRANCH  12  13
ATOM     13  C   UNL d   1     -45.832  12.133  23.038  0.00  0.00     0.130 C 
BRANCH  13  14
ATOM     14  O   UNL d   1     -45.096  12.167  22.666  0.00  0.00    -0.305 OA
BRANCH  14  15
ATOM     15  C   UNL d   1     -44.905  11.440  23.007  0.00  0.00     0.100 A 
ATOM     16  C   UNL d   1     -44.134  11.171  22.994  0.00  0.00     0.023 A 
ATOM     17  C   UNL d   1     -43.542  11.632  22.637  0.00  0.00     0.002 C 
ATOM     18  C   UNL d   1     -43.940  10.445  23.333  0.00  0.00     0.002 A 
ATOM     19  C   UNL d   1     -44.525   9.990  23.686  0.00  0.00     0.000 A 
ATOM     20  C   UNL d   1     -45.306  10.264  23.697  0.00  0.00     0.002 A 
ATOM     21  C   UNL d   1     -45.492  10.992  23.356  0.00  0.00     0.025 A 
ENDBRANCH  14  15
ENDBRANCH  13  14
ENDBRANCH  12  13
ENDBRANCH   1  12
TORSDOF 6
ENDMDL
MODEL 4
REMARK VINA RESULT:      -4.4      8.571      9.953
REMARK  6 active torsions:
REMARK  status: ('A' for Active; 'I' for Inactive)
REMARK    1  A    between atoms: C_8  and  C_3 
REMARK    2  A    between atoms: C_6  and  O_10 
REMARK    3  A    between atoms: S_9  and  C_8 
REMARK    4  A    between atoms: C_16  and  S_9 
REMARK    5  A    between atoms: O_10  and  C_17 
REMARK    6  A    between atoms: C_17  and  C_16 
ROOT
ATOM      1  S   UNL d   1     -39.224  14.552  19.299  0.00  0.00    -0.081 SA
ENDROOT
BRANCH   1   2
ATOM      2  C   UNL d   1     -39.346  14.183  18.574  0.00  0.00     0.074 C 
BRANCH   2   3
ATOM      3  C   UNL d   1     -39.040  14.518  17.888  0.00  0.00     0.169 A 
ATOM      4  N   UNL d   1     -38.807  15.146  17.385  0.00  0.00    -0.225 NA
ATOM      5  C   UNL d   1     -38.507  14.812  16.677  0.00  0.00     0.101 A 
ATOM      6  C   UNL d   1     -38.559  13.984  16.751  0.00  0.00     0.101 A 
ATOM      7  C   UNL d   1     -38.196  15.138  15.979  0.00  0.00     0.021 A 
ATOM      8  N   UNL d   1     -38.886  13.794  17.494  0.00  0.00    -0.225 NA
ATOM      9  C   UNL d   1     -38.298  13.498  16.125  0.00  0.00     0.021 A 
ATOM     10  C   UNL d   1     -37.995  13.833  15.446  0.00  0.00     0.002 A 
ATOM     11  C   UNL d   1     -37.944  14.653  15.373  0.00  0.00     0.002 A 
ENDBRANCH   2   3
ENDBRANCH   1   2
BRANCH   1  12
ATOM     12  C   UNL d   1     -39.698  14.357  19.944  0.00  0.00     0.062 C 
BRANCH  12  13
ATOM     13  C   UNL d   1     -39.410  14.452  20.710  0.00  0.00     0.130 C 
BRANCH  13  14
ATOM     14  O   UNL d   1     -39.787  14.978  21.222  0.00  0.00    -0.305 OA
BRANCH  14  15
ATOM     15  C   UNL d   1     -39.386  14.630  21.853  0.00  0.00     0.100 A 
ATOM     16  C   UNL d   1     -39.088  15.094  22.455  0.00  0.00     0.023 A 
ATOM     17  C   UNL d   1     -39.191  15.918  22.431  0.00  0.00     0.002 C 
ATOM     18  C   UNL d   1     -38.687  14.749  23.088  0.00  0.00     0.002 A 
ATOM     19  C   UNL d   1     -38.586  13.935  23.113  0.00  0.00     0.000 A 
ATOM     20  C   UNL d   1     -38.888  13.467  22.501  0.00  0.00     0.002 A 
ATOM     21  C   UNL d   1     -39.288  13.819  21.871  0.00  0.00     0.025 A 
ENDBRANCH  14  15
ENDBRANCH  13  14
ENDBRANCH  12  13
ENDBRANCH   1  12
TORSDOF 6
ENDMDL
MODEL 5
REMARK VINA RESULT:      -3.6      8.757      9.958
REMARK  6 active torsions:
REMARK  status: ('A' for Active; 'I' for Inactive)
REMARK    1  A    between atoms: C_8  and  C_3 
REMARK    2  A    between atoms: C_6  and  O_10 
REMARK    3  A    between atoms: S_9  and  C_8 
REMARK    4  A    between atoms: C_16  and  S_9 
REMARK    5  A    between atoms: O_10  and  C_17 
REMARK    6  A    between atoms: C_17  and  C_16 
ROOT
ATOM      1  S   UNL d   1     -38.549  14.414  19.368  0.00  0.00    -0.081 SA
ENDROOT
BRANCH   1   2
ATOM      2  C   UNL d   1     -38.836  14.496  20.135  0.00  0.00     0.074 C 
BRANCH   2   3
ATOM      3  C   UNL d   1     -38.543  14.016  20.735  0.00  0.00     0.169 A 
ATOM      4  N   UNL d   1     -38.068  13.409  21.061  0.00  0.00    -0.225 NA
ATOM      5  C   UNL d   1     -38.228  13.368  21.883  0.00  0.00     0.101 A 
ATOM      6  C   UNL d   1     -38.799  13.949  22.054  0.00  0.00     0.101 A 
ATOM      7  C   UNL d   1     -37.940  12.889  22.497  0.00  0.00     0.021 A 
ATOM      8  N   UNL d   1     -38.999  14.354  21.352  0.00  0.00    -0.225 NA
ATOM      9  C   UNL d   1     -39.071  14.041  22.837  0.00  0.00     0.021 A 
ATOM     10  C   UNL d   1     -38.778  13.564  23.430  0.00  0.00     0.002 A 
ATOM     11  C   UNL d   1     -38.213  12.988  23.260  0.00  0.00     0.002 A 
ENDBRANCH   2   3
ENDBRANCH   1   2
BRANCH   1  12
ATOM     12  C   UNL d   1     -39.075  14.338  18.739  0.00  0.00     0.062 C 
BRANCH  12  13
ATOM     13  C   UNL d   1     -38.807  14.428  17.966  0.00  0.00     0.130 C 
BRANCH  13  14
ATOM     14  O   UNL d   1     -38.800  13.776  17.461  0.00  0.00    -0.305 OA
BRANCH  14  15
ATOM     15  C   UNL d   1     -38.680  14.287  16.824  0.00  0.00     0.100 A 
ATOM     16  C   UNL d   1     -38.253  14.038  16.174  0.00  0.00     0.023 A 
ATOM     17  C   UNL d   1     -37.940  13.269  16.156  0.00  0.00     0.002 C 
ATOM     18  C   UNL d   1     -38.132  14.546  15.535  0.00  0.00     0.002 A 
ATOM     19  C   UNL d   1     -38.442  15.305  15.553  0.00  0.00     0.000 A 
ATOM     20  C   UNL d   1     -38.874  15.555  16.213  0.00  0.00     0.002 A 
ATOM     21  C   UNL d   1     -38.992  15.041  16.848  0.00  0.00     0.025 A 
ENDBRANCH  14  15
ENDBRANCH  13  14
ENDBRANCH  12  13
ENDBRANCH   1  12
TORSDOF 6
ENDMDL
