MODEL 1
REMARK VINA RESULT:      -7.1      0.000      0.000
REMARK  4 active torsions:
REMARK  status: ('A' for Active; 'I' for Inactive)
REMARK    1  A    between atoms: C_9  and  N_1 
REMARK    2  A    between atoms: C_2  and  C_9 
REMARK    3  A    between atoms: S_13  and  C_5 
REMARK    4  A    between atoms: C_17  and  S_13 
ROOT
ATOM      1  N   UNL d   1     -49.283  13.983  22.133  0.00  0.00    -0.265 N 
ATOM      2  C   UNL d   1     -49.813  13.609  21.619  0.00  0.00     0.296 A 
ATOM      3  S   UNL d   1     -50.560  13.921  21.763  0.00  0.00    -0.025 SA
ATOM      4  C   UNL d   1     -49.694  14.522  22.591  0.00  0.00     0.074 A 
ATOM      5  C   UNL d   1     -50.485  14.490  22.369  0.00  0.00     0.050 A 
ATOM      6  O   UNL d   1     -49.625  13.031  21.067  0.00  0.00    -0.259 OA
ATOM      7  C   UNL d   1     -49.457  15.046  23.190  0.00  0.00     0.018 A 
ATOM      8  C   UNL d   1     -51.042  14.976  22.739  0.00  0.00     0.008 A 
ATOM      9  C   UNL d   1     -50.010  15.533  23.561  0.00  0.00     0.002 A 
ATOM     10  C   UNL d   1     -50.806  15.491  23.328  0.00  0.00     0.001 A 
ENDROOT
BRANCH   1  11
ATOM     11  C   UNL d   1     -48.472  13.841  22.180  0.00  0.00     0.123 C 
BRANCH  11  12
ATOM     12  C   UNL d   1     -48.190  13.173  22.554  0.00  0.00     0.189 A 
ATOM     13  N   UNL d   1     -47.397  13.117  22.747  0.00  0.00    -0.265 N 
ATOM     14  C   UNL d   1     -47.277  12.390  23.115  0.00  0.00     0.201 A 
ATOM     15  C   UNL d   1     -46.811  13.678  22.605  0.00  0.00     0.103 C 
ATOM     16  N   UNL d   1     -47.999  11.999  23.148  0.00  0.00    -0.121 NA
ATOM     17  N   UNL d   1     -48.562  12.486  22.800  0.00  0.00    -0.126 NA
BRANCH  14  18
ATOM     18  S   UNL d   1     -46.560  12.103  23.401  0.00  0.00    -0.048 SA
BRANCH  18  19
ATOM     19  C   UNL d   1     -46.504  11.336  23.698  0.00  0.00     0.038 C 
ATOM     20  C   UNL d   1     -45.801  10.909  23.621  0.00  0.00     0.008 C 
ENDBRANCH  18  19
ENDBRANCH  14  18
ENDBRANCH  11  12
ENDBRANCH   1  11
TORSDOF 4
ENDMDL
MODEL 2
REMARK VINA RESULT:      -6.6      1.310      2.033
REMARK  4 active torsions:
REMARK  status: ('A' for Active; 'I' for Inactive)
REMARK    1  A    between atoms: C_9  and  N_1 
REMARK    2  A    between atoms: C_2  and  C_9 
REMARK    3  A    between atoms: S_13  and  C_5 
REMARK    4  A    between atoms: C_17  and  S_13 
ROOT
ATOM      1  N   UNL d   1     -49.332  13.912  22.943  0.00  0.00    -0.265 N 
ATOM      2  C   UNL d   1     -49.579  14.673  23.155  0.00  0.00     0.296 A 
ATOM      3  S   UNL d   1     -50.258  14.842  22.723  0.00  0.00    -0.025 SA
ATOM      4  C   UNL d   1     -49.851  13.611  22.386  0.00  0.00     0.074 A 
ATOM      5  C   UNL d   1     -50.427  14.180  22.245  0.00  0.00     0.050 A 
ATOM      6  O   UNL d   1     -49.211  15.167  23.698  0.00  0.00    -0.259 OA
ATOM      7  C   UNL d   1     -49.881  12.887  21.981  0.00  0.00     0.018 A 
ATOM      8  C   UNL d   1     -51.033  14.033  21.703  0.00  0.00     0.008 A 
ATOM      9  C   UNL d   1     -50.484  12.736  21.439  0.00  0.00     0.002 A 
ATOM     10  C   UNL d   1     -51.061  13.320  21.305  0.00  0.00     0.001 A 
ENDROOT
BRANCH   1  11
ATOM     11  C   UNL d   1     -48.672  13.517  23.240  0.00  0.00     0.123 C 
BRANCH  11  12
ATOM     12  C   UNL d   1     -47.930  13.664  22.935  0.00  0.00     0.189 A 
ATOM     13  N   UNL d   1     -47.321  13.134  23.068  0.00  0.00    -0.265 N 
ATOM     14  C   UNL d   1     -46.646  13.425  22.698  0.00  0.00     0.201 A 
ATOM     15  C   UNL d   1     -47.361  12.429  23.494  0.00  0.00     0.103 C 
ATOM     16  N   UNL d   1     -46.840  14.137  22.336  0.00  0.00    -0.121 NA
ATOM     17  N   UNL d   1     -47.636  14.282  22.485  0.00  0.00    -0.126 NA
BRANCH  14  18
ATOM     18  S   UNL d   1     -45.904  13.068  22.689  0.00  0.00    -0.048 SA
BRANCH  18  19
ATOM     19  C   UNL d   1     -45.306  13.354  22.199  0.00  0.00     0.038 C 
ATOM     20  C   UNL d   1     -44.647  12.886  22.027  0.00  0.00     0.008 C 
ENDBRANCH  18  19
ENDBRANCH  14  18
ENDBRANCH  11  12
ENDBRANCH   1  11
TORSDOF 4
ENDMDL
MODEL 3
REMARK VINA RESULT:      -6.4      1.431      1.776
REMARK  4 active torsions:
REMARK  status: ('A' for Active; 'I' for Inactive)
REMARK    1  A    between atoms: C_9  and  N_1 
REMARK    2  A    between atoms: C_2  and  C_9 
REMARK    3  A    between atoms: S_13  and  C_5 
REMARK    4  A    between atoms: C_17  and  S_13 
ROOT
ATOM      1  N   UNL d   1     -49.137  12.840  22.925  0.00  0.00    -0.265 N 
ATOM      2  C   UNL d   1     -49.444  12.075  22.861  0.00  0.00     0.296 A 
ATOM      3  S   UNL d   1     -50.215  12.139  22.583  0.00  0.00    -0.025 SA
ATOM      4  C   UNL d   1     -49.709  13.376  22.690  0.00  0.00     0.074 A 
ATOM      5  C   UNL d   1     -50.379  12.951  22.477  0.00  0.00     0.050 A 
ATOM      6  O   UNL d   1     -49.048  11.378  23.043  0.00  0.00    -0.259 OA
ATOM      7  C   UNL d   1     -49.715  14.205  22.639  0.00  0.00     0.018 A 
ATOM      8  C   UNL d   1     -51.056  13.344  22.213  0.00  0.00     0.008 A 
ATOM      9  C   UNL d   1     -50.389  14.602  22.376  0.00  0.00     0.002 A 
ATOM     10  C   UNL d   1     -51.060  14.160  22.164  0.00  0.00     0.001 A 
ENDROOT
BRANCH   1  11
ATOM     11  C   UNL d   1     -48.378  13.038  23.183  0.00  0.00     0.123 C 
BRANCH  11  12
ATOM     12  C   UNL d   1     -47.748  13.021  22.665  0.00  0.00     0.189 A 
ATOM     13  N   UNL d   1     -46.996  13.202  22.931  0.00  0.00    -0.265 N 
ATOM     14  C   UNL d   1     -46.479  13.139  22.293  0.00  0.00     0.201 A 
ATOM     15  C   UNL d   1     -46.778  13.412  23.697  0.00  0.00     0.103 C 
ATOM     16  N   UNL d   1     -46.915  12.918  21.633  0.00  0.00    -0.121 NA
ATOM     17  N   UNL d   1     -47.700  12.845  21.866  0.00  0.00    -0.126 NA
BRANCH  14  18
ATOM     18  S   UNL d   1     -45.667  13.273  22.310  0.00  0.00    -0.048 SA
BRANCH  18  19
ATOM     19  C   UNL d   1     -45.171  12.917  21.756  0.00  0.00     0.038 C 
ATOM     20  C   UNL d   1     -44.358  13.060  21.770  0.00  0.00     0.008 C 
ENDBRANCH  18  19
ENDBRANCH  14  18
ENDBRANCH  11  12
ENDBRANCH   1  11
TORSDOF 4
ENDMDL
MODEL 4
REMARK VINA RESULT:      -5.9      1.642      1.861
REMARK  4 active torsions:
REMARK  status: ('A' for Active; 'I' for Inactive)
REMARK    1  A    between atoms: C_9  and  N_1 
REMARK    2  A    between atoms: C_2  and  C_9 
REMARK    3  A    between atoms: S_13  and  C_5 
REMARK    4  A    between atoms: C_17  and  S_13 
ROOT
ATOM      1  N   UNL d   1     -48.518  12.783  22.546  0.00  0.00    -0.265 N 
ATOM      2  C   UNL d   1     -48.488  12.865  21.723  0.00  0.00     0.296 A 
ATOM      3  S   UNL d   1     -49.260  12.828  21.442  0.00  0.00    -0.025 SA
ATOM      4  C   UNL d   1     -49.298  12.696  22.775  0.00  0.00     0.074 A 
ATOM      5  C   UNL d   1     -49.764  12.723  22.099  0.00  0.00     0.050 A 
ATOM      6  O   UNL d   1     -47.809  12.965  21.271  0.00  0.00    -0.259 OA
ATOM      7  C   UNL d   1     -49.657  12.594  23.517  0.00  0.00     0.018 A 
ATOM      8  C   UNL d   1     -50.586  12.649  22.155  0.00  0.00     0.008 A 
ATOM      9  C   UNL d   1     -50.477  12.521  23.578  0.00  0.00     0.002 A 
ATOM     10  C   UNL d   1     -50.936  12.550  22.886  0.00  0.00     0.001 A 
ENDROOT
BRANCH   1  11
ATOM     11  C   UNL d   1     -47.870  12.787  23.056  0.00  0.00     0.123 C 
BRANCH  11  12
ATOM     12  C   UNL d   1     -47.442  12.105  23.187  0.00  0.00     0.189 A 
ATOM     13  N   UNL d   1     -46.651  12.151  23.392  0.00  0.00    -0.265 N 
ATOM     14  C   UNL d   1     -46.368  11.384  23.487  0.00  0.00     0.201 A 
ATOM     15  C   UNL d   1     -46.203  12.836  23.489  0.00  0.00     0.103 C 
ATOM     16  N   UNL d   1     -46.987  10.864  23.340  0.00  0.00    -0.121 NA
ATOM     17  N   UNL d   1     -47.650  11.313  23.155  0.00  0.00    -0.126 NA
BRANCH  14  18
ATOM     18  S   UNL d   1     -45.600  11.172  23.693  0.00  0.00    -0.048 SA
BRANCH  18  19
ATOM     19  C   UNL d   1     -45.371  10.380  23.698  0.00  0.00     0.038 C 
ATOM     20  C   UNL d   1     -44.589  10.170  23.532  0.00  0.00     0.008 C 
ENDBRANCH  18  19
ENDBRANCH  14  18
ENDBRANCH  11  12
ENDBRANCH   1  11
TORSDOF 4
ENDMDL
MODEL 5
REMARK VINA RESULT:      -5.6      1.501      4.298
REMARK  4 active torsions:
REMARK  status: ('A' for Active; 'I' for Inactive)
REMARK    1  A    between atoms: C_9  and  N_1 
REMARK    2  A    between atoms: C_2  and  C_9 
REMARK    3  A    between atoms: S_13  and  C_5 
REMARK    4  A    between atoms: C_17  and  S_13 
ROOT
ATOM      1  N   UNL d   1     -46.678  12.947  22.990  0.00  0.00    -0.265 N 
ATOM      2  C   UNL d   1     -46.018  13.310  22.649  0.00  0.00     0.296 A 
ATOM      3  S   UNL d   1     -45.407  12.761  22.645  0.00  0.00    -0.025 SA
ATOM      4  C   UNL d   1     -46.481  12.180  23.197  0.00  0.00     0.074 A 
ATOM      5  C   UNL d   1     -45.697  12.057  22.987  0.00  0.00     0.050 A 
ATOM      6  O   UNL d   1     -45.982  14.081  22.366  0.00  0.00    -0.259 OA
ATOM      7  C   UNL d   1     -46.913  11.567  23.552  0.00  0.00     0.018 A 
ATOM      8  C   UNL d   1     -45.337  11.326  23.128  0.00  0.00     0.008 A 
ATOM      9  C   UNL d   1     -46.558  10.836  23.695  0.00  0.00     0.002 A 
ATOM     10  C   UNL d   1     -45.764  10.724  23.478  0.00  0.00     0.001 A 
ENDROOT
BRANCH   1  11
ATOM     11  C   UNL d   1     -47.417  13.296  23.106  0.00  0.00     0.123 C 
BRANCH  11  12
ATOM     12  C   UNL d   1     -47.959  13.328  22.498  0.00  0.00     0.189 A 
ATOM     13  N   UNL d   1     -48.687  13.681  22.617  0.00  0.00    -0.265 N 
ATOM     14  C   UNL d   1     -49.112  13.631  21.914  0.00  0.00     0.201 A 
ATOM     15  C   UNL d   1     -48.962  14.029  23.312  0.00  0.00     0.103 C 
ATOM     16  N   UNL d   1     -48.643  13.245  21.360  0.00  0.00    -0.121 NA
ATOM     17  N   UNL d   1     -47.930  13.059  21.724  0.00  0.00    -0.126 NA
BRANCH  14  18
ATOM     18  S   UNL d   1     -49.874  13.916  21.785  0.00  0.00    -0.048 SA
BRANCH  18  19
ATOM     19  C   UNL d   1     -50.430  13.459  21.383  0.00  0.00     0.038 C 
ATOM     20  C   UNL d   1     -51.064  13.819  20.995  0.00  0.00     0.008 C 
ENDBRANCH  18  19
ENDBRANCH  14  18
ENDBRANCH  11  12
ENDBRANCH   1  11
TORSDOF 4
ENDMDL
MODEL 6
REMARK VINA RESULT:      -4.9      9.706     10.559
REMARK  4 active torsions:
REMARK  status: ('A' for Active; 'I' for Inactive)
REMARK    1  A    between atoms: C_9  and  N_1 
REMARK    2  A    between atoms: C_2  and  C_9 
REMARK    3  A    between atoms: S_13  and  C_5 
REMARK    4  A    between atoms: C_17  and  S_13 
ROOT
ATOM      1  N   UNL d   1     -38.877  14.614  19.366  0.00  0.00    -0.265 N 
ATOM      2  C   UNL d   1     -38.660  13.818  19.428  0.00  0.00     0.296 A 
ATOM      3  S   UNL d   1     -38.611  13.636  20.229  0.00  0.00    -0.025 SA
ATOM      4  C   UNL d   1     -38.962  14.925  20.118  0.00  0.00     0.074 A 
ATOM      5  C   UNL d   1     -38.800  14.327  20.657  0.00  0.00     0.050 A 
ATOM      6  O   UNL d   1     -38.520  13.305  18.802  0.00  0.00    -0.259 OA
ATOM      7  C   UNL d   1     -39.168  15.681  20.392  0.00  0.00     0.018 A 
ATOM      8  C   UNL d   1     -38.841  14.475  21.469  0.00  0.00     0.008 A 
ATOM      9  C   UNL d   1     -39.211  15.833  21.202  0.00  0.00     0.002 A 
ATOM     10  C   UNL d   1     -39.044  15.220  21.737  0.00  0.00     0.001 A 
ENDROOT
BRANCH   1  11
ATOM     11  C   UNL d   1     -38.990  15.032  18.663  0.00  0.00     0.123 C 
BRANCH  11  12
ATOM     12  C   UNL d   1     -39.700  14.986  18.265  0.00  0.00     0.189 A 
ATOM     13  N   UNL d   1     -39.813  15.418  17.579  0.00  0.00    -0.265 N 
ATOM     14  C   UNL d   1     -40.573  15.263  17.304  0.00  0.00     0.201 A 
ATOM     15  C   UNL d   1     -39.271  15.922  17.216  0.00  0.00     0.103 C 
ATOM     16  N   UNL d   1     -40.929  14.734  17.822  0.00  0.00    -0.121 NA
ATOM     17  N   UNL d   1     -40.387  14.565  18.416  0.00  0.00    -0.126 NA
BRANCH  14  18
ATOM     18  S   UNL d   1     -40.919  15.580  16.627  0.00  0.00    -0.048 SA
BRANCH  18  19
ATOM     19  C   UNL d   1     -41.711  15.807  16.628  0.00  0.00     0.038 C 
ATOM     20  C   UNL d   1     -42.127  15.875  15.918  0.00  0.00     0.008 C 
ENDBRANCH  18  19
ENDBRANCH  14  18
ENDBRANCH  11  12
ENDBRANCH   1  11
TORSDOF 4
ENDMDL
