MODEL 1
REMARK VINA RESULT:      36.4      0.000      0.000
REMARK  3 active torsions:
REMARK  status: ('A' for Active; 'I' for Inactive)
REMARK    1  A    between atoms: S_3  and  C_1 
REMARK    2  A    between atoms: C_7  and  N_2 
REMARK    3  A    between atoms: C_11  and  C_7 
ROOT
ATOM      1  C   UNL d   1      14.209  12.236  -1.808  0.00  0.00     0.255 A 
ATOM      2  N   UNL d   1      13.863  12.950  -1.969  0.00  0.00    -0.278 N 
ATOM      3  N   UNL d   1      14.218  11.780  -2.473  0.00  0.00    -0.215 NA
ATOM      4  C   UNL d   1      13.641  12.947  -2.775  0.00  0.00     0.084 A 
ATOM      5  C   UNL d   1      13.862  12.217  -3.090  0.00  0.00     0.100 A 
ATOM      6  C   UNL d   1      13.271  13.508  -3.254  0.00  0.00     0.019 A 
ATOM      7  C   UNL d   1      13.714  12.047  -3.883  0.00  0.00     0.021 A 
ATOM      8  C   UNL d   1      13.123  13.338  -4.048  0.00  0.00     0.002 A 
ATOM      9  C   UNL d   1      13.344  12.608  -4.363  0.00  0.00     0.002 A 
ENDROOT
BRANCH   2  10
ATOM     10  C   UNL d   1      13.740  13.584  -1.446  0.00  0.00     0.082 C 
BRANCH  10  11
ATOM     11  C   UNL d   1      14.309  14.165  -1.359  0.00  0.00     0.018 A 
ATOM     12  C   UNL d   1      14.304  14.839  -1.845  0.00  0.00     0.002 A 
ATOM     13  C   UNL d   1      14.871  15.424  -1.762  0.00  0.00     0.000 A 
ATOM     14  C   UNL d   1      15.452  15.350  -1.198  0.00  0.00     0.000 A 
ATOM     15  C   UNL d   1      15.461  14.675  -0.709  0.00  0.00     0.000 A 
ATOM     16  C   UNL d   1      14.892  14.093  -0.795  0.00  0.00     0.002 A 
ENDBRANCH  10  11
ENDBRANCH   2  10
BRANCH   1  17
ATOM     17  S   UNL d   1      14.509  12.011  -1.073  0.00  0.00     0.174 S 
ATOM     18  O   UNL d   1      15.246  11.870  -1.416  0.00  0.00    -0.589 OA
ATOM     19  O   UNL d   1      14.808  11.785  -0.338  0.00  0.00    -0.589 OA
ATOM     20  O   UNL d   1      13.771  12.151  -0.730  0.00  0.00    -0.589 OA
ENDBRANCH   1  17
TORSDOF 3
ENDMDL
MODEL 2
REMARK VINA RESULT:      37.1      1.920      2.534
REMARK  3 active torsions:
REMARK  status: ('A' for Active; 'I' for Inactive)
REMARK    1  A    between atoms: S_3  and  C_1 
REMARK    2  A    between atoms: C_7  and  N_2 
REMARK    3  A    between atoms: C_11  and  C_7 
ROOT
ATOM      1  C   UNL d   1      14.028  14.342  -3.009  0.00  0.00     0.255 A 
ATOM      2  N   UNL d   1      14.254  13.621  -2.718  0.00  0.00    -0.278 N 
ATOM      3  N   UNL d   1      13.458  14.244  -3.572  0.00  0.00    -0.215 NA
ATOM      4  C   UNL d   1      13.806  13.037  -3.115  0.00  0.00     0.084 A 
ATOM      5  C   UNL d   1      13.310  13.425  -3.647  0.00  0.00     0.100 A 
ATOM      6  C   UNL d   1      13.788  12.214  -3.059  0.00  0.00     0.019 A 
ATOM      7  C   UNL d   1      12.796  12.992  -4.125  0.00  0.00     0.021 A 
ATOM      8  C   UNL d   1      13.274  11.779  -3.537  0.00  0.00     0.002 A 
ATOM      9  C   UNL d   1      12.778  12.168  -4.069  0.00  0.00     0.002 A 
ENDROOT
BRANCH   2  10
ATOM     10  C   UNL d   1      14.823  13.466  -2.133  0.00  0.00     0.082 C 
BRANCH  10  11
ATOM     11  C   UNL d   1      14.622  13.043  -1.463  0.00  0.00     0.018 A 
ATOM     12  C   UNL d   1      14.679  12.213  -1.451  0.00  0.00     0.002 A 
ATOM     13  C   UNL d   1      14.479  11.786  -0.782  0.00  0.00     0.000 A 
ATOM     14  C   UNL d   1      14.219  12.171  -0.115  0.00  0.00     0.000 A 
ATOM     15  C   UNL d   1      14.159  13.002  -0.122  0.00  0.00     0.000 A 
ATOM     16  C   UNL d   1      14.360  13.426  -0.793  0.00  0.00     0.002 A 
ENDBRANCH  10  11
ENDBRANCH   2  10
BRANCH   1  17
ATOM     17  S   UNL d   1      14.335  15.067  -2.765  0.00  0.00     0.174 S 
ATOM     18  O   UNL d   1      14.344  14.802  -1.984  0.00  0.00    -0.589 OA
ATOM     19  O   UNL d   1      14.642  15.793  -2.522  0.00  0.00    -0.589 OA
ATOM     20  O   UNL d   1      14.326  15.334  -3.547  0.00  0.00    -0.589 OA
ENDBRANCH   1  17
TORSDOF 3
ENDMDL
MODEL 3
REMARK VINA RESULT:      37.5      2.011      2.926
REMARK  3 active torsions:
REMARK  status: ('A' for Active; 'I' for Inactive)
REMARK    1  A    between atoms: S_3  and  C_1 
REMARK    2  A    between atoms: C_7  and  N_2 
REMARK    3  A    between atoms: C_11  and  C_7 
ROOT
ATOM      1  C   UNL d   1      13.752  12.206  -3.636  0.00  0.00     0.255 A 
ATOM      2  N   UNL d   1      13.474  12.831  -3.204  0.00  0.00    -0.278 N 
ATOM      3  N   UNL d   1      14.277  11.779  -3.196  0.00  0.00    -0.215 NA
ATOM      4  C   UNL d   1      13.840  12.801  -2.453  0.00  0.00     0.084 A 
ATOM      5  C   UNL d   1      14.340  12.146  -2.447  0.00  0.00     0.100 A 
ATOM      6  C   UNL d   1      13.781  13.281  -1.784  0.00  0.00     0.019 A 
ATOM      7  C   UNL d   1      14.782  11.969  -1.774  0.00  0.00     0.021 A 
ATOM      8  C   UNL d   1      14.223  13.104  -1.109  0.00  0.00     0.002 A 
ATOM      9  C   UNL d   1      14.723  12.448  -1.104  0.00  0.00     0.002 A 
ENDROOT
BRANCH   2  10
ATOM     10  C   UNL d   1      12.927  13.409  -3.442  0.00  0.00     0.082 C 
BRANCH  10  11
ATOM     11  C   UNL d   1      13.185  14.117  -3.758  0.00  0.00     0.018 A 
ATOM     12  C   UNL d   1      13.876  14.482  -3.475  0.00  0.00     0.002 A 
ATOM     13  C   UNL d   1      14.138  15.191  -3.789  0.00  0.00     0.000 A 
ATOM     14  C   UNL d   1      13.721  15.552  -4.387  0.00  0.00     0.000 A 
ATOM     15  C   UNL d   1      13.027  15.189  -4.674  0.00  0.00     0.000 A 
ATOM     16  C   UNL d   1      12.768  14.480  -4.358  0.00  0.00     0.002 A 
ENDBRANCH  10  11
ENDBRANCH   2  10
BRANCH   1  17
ATOM     17  S   UNL d   1      13.531  12.031  -4.411  0.00  0.00     0.174 S 
ATOM     18  O   UNL d   1      14.292  12.216  -4.670  0.00  0.00    -0.589 OA
ATOM     19  O   UNL d   1      13.310  11.856  -5.187  0.00  0.00    -0.589 OA
ATOM     20  O   UNL d   1      12.769  11.846  -4.152  0.00  0.00    -0.589 OA
ENDBRANCH   1  17
TORSDOF 3
ENDMDL
