MODEL 1
REMARK VINA RESULT:      -9.4      0.000      0.000
REMARK  2 active torsions:
REMARK  status: ('A' for Active; 'I' for Inactive)
REMARK    1  A    between atoms: C_2  and  C_1 
REMARK    2  A    between atoms: C_14  and  N_5 
ROOT
ATOM      1  C   UNL d   1      52.809  32.024  53.321  0.00  0.00     0.117 A 
ATOM      2  N   UNL d   1      52.050  32.307  53.106  0.00  0.00    -0.164 NA
ATOM      3  C   UNL d   1      53.322  32.659  53.341  0.00  0.00     0.107 A 
ATOM      4  N   UNL d   1      52.110  33.108  52.997  0.00  0.00    -0.228 N 
ATOM      5  C   UNL d   1      52.901  33.330  53.142  0.00  0.00     0.112 A 
ATOM      6  C   UNL d   1      54.134  32.643  53.527  0.00  0.00     0.104 C 
ATOM      7  N   UNL d   1      54.943  32.626  53.713  0.00  0.00    -0.191 NA
ENDROOT
BRANCH   1   8
ATOM      8  C   UNL d   1      52.962  31.218  53.480  0.00  0.00     0.084 A 
ATOM      9  C   UNL d   1      53.031  30.677  52.834  0.00  0.00     0.302 A 
ATOM     10  O   UNL d   1      53.178  29.894  52.970  0.00  0.00    -0.273 OA
ATOM     11  O   UNL d   1      52.947  30.943  52.059  0.00  0.00    -0.259 OA
ATOM     12  C   UNL d   1      53.266  29.605  53.746  0.00  0.00     0.103 A 
ATOM     13  C   UNL d   1      53.199  30.138  54.376  0.00  0.00     0.023 A 
ATOM     14  C   UNL d   1      53.415  28.818  53.873  0.00  0.00     0.025 A 
ATOM     15  C   UNL d   1      53.048  30.938  54.243  0.00  0.00     0.009 A 
ATOM     16  C   UNL d   1      53.286  29.850  55.147  0.00  0.00     0.002 A 
ATOM     17  C   UNL d   1      53.435  29.058  55.268  0.00  0.00     0.000 A 
ATOM     18  C   UNL d   1      53.502  28.533  54.642  0.00  0.00     0.002 A 
ENDBRANCH   1   8
BRANCH   4  19
ATOM     19  C   UNL d   1      51.478  33.596  52.779  0.00  0.00     0.083 A 
ATOM     20  C   UNL d   1      51.462  33.960  52.037  0.00  0.00     0.019 A 
ATOM     21  C   UNL d   1      50.833  34.440  51.831  0.00  0.00     0.002 A 
ATOM     22  C   UNL d   1      50.222  34.561  52.359  0.00  0.00     0.000 A 
ATOM     23  C   UNL d   1      50.220  34.198  53.122  0.00  0.00     0.002 A 
ATOM     24  C   UNL d   1      50.866  33.711  53.320  0.00  0.00     0.019 A 
ENDBRANCH   4  19
TORSDOF 2
ENDMDL
MODEL 2
REMARK VINA RESULT:      -8.3      1.587      4.785
REMARK  2 active torsions:
REMARK  status: ('A' for Active; 'I' for Inactive)
REMARK    1  A    between atoms: C_2  and  C_1 
REMARK    2  A    between atoms: C_14  and  N_5 
ROOT
ATOM      1  C   UNL d   1      51.764  33.621  53.019  0.00  0.00     0.117 A 
ATOM      2  N   UNL d   1      51.878  32.794  52.942  0.00  0.00    -0.164 NA
ATOM      3  C   UNL d   1      52.412  33.933  53.404  0.00  0.00     0.107 A 
ATOM      4  N   UNL d   1      52.591  32.613  53.281  0.00  0.00    -0.228 N 
ATOM      5  C   UNL d   1      52.927  33.321  53.570  0.00  0.00     0.112 A 
ATOM      6  C   UNL d   1      52.543  34.732  53.603  0.00  0.00     0.104 C 
ATOM      7  N   UNL d   1      52.671  35.528  53.799  0.00  0.00    -0.191 NA
ENDROOT
BRANCH   1   8
ATOM      8  C   UNL d   1      51.083  34.012  52.732  0.00  0.00     0.084 A 
ATOM      9  C   UNL d   1      50.990  34.118  51.898  0.00  0.00     0.302 A 
ATOM     10  O   UNL d   1      50.338  34.494  51.605  0.00  0.00    -0.273 OA
ATOM     11  O   UNL d   1      51.563  33.839  51.378  0.00  0.00    -0.259 OA
ATOM     12  C   UNL d   1      49.746  34.784  52.115  0.00  0.00     0.103 A 
ATOM     13  C   UNL d   1      49.841  34.678  52.931  0.00  0.00     0.023 A 
ATOM     14  C   UNL d   1      49.095  35.160  51.811  0.00  0.00     0.025 A 
ATOM     15  C   UNL d   1      50.505  34.295  53.235  0.00  0.00     0.009 A 
ATOM     16  C   UNL d   1      49.253  34.966  53.437  0.00  0.00     0.002 A 
ATOM     17  C   UNL d   1      48.601  35.343  53.126  0.00  0.00     0.000 A 
ATOM     18  C   UNL d   1      48.510  35.446  52.317  0.00  0.00     0.002 A 
ENDBRANCH   1   8
BRANCH   4  19
ATOM     19  C   UNL d   1      52.908  31.850  53.319  0.00  0.00     0.083 A 
ATOM     20  C   UNL d   1      52.507  31.209  52.985  0.00  0.00     0.019 A 
ATOM     21  C   UNL d   1      52.828  30.458  53.029  0.00  0.00     0.002 A 
ATOM     22  C   UNL d   1      53.545  30.342  53.402  0.00  0.00     0.000 A 
ATOM     23  C   UNL d   1      53.970  30.984  53.750  0.00  0.00     0.002 A 
ATOM     24  C   UNL d   1      53.632  31.744  53.699  0.00  0.00     0.019 A 
ENDBRANCH   4  19
TORSDOF 2
ENDMDL
MODEL 3
REMARK VINA RESULT:      -8.2      2.530      3.196
REMARK  2 active torsions:
REMARK  status: ('A' for Active; 'I' for Inactive)
REMARK    1  A    between atoms: C_2  and  C_1 
REMARK    2  A    between atoms: C_14  and  N_5 
ROOT
ATOM      1  C   UNL d   1      51.951  33.744  53.273  0.00  0.00     0.117 A 
ATOM      2  N   UNL d   1      51.356  34.334  53.271  0.00  0.00    -0.164 NA
ATOM      3  C   UNL d   1      51.685  33.110  52.833  0.00  0.00     0.107 A 
ATOM      4  N   UNL d   1      50.736  34.053  52.831  0.00  0.00    -0.228 N 
ATOM      5  C   UNL d   1      50.938  33.291  52.556  0.00  0.00     0.112 A 
ATOM      6  C   UNL d   1      52.090  32.397  52.681  0.00  0.00     0.104 C 
ATOM      7  N   UNL d   1      52.494  31.688  52.532  0.00  0.00    -0.191 NA
ENDROOT
BRANCH   1   8
ATOM      8  C   UNL d   1      52.679  33.838  53.674  0.00  0.00     0.084 A 
ATOM      9  C   UNL d   1      53.203  34.457  53.438  0.00  0.00     0.302 A 
ATOM     10  O   UNL d   1      53.910  34.561  53.815  0.00  0.00    -0.273 OA
ATOM     11  O   UNL d   1      52.998  34.960  52.819  0.00  0.00    -0.259 OA
ATOM     12  C   UNL d   1      54.135  34.063  54.443  0.00  0.00     0.103 A 
ATOM     13  C   UNL d   1      53.619  33.457  54.673  0.00  0.00     0.023 A 
ATOM     14  C   UNL d   1      54.847  34.175  54.817  0.00  0.00     0.025 A 
ATOM     15  C   UNL d   1      52.897  33.347  54.291  0.00  0.00     0.009 A 
ATOM     16  C   UNL d   1      53.844  32.963  55.297  0.00  0.00     0.002 A 
ATOM     17  C   UNL d   1      54.560  33.080  55.668  0.00  0.00     0.000 A 
ATOM     18  C   UNL d   1      55.069  33.681  55.439  0.00  0.00     0.002 A 
ENDBRANCH   1   8
BRANCH   4  19
ATOM     19  C   UNL d   1      50.035  34.472  52.694  0.00  0.00     0.083 A 
ATOM     20  C   UNL d   1      49.684  34.915  53.295  0.00  0.00     0.019 A 
ATOM     21  C   UNL d   1      48.992  35.325  53.150  0.00  0.00     0.002 A 
ATOM     22  C   UNL d   1      48.649  35.296  52.409  0.00  0.00     0.000 A 
ATOM     23  C   UNL d   1      48.992  34.849  51.781  0.00  0.00     0.002 A 
ATOM     24  C   UNL d   1      49.698  34.435  51.942  0.00  0.00     0.019 A 
ENDBRANCH   4  19
TORSDOF 2
ENDMDL
MODEL 4
REMARK VINA RESULT:      -8.0      1.998      4.472
REMARK  2 active torsions:
REMARK  status: ('A' for Active; 'I' for Inactive)
REMARK    1  A    between atoms: C_2  and  C_1 
REMARK    2  A    between atoms: C_14  and  N_5 
ROOT
ATOM      1  C   UNL d   1      53.827  32.467  53.957  0.00  0.00     0.117 A 
ATOM      2  N   UNL d   1      53.332  31.804  54.089  0.00  0.00    -0.164 NA
ATOM      3  C   UNL d   1      54.449  32.231  53.485  0.00  0.00     0.107 A 
ATOM      4  N   UNL d   1      53.657  31.174  53.697  0.00  0.00    -0.228 N 
ATOM      5  C   UNL d   1      54.354  31.437  53.319  0.00  0.00     0.112 A 
ATOM      6  C   UNL d   1      55.079  32.703  53.210  0.00  0.00     0.104 C 
ATOM      7  N   UNL d   1      55.705  33.174  52.938  0.00  0.00    -0.191 NA
ENDROOT
BRANCH   1   8
ATOM      8  C   UNL d   1      53.666  33.222  54.278  0.00  0.00     0.084 A 
ATOM      9  C   UNL d   1      53.912  33.395  55.069  0.00  0.00     0.302 A 
ATOM     10  O   UNL d   1      53.764  34.120  55.393  0.00  0.00    -0.273 OA
ATOM     11  O   UNL d   1      54.305  32.826  55.515  0.00  0.00    -0.259 OA
ATOM     12  C   UNL d   1      53.368  34.710  54.958  0.00  0.00     0.103 A 
ATOM     13  C   UNL d   1      53.129  34.537  54.185  0.00  0.00     0.023 A 
ATOM     14  C   UNL d   1      53.224  35.435  55.293  0.00  0.00     0.025 A 
ATOM     15  C   UNL d   1      53.277  33.799  53.849  0.00  0.00     0.009 A 
ATOM     16  C   UNL d   1      52.735  35.123  53.754  0.00  0.00     0.002 A 
ATOM     17  C   UNL d   1      52.594  35.850  54.095  0.00  0.00     0.000 A 
ATOM     18  C   UNL d   1      52.832  36.018  54.862  0.00  0.00     0.002 A 
ENDBRANCH   1   8
BRANCH   4  19
ATOM     19  C   UNL d   1      53.333  30.413  53.690  0.00  0.00     0.083 A 
ATOM     20  C   UNL d   1      53.547  29.857  54.262  0.00  0.00     0.019 A 
ATOM     21  C   UNL d   1      53.221  29.108  54.246  0.00  0.00     0.002 A 
ATOM     22  C   UNL d   1      52.684  28.909  53.664  0.00  0.00     0.000 A 
ATOM     23  C   UNL d   1      52.453  29.462  53.070  0.00  0.00     0.002 A 
ATOM     24  C   UNL d   1      52.792  30.223  53.097  0.00  0.00     0.019 A 
ENDBRANCH   4  19
TORSDOF 2
ENDMDL
MODEL 5
REMARK VINA RESULT:      -7.4      2.067      4.547
REMARK  2 active torsions:
REMARK  status: ('A' for Active; 'I' for Inactive)
REMARK    1  A    between atoms: C_2  and  C_1 
REMARK    2  A    between atoms: C_14  and  N_5 
ROOT
ATOM      1  C   UNL d   1      52.563  33.146  53.357  0.00  0.00     0.117 A 
ATOM      2  N   UNL d   1      53.068  33.603  53.845  0.00  0.00    -0.164 NA
ATOM      3  C   UNL d   1      52.911  32.417  53.242  0.00  0.00     0.107 A 
ATOM      4  N   UNL d   1      53.715  33.148  54.021  0.00  0.00    -0.228 N 
ATOM      5  C   UNL d   1      53.621  32.408  53.646  0.00  0.00     0.112 A 
ATOM      6  C   UNL d   1      52.610  31.781  52.794  0.00  0.00     0.104 C 
ATOM      7  N   UNL d   1      52.309  31.150  52.347  0.00  0.00    -0.191 NA
ENDROOT
BRANCH   1   8
ATOM      8  C   UNL d   1      51.836  33.435  53.064  0.00  0.00     0.084 A 
ATOM      9  C   UNL d   1      51.156  33.428  53.566  0.00  0.00     0.302 A 
ATOM     10  O   UNL d   1      50.446  33.704  53.298  0.00  0.00    -0.273 OA
ATOM     11  O   UNL d   1      51.212  33.139  54.335  0.00  0.00    -0.259 OA
ATOM     12  C   UNL d   1      50.368  33.999  52.523  0.00  0.00     0.103 A 
ATOM     13  C   UNL d   1      51.035  34.005  52.033  0.00  0.00     0.023 A 
ATOM     14  C   UNL d   1      49.651  34.274  52.262  0.00  0.00     0.025 A 
ATOM     15  C   UNL d   1      51.763  33.725  52.303  0.00  0.00     0.009 A 
ATOM     16  C   UNL d   1      50.958  34.299  51.264  0.00  0.00     0.002 A 
ATOM     17  C   UNL d   1      50.235  34.574  51.008  0.00  0.00     0.000 A 
ATOM     18  C   UNL d   1      49.575  34.567  51.495  0.00  0.00     0.002 A 
ENDBRANCH   1   8
BRANCH   4  19
ATOM     19  C   UNL d   1      54.347  33.400  54.493  0.00  0.00     0.083 A 
ATOM     20  C   UNL d   1      55.034  33.705  54.151  0.00  0.00     0.019 A 
ATOM     21  C   UNL d   1      55.652  33.951  54.626  0.00  0.00     0.002 A 
ATOM     22  C   UNL d   1      55.590  33.894  55.438  0.00  0.00     0.000 A 
ATOM     23  C   UNL d   1      54.896  33.585  55.807  0.00  0.00     0.002 A 
ATOM     24  C   UNL d   1      54.273  33.338  55.312  0.00  0.00     0.019 A 
ENDBRANCH   4  19
TORSDOF 2
ENDMDL
MODEL 6
REMARK VINA RESULT:      -7.3      1.071      4.367
REMARK  2 active torsions:
REMARK  status: ('A' for Active; 'I' for Inactive)
REMARK    1  A    between atoms: C_2  and  C_1 
REMARK    2  A    between atoms: C_14  and  N_5 
ROOT
ATOM      1  C   UNL d   1      52.758  32.297  53.674  0.00  0.00     0.117 A 
ATOM      2  N   UNL d   1      52.673  31.465  53.619  0.00  0.00    -0.164 NA
ATOM      3  C   UNL d   1      53.369  32.457  54.192  0.00  0.00     0.107 A 
ATOM      4  N   UNL d   1      53.231  31.130  54.102  0.00  0.00    -0.228 N 
ATOM      5  C   UNL d   1      53.666  31.746  54.460  0.00  0.00     0.112 A 
ATOM      6  C   UNL d   1      53.652  33.208  54.419  0.00  0.00     0.104 C 
ATOM      7  N   UNL d   1      53.933  33.956  54.643  0.00  0.00    -0.191 NA
ENDROOT
BRANCH   1   8
ATOM      8  C   UNL d   1      52.273  32.830  53.250  0.00  0.00     0.084 A 
ATOM      9  C   UNL d   1      52.487  33.043  52.461  0.00  0.00     0.302 A 
ATOM     10  O   UNL d   1      52.029  33.557  52.038  0.00  0.00    -0.273 OA
ATOM     11  O   UNL d   1      53.165  32.728  52.115  0.00  0.00    -0.259 OA
ATOM     12  C   UNL d   1      51.340  33.886  52.369  0.00  0.00     0.103 A 
ATOM     13  C   UNL d   1      51.133  33.676  53.142  0.00  0.00     0.023 A 
ATOM     14  C   UNL d   1      50.886  34.402  51.936  0.00  0.00     0.025 A 
ATOM     15  C   UNL d   1      51.597  33.152  53.579  0.00  0.00     0.009 A 
ATOM     16  C   UNL d   1      50.449  34.004  53.471  0.00  0.00     0.002 A 
ATOM     17  C   UNL d   1      49.997  34.521  53.031  0.00  0.00     0.000 A 
ATOM     18  C   UNL d   1      50.204  34.727  52.265  0.00  0.00     0.002 A 
ENDBRANCH   1   8
BRANCH   4  19
ATOM     19  C   UNL d   1      53.330  30.315  54.202  0.00  0.00     0.083 A 
ATOM     20  C   UNL d   1      53.579  29.839  53.575  0.00  0.00     0.019 A 
ATOM     21  C   UNL d   1      53.673  29.034  53.684  0.00  0.00     0.002 A 
ATOM     22  C   UNL d   1      53.521  28.701  54.415  0.00  0.00     0.000 A 
ATOM     23  C   UNL d   1      53.266  29.171  55.068  0.00  0.00     0.002 A 
ATOM     24  C   UNL d   1      53.173  29.989  54.944  0.00  0.00     0.019 A 
ENDBRANCH   4  19
TORSDOF 2
ENDMDL
