MODEL 1
REMARK VINA RESULT:      56.6      0.000      0.000
REMARK  2 active torsions:
REMARK  status: ('A' for Active; 'I' for Inactive)
REMARK    1  A    between atoms: C_6  and  C_1 
REMARK    2  A    between atoms: C_9  and  C_2 
ROOT
ATOM      1  C   UNL d   1      13.930  13.704  -2.695  0.00  0.00     0.039 A 
ATOM      2  C   UNL d   1      13.887  13.732  -3.513  0.00  0.00     0.120 A 
ATOM      3  N   UNL d   1      14.139  14.479  -3.763  0.00  0.00    -0.164 NA
ATOM      4  N   UNL d   1      14.336  14.906  -3.092  0.00  0.00    -0.228 N 
ATOM      5  C   UNL d   1      14.208  14.428  -2.430  0.00  0.00     0.085 A 
ATOM      6  C   UNL d   1      14.617  15.638  -2.824  0.00  0.00     0.101 A 
ATOM      7  C   UNL d   1      14.410  14.868  -1.754  0.00  0.00     0.021 A 
ATOM      8  C   UNL d   1      14.661  15.612  -2.000  0.00  0.00     0.022 A 
ENDROOT
BRANCH   1   9
ATOM      9  C   UNL d   1      13.730  13.062  -2.217  0.00  0.00     0.006 A 
ATOM     10  C   UNL d   1      14.273  12.754  -1.692  0.00  0.00     0.018 A 
ATOM     11  C   UNL d   1      14.074  12.113  -1.215  0.00  0.00     0.085 A 
ATOM     12  C   UNL d   1      15.030  13.088  -1.639  0.00  0.00     0.005 A 
ATOM     13  C   UNL d   1      14.629  11.799  -0.680  0.00  0.00     0.061 A 
ATOM     14  N   UNL d   1      13.320  11.780  -1.268  0.00  0.00    -0.244 NA
ATOM     15  C   UNL d   1      15.381  12.139  -0.633  0.00  0.00     0.197 A 
ATOM     16  C   UNL d   1      15.578  12.774  -1.106  0.00  0.00     0.042 A 
ATOM     17  O   UNL d   1      15.928  11.825  -0.101  0.00  0.00    -0.286 OA
ATOM     18  C   UNL d   1      12.770  12.087  -1.795  0.00  0.00     0.099 A 
ATOM     19  C   UNL d   1      12.974  12.732  -2.273  0.00  0.00     0.021 A 
ENDBRANCH   1   9
BRANCH   2  20
ATOM     20  C   UNL d   1      13.635  13.123  -4.008  0.00  0.00     0.101 A 
ATOM     21  N   UNL d   1      13.995  12.384  -3.969  0.00  0.00    -0.242 NA
ATOM     22  C   UNL d   1      13.750  11.779  -4.455  0.00  0.00     0.099 A 
ATOM     23  C   UNL d   1      13.132  11.906  -4.997  0.00  0.00     0.021 A 
ATOM     24  C   UNL d   1      12.769  12.650  -5.037  0.00  0.00     0.003 A 
ATOM     25  C   UNL d   1      13.027  13.253  -4.539  0.00  0.00     0.021 A 
ENDBRANCH   2  20
TORSDOF 2
ENDMDL
MODEL 2
REMARK VINA RESULT:      57.5      1.379      2.762
REMARK  2 active torsions:
REMARK  status: ('A' for Active; 'I' for Inactive)
REMARK    1  A    between atoms: C_6  and  C_1 
REMARK    2  A    between atoms: C_9  and  C_2 
ROOT
ATOM      1  C   UNL d   1      13.799  13.084  -2.960  0.00  0.00     0.039 A 
ATOM      2  C   UNL d   1      13.827  12.366  -3.357  0.00  0.00     0.120 A 
ATOM      3  N   UNL d   1      14.055  11.780  -2.820  0.00  0.00    -0.164 NA
ATOM      4  N   UNL d   1      14.166  12.144  -2.095  0.00  0.00    -0.228 N 
ATOM      5  C   UNL d   1      14.009  12.950  -2.179  0.00  0.00     0.085 A 
ATOM      6  C   UNL d   1      14.378  12.009  -1.305  0.00  0.00     0.101 A 
ATOM      7  C   UNL d   1      14.124  13.312  -1.439  0.00  0.00     0.021 A 
ATOM      8  C   UNL d   1      14.350  12.730  -0.904  0.00  0.00     0.022 A 
ENDROOT
BRANCH   1   9
ATOM      9  C   UNL d   1      13.597  13.814  -3.286  0.00  0.00     0.006 A 
ATOM     10  C   UNL d   1      14.008  14.486  -3.075  0.00  0.00     0.018 A 
ATOM     11  C   UNL d   1      13.806  15.216  -3.401  0.00  0.00     0.085 A 
ATOM     12  C   UNL d   1      14.632  14.436  -2.532  0.00  0.00     0.005 A 
ATOM     13  C   UNL d   1      14.226  15.902  -3.186  0.00  0.00     0.061 A 
ATOM     14  N   UNL d   1      13.185  15.268  -3.942  0.00  0.00    -0.244 NA
ATOM     15  C   UNL d   1      14.847  15.842  -2.643  0.00  0.00     0.197 A 
ATOM     16  C   UNL d   1      15.047  15.119  -2.321  0.00  0.00     0.042 A 
ATOM     17  O   UNL d   1      15.261  16.524  -2.432  0.00  0.00    -0.286 OA
ATOM     18  C   UNL d   1      12.769  14.592  -4.156  0.00  0.00     0.099 A 
ATOM     19  C   UNL d   1      12.975  13.861  -3.827  0.00  0.00     0.021 A 
ENDBRANCH   1   9
BRANCH   2  20
ATOM     20  C   UNL d   1      13.658  12.245  -4.155  0.00  0.00     0.101 A 
ATOM     21  N   UNL d   1      14.201  12.466  -4.730  0.00  0.00    -0.242 NA
ATOM     22  C   UNL d   1      14.038  12.349  -5.519  0.00  0.00     0.099 A 
ATOM     23  C   UNL d   1      13.317  12.002  -5.747  0.00  0.00     0.021 A 
ATOM     24  C   UNL d   1      12.769  11.779  -5.168  0.00  0.00     0.003 A 
ATOM     25  C   UNL d   1      12.947  11.904  -4.373  0.00  0.00     0.021 A 
ENDBRANCH   2  20
TORSDOF 2
ENDMDL
MODEL 3
REMARK VINA RESULT:      59.2      1.570      3.488
REMARK  2 active torsions:
REMARK  status: ('A' for Active; 'I' for Inactive)
REMARK    1  A    between atoms: C_6  and  C_1 
REMARK    2  A    between atoms: C_9  and  C_2 
ROOT
ATOM      1  C   UNL d   1      14.051  13.348  -2.275  0.00  0.00     0.039 A 
ATOM      2  C   UNL d   1      14.194  12.566  -2.072  0.00  0.00     0.120 A 
ATOM      3  N   UNL d   1      13.889  12.080  -2.668  0.00  0.00    -0.164 NA
ATOM      4  N   UNL d   1      13.559  12.570  -3.235  0.00  0.00    -0.228 N 
ATOM      5  C   UNL d   1      13.659  13.354  -2.995  0.00  0.00     0.085 A 
ATOM      6  C   UNL d   1      13.162  12.578  -3.963  0.00  0.00     0.101 A 
ATOM      7  C   UNL d   1      13.321  13.845  -3.576  0.00  0.00     0.021 A 
ATOM      8  C   UNL d   1      13.017  13.363  -4.170  0.00  0.00     0.022 A 
ENDROOT
BRANCH   1   9
ATOM      9  C   UNL d   1      14.263  14.013  -1.837  0.00  0.00     0.006 A 
ATOM     10  C   UNL d   1      14.460  14.709  -2.214  0.00  0.00     0.018 A 
ATOM     11  C   UNL d   1      14.672  15.374  -1.776  0.00  0.00     0.085 A 
ATOM     12  C   UNL d   1      14.448  14.747  -3.042  0.00  0.00     0.005 A 
ATOM     13  C   UNL d   1      14.873  16.084  -2.162  0.00  0.00     0.061 A 
ATOM     14  N   UNL d   1      14.685  15.337  -0.951  0.00  0.00    -0.244 NA
ATOM     15  C   UNL d   1      14.858  16.112  -2.988  0.00  0.00     0.197 A 
ATOM     16  C   UNL d   1      14.648  15.454  -3.422  0.00  0.00     0.042 A 
ATOM     17  O   UNL d   1      15.058  16.818  -3.367  0.00  0.00    -0.286 OA
ATOM     18  C   UNL d   1      14.487  14.637  -0.568  0.00  0.00     0.099 A 
ATOM     19  C   UNL d   1      14.275  13.971  -1.012  0.00  0.00     0.021 A 
ENDBRANCH   1   9
BRANCH   2  20
ATOM     20  C   UNL d   1      14.577  12.304  -1.390  0.00  0.00     0.101 A 
ATOM     21  N   UNL d   1      15.384  12.151  -1.403  0.00  0.00    -0.242 NA
ATOM     22  C   UNL d   1      15.767  11.891  -0.732  0.00  0.00     0.099 A 
ATOM     23  C   UNL d   1      15.339  11.780  -0.028  0.00  0.00     0.021 A 
ATOM     24  C   UNL d   1      14.526  11.934  -0.014  0.00  0.00     0.003 A 
ATOM     25  C   UNL d   1      14.152  12.195  -0.700  0.00  0.00     0.021 A 
ENDBRANCH   2  20
TORSDOF 2
ENDMDL
