MODEL 1
REMARK VINA RESULT:      74.5      0.000      0.000
REMARK  4 active torsions:
REMARK  status: ('A' for Active; 'I' for Inactive)
REMARK    1  A    between atoms: C_6  and  N_1 
REMARK    2  A    between atoms: N_8  and  C_4 
REMARK    3  A    between atoms: N_7  and  C_10 
REMARK    4  A    between atoms: C_16  and  N_8 
ROOT
ATOM      1  N   UNL d   1     -55.900-100.059 -44.723  0.00  0.00    -0.238 N 
ATOM      2  C   UNL d   1     -55.108 -99.793 -44.589  0.00  0.00     0.269 A 
ATOM      3  C   UNL d   1     -55.961-100.833 -44.471  0.00  0.00     0.285 A 
ATOM      4  C   UNL d   1     -55.205-101.072 -44.173  0.00  0.00     0.142 A 
ATOM      5  C   UNL d   1     -54.712-100.421 -44.259  0.00  0.00     0.085 A 
ATOM      6  O   UNL d   1     -54.779 -99.064 -44.749  0.00  0.00    -0.267 OA
ATOM      7  O   UNL d   1     -56.652-101.290 -44.510  0.00  0.00    -0.265 OA
ENDROOT
BRANCH   4   8
ATOM      8  N   UNL d   1     -54.995-101.795 -43.862  0.00  0.00    -0.241 NA
BRANCH   8   9
ATOM      9  C   UNL d   1     -55.072-101.934 -43.060  0.00  0.00     0.082 A 
ATOM     10  C   UNL d   1     -55.185-102.708 -42.782  0.00  0.00     0.021 A 
ATOM     11  C   UNL d   1     -55.265-102.868 -41.976  0.00  0.00     0.019 A 
ATOM     12  C   UNL d   1     -55.231-102.228 -41.432  0.00  0.00     0.064 A 
ATOM     13  C   UNL d   1     -55.117-101.447 -41.698  0.00  0.00     0.019 A 
ATOM     14  C   UNL d   1     -55.039-101.307 -42.517  0.00  0.00     0.021 A 
BRANCH  12  15
ATOM     15  N   UNL d   1     -55.308-102.365 -40.625  0.00  0.00    -0.300 N 
ATOM     16  C   UNL d   1     -55.979-102.737 -40.344  0.00  0.00     0.107 A 
ATOM     17  C   UNL d   1     -56.067-102.878 -39.542  0.00  0.00     0.142 A 
ATOM     18  O   UNL d   1     -55.468-102.640 -39.021  0.00  0.00    -0.300 OA
ATOM     19  C   UNL d   1     -54.781-102.261 -39.300  0.00  0.00     0.142 A 
ATOM     20  C   UNL d   1     -54.711-102.128 -40.107  0.00  0.00     0.107 A 
ENDBRANCH  12  15
ENDBRANCH   8   9
ENDBRANCH   4   8
BRANCH   1  21
ATOM     21  C   UNL d   1     -56.511 -99.628 -45.046  0.00  0.00     0.097 A 
ATOM     22  C   UNL d   1     -57.207 -99.530 -44.629  0.00  0.00     0.156 A 
ATOM     23  F   UNL d   1     -57.305 -99.860 -43.883  0.00  0.00    -0.203 F 
ATOM     24  C   UNL d   1     -57.829 -99.093 -44.956  0.00  0.00     0.031 A 
ATOM     25  C   UNL d   1     -57.744 -98.758 -45.701  0.00  0.00     0.002 A 
ATOM     26  C   UNL d   1     -57.042 -98.861 -46.115  0.00  0.00     0.002 A 
ATOM     27  C   UNL d   1     -56.425 -99.297 -45.785  0.00  0.00     0.020 A 
ENDBRANCH   1  21
TORSDOF 4
ENDMDL
