MODEL 1
REMARK VINA RESULT:       1.6      0.000      0.000
REMARK  5 active torsions:
REMARK  status: ('A' for Active; 'I' for Inactive)
REMARK    1  A    between atoms: C_6  and  C_1 
REMARK       I    between atoms: C_7  and  N_8 
REMARK    2  A    between atoms: C_16  and  C_7 
REMARK    3  A    between atoms: N_8  and  C_14 
REMARK    4  A    between atoms: O_15  and  C_16 
REMARK    5  A    between atoms: C_21  and  O_15 
ROOT
ATOM      1  C   UNL d   1      58.130  -5.842  28.464  0.00  0.00     0.024 A 
ATOM      2  C   UNL d   1      58.935  -5.671  28.463  0.00  0.00     0.004 A 
ATOM      3  C   UNL d   1      57.560  -5.274  28.463  0.00  0.00     0.004 A 
ATOM      4  C   UNL d   1      58.596  -4.266  28.459  0.00  0.00     0.085 A 
ATOM      5  C   UNL d   1      57.782  -4.459  28.461  0.00  0.00     0.019 A 
ATOM      6  C   UNL d   1      59.157  -4.857  28.461  0.00  0.00     0.019 A 
ENDROOT
BRANCH   4   7
ATOM      7  N   UNL d   1      58.826  -3.417  28.457  0.00  0.00    -0.206 NA
ATOM      8  C   UNL d   1      58.934  -3.036  29.207  0.00  0.00     0.304 C 
ATOM      9  O   UNL d   1      58.836  -3.415  29.923  0.00  0.00    -0.263 OA
BRANCH   8  10
ATOM     10  C   UNL d   1      59.154  -2.228  29.205  0.00  0.00     0.185 C 
BRANCH  10  11
ATOM     11  O   UNL d   1      58.568  -1.656  29.202  0.00  0.00    -0.300 OA
BRANCH  11  12
ATOM     12  C   UNL d   1      58.764  -0.869  29.425  0.00  0.00     0.100 A 
ATOM     13  C   UNL d   1      59.444  -0.505  29.135  0.00  0.00     0.025 A 
ATOM     14  C   UNL d   1      59.633   0.256  29.351  0.00  0.00     0.002 A 
ATOM     15  C   UNL d   1      59.146   0.672  29.861  0.00  0.00     0.000 A 
ATOM     16  C   UNL d   1      58.462   0.319  30.157  0.00  0.00     0.002 A 
ATOM     17  C   UNL d   1      58.273  -0.442  29.942  0.00  0.00     0.025 A 
ENDBRANCH  11  12
ENDBRANCH  10  11
ENDBRANCH   8  10
ENDBRANCH   4   7
BRANCH   1  18
ATOM     18  C   UNL d   1      57.911  -6.649  28.466  0.00  0.00     0.111 A 
ATOM     19  N   UNL d   1      58.424  -7.271  28.468  0.00  0.00    -0.239 NA
ATOM     20  C   UNL d   1      57.995  -7.957  28.470  0.00  0.00     0.088 A 
ATOM     21  C   UNL d   1      58.196  -8.753  28.472  0.00  0.00     0.020 A 
ATOM     22  C   UNL d   1      57.179  -7.735  28.469  0.00  0.00     0.049 A 
ATOM     23  C   UNL d   1      57.624  -9.322  28.474  0.00  0.00     0.002 A 
ATOM     24  C   UNL d   1      56.808  -9.101  28.473  0.00  0.00     0.001 A 
ATOM     25  C   UNL d   1      56.584  -8.316  28.471  0.00  0.00     0.008 A 
ATOM     26  C   UNL d   1      56.214  -9.681  28.475  0.00  0.00     0.000 C 
ATOM     27  S   UNL d   1      57.137  -6.922  28.467  0.00  0.00    -0.066 SA
ENDBRANCH   1  18
TORSDOF 5
ENDMDL
MODEL 2
REMARK VINA RESULT:       2.6      1.759      2.118
REMARK  5 active torsions:
REMARK  status: ('A' for Active; 'I' for Inactive)
REMARK    1  A    between atoms: C_6  and  C_1 
REMARK       I    between atoms: C_7  and  N_8 
REMARK    2  A    between atoms: C_16  and  C_7 
REMARK    3  A    between atoms: N_8  and  C_14 
REMARK    4  A    between atoms: O_15  and  C_16 
REMARK    5  A    between atoms: C_21  and  O_15 
ROOT
ATOM      1  C   UNL d   1      60.372  -5.488  28.455  0.00  0.00     0.024 A 
ATOM      2  C   UNL d   1      61.113  -5.129  28.455  0.00  0.00     0.004 A 
ATOM      3  C   UNL d   1      59.683  -5.073  28.455  0.00  0.00     0.004 A 
ATOM      4  C   UNL d   1      60.446  -3.846  28.455  0.00  0.00     0.085 A 
ATOM      5  C   UNL d   1      59.702  -4.228  28.455  0.00  0.00     0.019 A 
ATOM      6  C   UNL d   1      61.132  -4.285  28.455  0.00  0.00     0.019 A 
ENDROOT
BRANCH   4   7
ATOM      7  N   UNL d   1      60.467  -2.966  28.455  0.00  0.00    -0.206 NA
ATOM      8  C   UNL d   1      60.300  -2.568  29.185  0.00  0.00     0.304 C 
ATOM      9  O   UNL d   1      60.123  -2.958  29.880  0.00  0.00    -0.263 OA
BRANCH   8  10
ATOM     10  C   UNL d   1      60.319  -1.732  29.185  0.00  0.00     0.185 C 
BRANCH  10  11
ATOM     11  O   UNL d   1      59.869  -1.322  29.733  0.00  0.00    -0.300 OA
BRANCH  11  12
ATOM     12  C   UNL d   1      59.421  -0.657  29.480  0.00  0.00     0.100 A 
ATOM     13  C   UNL d   1      59.769  -0.058  29.033  0.00  0.00     0.025 A 
ATOM     14  C   UNL d   1      59.336   0.585  28.789  0.00  0.00     0.002 A 
ATOM     15  C   UNL d   1      58.543   0.644  28.985  0.00  0.00     0.000 A 
ATOM     16  C   UNL d   1      58.183   0.052  29.432  0.00  0.00     0.002 A 
ATOM     17  C   UNL d   1      58.617  -0.591  29.676  0.00  0.00     0.025 A 
ENDBRANCH  11  12
ENDBRANCH  10  11
ENDBRANCH   8  10
ENDBRANCH   4   7
BRANCH   1  18
ATOM     18  C   UNL d   1      60.353  -6.324  28.455  0.00  0.00     0.111 A 
ATOM     19  N   UNL d   1      61.000  -6.805  28.455  0.00  0.00    -0.239 NA
ATOM     20  C   UNL d   1      60.747  -7.573  28.455  0.00  0.00     0.088 A 
ATOM     21  C   UNL d   1      61.133  -8.298  28.455  0.00  0.00     0.020 A 
ATOM     22  C   UNL d   1      59.902  -7.554  28.455  0.00  0.00     0.049 A 
ATOM     23  C   UNL d   1      60.714  -8.988  28.455  0.00  0.00     0.002 A 
ATOM     24  C   UNL d   1      59.869  -8.968  28.455  0.00  0.00     0.001 A 
ATOM     25  C   UNL d   1      59.463  -8.259  28.455  0.00  0.00     0.008 A 
ATOM     26  C   UNL d   1      59.430  -9.674  28.455  0.00  0.00     0.000 C 
ATOM     27  S   UNL d   1      59.666  -6.774  28.455  0.00  0.00    -0.066 SA
ENDBRANCH   1  18
TORSDOF 5
ENDMDL
