MODEL 1
REMARK VINA RESULT:      -8.0      0.000      0.000
REMARK  3 active torsions:
REMARK  status: ('A' for Active; 'I' for Inactive)
REMARK       I    between atoms: C_4  and  N_1 
REMARK    1  A    between atoms: N_3  and  C_2 
REMARK    2  A    between atoms: C_9  and  C_4 
REMARK    3  A    between atoms: N_10  and  C_5 
ROOT
ATOM      1  C   UNL d   1      51.439  33.728  52.342  0.00  0.00     0.143 A 
ATOM      2  C   UNL d   1      50.798  33.687  52.897  0.00  0.00     0.086 A 
ATOM      3  C   UNL d   1      52.047  33.158  52.409  0.00  0.00     0.030 A 
ATOM      4  C   UNL d   1      52.008  32.586  52.999  0.00  0.00     0.058 A 
ATOM      5  C   UNL d   1      50.790  33.108  53.470  0.00  0.00     0.019 A 
ATOM      6  C   UNL d   1      51.399  32.559  53.514  0.00  0.00     0.006 A 
ENDROOT
BRANCH   4   7
ATOM      7  C   UNL d   1      52.626  32.036  53.038  0.00  0.00     0.265 C 
ATOM      8  N   UNL d   1      53.263  32.192  53.565  0.00  0.00    -0.275 N 
ATOM      9  C   UNL d   1      53.924  31.712  53.678  0.00  0.00     0.067 A 
ATOM     10  C   UNL d   1      53.332  32.853  54.056  0.00  0.00     0.067 A 
ATOM     11  C   UNL d   1      54.388  32.064  54.223  0.00  0.00     0.019 A 
ATOM     12  C   UNL d   1      54.291  30.784  53.296  0.00  0.00     0.019 C 
ATOM     13  C   UNL d   1      54.040  32.774  54.472  0.00  0.00     0.018 A 
ATOM     14  C   UNL d   1      54.261  33.357  55.012  0.00  0.00     0.002 A 
ATOM     15  C   UNL d   1      53.777  33.998  55.123  0.00  0.00     0.000 A 
ATOM     16  C   UNL d   1      53.078  34.082  54.717  0.00  0.00     0.002 A 
ATOM     17  C   UNL d   1      52.850  33.504  54.176  0.00  0.00     0.018 A 
ATOM     18  O   UNL d   1      52.634  31.344  52.576  0.00  0.00    -0.267 OA
ENDBRANCH   4   7
BRANCH   1  19
ATOM     19  N   UNL d   1      51.453  34.319  51.754  0.00  0.00    -0.112 N 
ATOM     20  O   UNL d   1      51.857  35.051  51.894  0.00  0.00    -0.532 OA
ATOM     21  O   UNL d   1      51.073  34.202  51.026  0.00  0.00    -0.532 OA
ENDBRANCH   1  19
BRANCH   2  22
ATOM     22  N   UNL d   1      50.182  34.245  52.849  0.00  0.00    -0.302 N 
ATOM     23  C   UNL d   1      49.608  34.223  52.231  0.00  0.00     0.080 A 
ATOM     24  C   UNL d   1      49.006  34.786  52.203  0.00  0.00     0.019 A 
ATOM     25  C   UNL d   1      48.958  35.372  52.772  0.00  0.00     0.003 A 
ATOM     26  C   UNL d   1      49.511  35.416  53.393  0.00  0.00     0.019 A 
ATOM     27  C   UNL d   1      50.114  34.855  53.424  0.00  0.00     0.080 A 
ENDBRANCH   2  22
TORSDOF 3
ENDMDL
MODEL 2
REMARK VINA RESULT:      -6.9      1.337      2.212
REMARK  3 active torsions:
REMARK  status: ('A' for Active; 'I' for Inactive)
REMARK       I    between atoms: C_4  and  N_1 
REMARK    1  A    between atoms: N_3  and  C_2 
REMARK    2  A    between atoms: C_9  and  C_4 
REMARK    3  A    between atoms: N_10  and  C_5 
ROOT
ATOM      1  C   UNL d   1      51.041  34.139  53.326  0.00  0.00     0.143 A 
ATOM      2  C   UNL d   1      51.121  34.320  52.501  0.00  0.00     0.086 A 
ATOM      3  C   UNL d   1      51.743  34.066  53.776  0.00  0.00     0.030 A 
ATOM      4  C   UNL d   1      52.474  34.169  53.413  0.00  0.00     0.058 A 
ATOM      5  C   UNL d   1      51.860  34.416  52.172  0.00  0.00     0.019 A 
ATOM      6  C   UNL d   1      52.534  34.338  52.636  0.00  0.00     0.006 A 
ENDROOT
BRANCH   4   7
ATOM      7  C   UNL d   1      53.149  34.089  53.887  0.00  0.00     0.265 C 
ATOM      8  N   UNL d   1      53.518  33.334  53.928  0.00  0.00    -0.275 N 
ATOM      9  C   UNL d   1      54.190  33.149  54.368  0.00  0.00     0.067 A 
ATOM     10  C   UNL d   1      53.267  32.652  53.533  0.00  0.00     0.067 A 
ATOM     11  C   UNL d   1      54.351  32.376  54.250  0.00  0.00     0.019 A 
ATOM     12  C   UNL d   1      54.862  33.661  55.022  0.00  0.00     0.019 C 
ATOM     13  C   UNL d   1      53.791  32.048  53.735  0.00  0.00     0.018 A 
ATOM     14  C   UNL d   1      53.681  31.293  53.422  0.00  0.00     0.002 A 
ATOM     15  C   UNL d   1      53.058  31.159  52.921  0.00  0.00     0.000 A 
ATOM     16  C   UNL d   1      52.537  31.751  52.718  0.00  0.00     0.002 A 
ATOM     17  C   UNL d   1      52.641  32.507  53.026  0.00  0.00     0.018 A 
ATOM     18  O   UNL d   1      53.467  34.726  54.317  0.00  0.00    -0.267 OA
ENDBRANCH   4   7
BRANCH   1  19
ATOM     19  N   UNL d   1      50.288  34.040  53.668  0.00  0.00    -0.112 N 
ATOM     20  O   UNL d   1      49.933  33.271  53.702  0.00  0.00    -0.532 OA
ATOM     21  O   UNL d   1      49.874  34.689  53.978  0.00  0.00    -0.532 OA
ENDBRANCH   1  19
BRANCH   2  22
ATOM     22  N   UNL d   1      50.436  34.398  52.034  0.00  0.00    -0.302 N 
ATOM     23  C   UNL d   1      49.805  34.916  52.250  0.00  0.00     0.080 A 
ATOM     24  C   UNL d   1      49.136  34.977  51.772  0.00  0.00     0.019 A 
ATOM     25  C   UNL d   1      49.075  34.538  51.085  0.00  0.00     0.003 A 
ATOM     26  C   UNL d   1      49.682  34.020  50.848  0.00  0.00     0.019 A 
ATOM     27  C   UNL d   1      50.353  33.956  51.324  0.00  0.00     0.080 A 
ENDBRANCH   2  22
TORSDOF 3
ENDMDL
MODEL 3
REMARK VINA RESULT:      -6.7      1.739      4.297
REMARK  3 active torsions:
REMARK  status: ('A' for Active; 'I' for Inactive)
REMARK       I    between atoms: C_4  and  N_1 
REMARK    1  A    between atoms: N_3  and  C_2 
REMARK    2  A    between atoms: C_9  and  C_4 
REMARK    3  A    between atoms: N_10  and  C_5 
ROOT
ATOM      1  C   UNL d   1      53.698  31.432  53.392  0.00  0.00     0.143 A 
ATOM      2  C   UNL d   1      53.334  31.092  54.080  0.00  0.00     0.086 A 
ATOM      3  C   UNL d   1      53.814  32.260  53.385  0.00  0.00     0.030 A 
ATOM      4  C   UNL d   1      53.576  32.712  54.030  0.00  0.00     0.058 A 
ATOM      5  C   UNL d   1      53.111  31.568  54.703  0.00  0.00     0.019 A 
ATOM      6  C   UNL d   1      53.236  32.379  54.670  0.00  0.00     0.006 A 
ENDROOT
BRANCH   4   7
ATOM      7  C   UNL d   1      53.705  33.529  53.990  0.00  0.00     0.265 C 
ATOM      8  N   UNL d   1      53.066  34.021  53.749  0.00  0.00    -0.275 N 
ATOM      9  C   UNL d   1      53.089  34.842  53.677  0.00  0.00     0.067 A 
ATOM     10  C   UNL d   1      52.308  33.760  53.545  0.00  0.00     0.067 A 
ATOM     11  C   UNL d   1      52.368  35.083  53.435  0.00  0.00     0.019 A 
ATOM     12  C   UNL d   1      53.808  35.619  53.819  0.00  0.00     0.019 C 
ATOM     13  C   UNL d   1      51.867  34.429  53.347  0.00  0.00     0.018 A 
ATOM     14  C   UNL d   1      51.080  34.343  53.117  0.00  0.00     0.002 A 
ATOM     15  C   UNL d   1      50.754  33.601  53.090  0.00  0.00     0.000 A 
ATOM     16  C   UNL d   1      51.184  32.938  53.284  0.00  0.00     0.002 A 
ATOM     17  C   UNL d   1      51.970  33.016  53.515  0.00  0.00     0.018 A 
ATOM     18  O   UNL d   1      54.439  33.873  54.179  0.00  0.00    -0.267 OA
ENDBRANCH   4   7
BRANCH   1  19
ATOM     19  N   UNL d   1      53.928  30.950  52.753  0.00  0.00    -0.112 N 
ATOM     20  O   UNL d   1      53.387  30.794  52.119  0.00  0.00    -0.532 OA
ATOM     21  O   UNL d   1      54.687  30.615  52.726  0.00  0.00    -0.532 OA
ENDBRANCH   1  19
BRANCH   2  22
ATOM     22  N   UNL d   1      53.210  30.270  54.110  0.00  0.00    -0.302 N 
ATOM     23  C   UNL d   1      52.618  29.891  53.641  0.00  0.00     0.080 A 
ATOM     24  C   UNL d   1      52.512  29.074  53.686  0.00  0.00     0.019 A 
ATOM     25  C   UNL d   1      52.978  28.622  54.184  0.00  0.00     0.003 A 
ATOM     26  C   UNL d   1      53.568  28.969  54.657  0.00  0.00     0.019 A 
ATOM     27  C   UNL d   1      53.677  29.786  54.614  0.00  0.00     0.080 A 
ENDBRANCH   2  22
TORSDOF 3
ENDMDL
MODEL 4
REMARK VINA RESULT:      -6.5      1.858      4.329
REMARK  3 active torsions:
REMARK  status: ('A' for Active; 'I' for Inactive)
REMARK       I    between atoms: C_4  and  N_1 
REMARK    1  A    between atoms: N_3  and  C_2 
REMARK    2  A    between atoms: C_9  and  C_4 
REMARK    3  A    between atoms: N_10  and  C_5 
ROOT
ATOM      1  C   UNL d   1      52.423  30.648  53.510  0.00  0.00     0.143 A 
ATOM      2  C   UNL d   1      53.213  30.479  53.769  0.00  0.00     0.086 A 
ATOM      3  C   UNL d   1      52.277  31.402  53.177  0.00  0.00     0.030 A 
ATOM      4  C   UNL d   1      52.892  31.945  53.111  0.00  0.00     0.058 A 
ATOM      5  C   UNL d   1      53.799  31.040  53.690  0.00  0.00     0.019 A 
ATOM      6  C   UNL d   1      53.630  31.772  53.360  0.00  0.00     0.006 A 
ENDROOT
BRANCH   4   7
ATOM      7  C   UNL d   1      52.714  32.682  52.777  0.00  0.00     0.265 C 
ATOM      8  N   UNL d   1      52.886  33.373  53.225  0.00  0.00    -0.275 N 
ATOM      9  C   UNL d   1      52.749  34.150  52.985  0.00  0.00     0.067 A 
ATOM     10  C   UNL d   1      53.222  33.387  53.980  0.00  0.00     0.067 A 
ATOM     11  C   UNL d   1      52.992  34.631  53.574  0.00  0.00     0.019 A 
ATOM     12  C   UNL d   1      52.347  34.644  52.128  0.00  0.00     0.019 C 
ATOM     13  C   UNL d   1      53.290  34.179  54.201  0.00  0.00     0.018 A 
ATOM     14  C   UNL d   1      53.610  34.369  54.937  0.00  0.00     0.002 A 
ATOM     15  C   UNL d   1      53.853  33.773  55.430  0.00  0.00     0.000 A 
ATOM     16  C   UNL d   1      53.789  32.990  55.218  0.00  0.00     0.002 A 
ATOM     17  C   UNL d   1      53.470  32.792  54.484  0.00  0.00     0.018 A 
ATOM     18  O   UNL d   1      52.374  32.756  52.021  0.00  0.00    -0.267 OA
ENDBRANCH   4   7
BRANCH   1  19
ATOM     19  N   UNL d   1      51.820  30.078  53.589  0.00  0.00    -0.112 N 
ATOM     20  O   UNL d   1      51.715  29.484  52.993  0.00  0.00    -0.532 OA
ATOM     21  O   UNL d   1      51.315  30.083  54.247  0.00  0.00    -0.532 OA
ENDBRANCH   1  19
BRANCH   2  22
ATOM     22  N   UNL d   1      53.381  29.736  54.104  0.00  0.00    -0.302 N 
ATOM     23  C   UNL d   1      53.697  29.101  53.646  0.00  0.00     0.080 A 
ATOM     24  C   UNL d   1      53.856  28.372  53.999  0.00  0.00     0.019 A 
ATOM     25  C   UNL d   1      53.708  28.255  54.795  0.00  0.00     0.003 A 
ATOM     26  C   UNL d   1      53.396  28.864  55.269  0.00  0.00     0.019 A 
ATOM     27  C   UNL d   1      53.236  29.594  54.920  0.00  0.00     0.080 A 
ENDBRANCH   2  22
TORSDOF 3
ENDMDL
MODEL 5
REMARK VINA RESULT:      -5.7      1.263      4.720
REMARK  3 active torsions:
REMARK  status: ('A' for Active; 'I' for Inactive)
REMARK       I    between atoms: C_4  and  N_1 
REMARK    1  A    between atoms: N_3  and  C_2 
REMARK    2  A    between atoms: C_9  and  C_4 
REMARK    3  A    between atoms: N_10  and  C_5 
ROOT
ATOM      1  C   UNL d   1      51.661  34.510  53.277  0.00  0.00     0.143 A 
ATOM      2  C   UNL d   1      51.528  33.679  53.389  0.00  0.00     0.086 A 
ATOM      3  C   UNL d   1      50.997  35.018  53.317  0.00  0.00     0.030 A 
ATOM      4  C   UNL d   1      50.250  34.703  53.461  0.00  0.00     0.058 A 
ATOM      5  C   UNL d   1      50.776  33.400  53.530  0.00  0.00     0.019 A 
ATOM      6  C   UNL d   1      50.141  33.919  53.565  0.00  0.00     0.006 A 
ENDROOT
BRANCH   4   7
ATOM      7  C   UNL d   1      49.614  35.233  53.495  0.00  0.00     0.265 C 
ATOM      8  N   UNL d   1      49.099  35.276  52.831  0.00  0.00    -0.275 N 
ATOM      9  C   UNL d   1      48.440  35.768  52.764  0.00  0.00     0.067 A 
ATOM     10  C   UNL d   1      49.168  34.833  52.137  0.00  0.00     0.067 A 
ATOM     11  C   UNL d   1      48.111  35.633  52.049  0.00  0.00     0.019 A 
ATOM     12  C   UNL d   1      47.946  36.500  53.364  0.00  0.00     0.019 C 
ATOM     13  C   UNL d   1      48.545  35.057  51.643  0.00  0.00     0.018 A 
ATOM     14  C   UNL d   1      48.469  34.704  50.901  0.00  0.00     0.002 A 
ATOM     15  C   UNL d   1      49.007  34.143  50.672  0.00  0.00     0.000 A 
ATOM     16  C   UNL d   1      49.623  33.918  51.154  0.00  0.00     0.002 A 
ATOM     17  C   UNL d   1      49.706  34.266  51.896  0.00  0.00     0.018 A 
ATOM     18  O   UNL d   1      49.474  35.716  54.158  0.00  0.00    -0.267 OA
ENDBRANCH   4   7
BRANCH   1  19
ATOM     19  N   UNL d   1      52.428  34.801  53.132  0.00  0.00    -0.112 N 
ATOM     20  O   UNL d   1      52.909  35.076  53.775  0.00  0.00    -0.532 OA
ATOM     21  O   UNL d   1      52.733  34.827  52.361  0.00  0.00    -0.532 OA
ENDBRANCH   1  19
BRANCH   2  22
ATOM     22  N   UNL d   1      52.175  33.157  53.353  0.00  0.00    -0.302 N 
ATOM     23  C   UNL d   1      52.716  33.071  53.995  0.00  0.00     0.080 A 
ATOM     24  C   UNL d   1      53.350  32.546  53.938  0.00  0.00     0.019 A 
ATOM     25  C   UNL d   1      53.462  32.103  53.259  0.00  0.00     0.003 A 
ATOM     26  C   UNL d   1      52.943  32.168  52.611  0.00  0.00     0.019 A 
ATOM     27  C   UNL d   1      52.308  32.692  52.665  0.00  0.00     0.080 A 
ENDBRANCH   2  22
TORSDOF 3
ENDMDL
MODEL 6
REMARK VINA RESULT:      -5.6      1.893      2.855
REMARK  3 active torsions:
REMARK  status: ('A' for Active; 'I' for Inactive)
REMARK       I    between atoms: C_4  and  N_1 
REMARK    1  A    between atoms: N_3  and  C_2 
REMARK    2  A    between atoms: C_9  and  C_4 
REMARK    3  A    between atoms: N_10  and  C_5 
ROOT
ATOM      1  C   UNL d   1      52.312  33.082  53.365  0.00  0.00     0.143 A 
ATOM      2  C   UNL d   1      53.066  33.384  53.611  0.00  0.00     0.086 A 
ATOM      3  C   UNL d   1      52.287  32.300  53.066  0.00  0.00     0.030 A 
ATOM      4  C   UNL d   1      52.979  31.857  53.022  0.00  0.00     0.058 A 
ATOM      5  C   UNL d   1      53.732  32.919  53.554  0.00  0.00     0.019 A 
ATOM      6  C   UNL d   1      53.681  32.155  53.258  0.00  0.00     0.006 A 
ENDROOT
BRANCH   4   7
ATOM      7  C   UNL d   1      52.919  31.088  52.722  0.00  0.00     0.265 C 
ATOM      8  N   UNL d   1      53.023  30.445  53.255  0.00  0.00    -0.275 N 
ATOM      9  C   UNL d   1      52.984  29.645  53.060  0.00  0.00     0.067 A 
ATOM     10  C   UNL d   1      53.182  30.510  54.064  0.00  0.00     0.067 A 
ATOM     11  C   UNL d   1      53.115  29.226  53.726  0.00  0.00     0.019 A 
ATOM     12  C   UNL d   1      52.810  29.062  52.181  0.00  0.00     0.019 C 
ATOM     13  C   UNL d   1      53.240  29.742  54.362  0.00  0.00     0.018 A 
ATOM     14  C   UNL d   1      53.398  29.630  55.164  0.00  0.00     0.002 A 
ATOM     15  C   UNL d   1      53.493  30.276  55.644  0.00  0.00     0.000 A 
ATOM     16  C   UNL d   1      53.437  31.035  55.356  0.00  0.00     0.002 A 
ATOM     17  C   UNL d   1      53.280  31.156  54.556  0.00  0.00     0.018 A 
ATOM     18  O   UNL d   1      52.761  30.935  51.919  0.00  0.00    -0.267 OA
ENDBRANCH   4   7
BRANCH   1  19
ATOM     19  N   UNL d   1      51.627  33.553  53.421  0.00  0.00    -0.112 N 
ATOM     20  O   UNL d   1      51.392  34.043  52.770  0.00  0.00    -0.532 OA
ATOM     21  O   UNL d   1      51.167  33.551  54.111  0.00  0.00    -0.532 OA
ENDBRANCH   1  19
BRANCH   2  22
ATOM     22  N   UNL d   1      53.114  34.159  53.911  0.00  0.00    -0.302 N 
ATOM     23  C   UNL d   1      53.142  34.833  53.404  0.00  0.00     0.080 A 
ATOM     24  C   UNL d   1      53.190  35.592  53.723  0.00  0.00     0.019 A 
ATOM     25  C   UNL d   1      53.211  35.701  54.534  0.00  0.00     0.003 A 
ATOM     26  C   UNL d   1      53.186  35.054  55.057  0.00  0.00     0.019 A 
ATOM     27  C   UNL d   1      53.138  34.294  54.741  0.00  0.00     0.080 A 
ENDBRANCH   2  22
TORSDOF 3
ENDMDL
MODEL 7
REMARK VINA RESULT:      -5.2      1.213      4.411
REMARK  3 active torsions:
REMARK  status: ('A' for Active; 'I' for Inactive)
REMARK       I    between atoms: C_4  and  N_1 
REMARK    1  A    between atoms: N_3  and  C_2 
REMARK    2  A    between atoms: C_9  and  C_4 
REMARK    3  A    between atoms: N_10  and  C_5 
ROOT
ATOM      1  C   UNL d   1      51.761  34.408  52.659  0.00  0.00     0.143 A 
ATOM      2  C   UNL d   1      51.673  33.846  53.290  0.00  0.00     0.086 A 
ATOM      3  C   UNL d   1      51.100  34.540  52.164  0.00  0.00     0.030 A 
ATOM      4  C   UNL d   1      50.399  34.131  52.298  0.00  0.00     0.058 A 
ATOM      5  C   UNL d   1      50.965  33.458  53.396  0.00  0.00     0.019 A 
ATOM      6  C   UNL d   1      50.331  33.605  52.895  0.00  0.00     0.006 A 
ENDROOT
BRANCH   4   7
ATOM      7  C   UNL d   1      49.765  34.285  51.789  0.00  0.00     0.265 C 
ATOM      8  N   UNL d   1      49.148  34.787  52.065  0.00  0.00    -0.275 N 
ATOM      9  C   UNL d   1      48.475  35.002  51.640  0.00  0.00     0.067 A 
ATOM     10  C   UNL d   1      49.114  35.146  52.809  0.00  0.00     0.067 A 
ATOM     11  C   UNL d   1      48.038  35.481  52.106  0.00  0.00     0.019 A 
ATOM     12  C   UNL d   1      48.067  34.810  50.672  0.00  0.00     0.019 C 
ATOM     13  C   UNL d   1      48.415  35.584  52.836  0.00  0.00     0.018 A 
ATOM     14  C   UNL d   1      48.228  36.008  53.518  0.00  0.00     0.002 A 
ATOM     15  C   UNL d   1      48.736  35.987  54.150  0.00  0.00     0.000 A 
ATOM     16  C   UNL d   1      49.426  35.557  54.129  0.00  0.00     0.002 A 
ATOM     17  C   UNL d   1      49.621  35.131  53.452  0.00  0.00     0.018 A 
ATOM     18  O   UNL d   1      49.721  33.963  51.023  0.00  0.00    -0.267 OA
ENDBRANCH   4   7
BRANCH   1  19
ATOM     19  N   UNL d   1      52.483  34.808  52.546  0.00  0.00    -0.112 N 
ATOM     20  O   UNL d   1      53.043  34.526  51.975  0.00  0.00    -0.532 OA
ATOM     21  O   UNL d   1      52.665  35.486  52.988  0.00  0.00    -0.532 OA
ENDBRANCH   1  19
BRANCH   2  22
ATOM     22  N   UNL d   1      52.318  33.699  53.795  0.00  0.00    -0.302 N 
ATOM     23  C   UNL d   1      52.518  34.222  54.427  0.00  0.00     0.080 A 
ATOM     24  C   UNL d   1      53.161  34.056  54.916  0.00  0.00     0.019 A 
ATOM     25  C   UNL d   1      53.612  33.384  54.795  0.00  0.00     0.003 A 
ATOM     26  C   UNL d   1      53.437  32.852  54.180  0.00  0.00     0.019 A 
ATOM     27  C   UNL d   1      52.794  33.014  53.689  0.00  0.00     0.080 A 
ENDBRANCH   2  22
TORSDOF 3
ENDMDL
