MODEL 1
REMARK VINA RESULT:      78.0      0.000      0.000
REMARK  9 active torsions:
REMARK  status: ('A' for Active; 'I' for Inactive)
REMARK    1  A    between atoms: C_9  and  N_1 
REMARK    2  A    between atoms: S_8  and  C_2 
REMARK    3  A    between atoms: C_7  and  C_12 
REMARK       I    between atoms: N_13  and  C_7 
REMARK    4  A    between atoms: C_26  and  S_8 
REMARK    5  A    between atoms: C_27  and  N_13 
REMARK    6  A    between atoms: C_15  and  C_27 
REMARK    7  A    between atoms: C_16  and  C_26 
REMARK    8  A    between atoms: O_31  and  C_16 
REMARK    9  A    between atoms: C_33  and  O_31 
ROOT
ATOM      1  N   UNL d   1      45.447 -16.459  38.387  0.00  0.00    -0.254 N 
ATOM      2  C   UNL d   1      44.726 -16.816  38.258  0.00  0.00     0.182 A 
ATOM      3  C   UNL d   1      45.913 -16.681  39.026  0.00  0.00     0.268 A 
ATOM      4  N   UNL d   1      44.470 -17.400  38.772  0.00  0.00    -0.222 NA
ATOM      5  C   UNL d   1      45.660 -17.261  39.538  0.00  0.00     0.074 A 
ATOM      6  C   UNL d   1      44.928 -17.630  39.414  0.00  0.00     0.088 A 
ATOM      7  C   UNL d   1      44.663 -18.221  39.931  0.00  0.00     0.024 A 
ATOM      8  C   UNL d   1      46.119 -17.493  40.183  0.00  0.00     0.006 A 
ATOM      9  C   UNL d   1      45.131 -18.444  40.573  0.00  0.00     0.059 A 
ATOM     10  O   UNL d   1      46.645 -16.312  39.150  0.00  0.00    -0.267 OA
ATOM     11  C   UNL d   1      45.864 -18.076  40.698  0.00  0.00     0.005 A 
ENDROOT
BRANCH   9  12
ATOM     12  C   UNL d   1      44.870 -19.037  41.094  0.00  0.00     0.279 C 
ATOM     13  N   UNL d   1      45.264 -19.146  41.793  0.00  0.00    -0.204 NA
ATOM     14  O   UNL d   1      44.220 -19.493  40.883  0.00  0.00    -0.265 OA
BRANCH  13  15
ATOM     15  C   UNL d   1      45.911 -18.679  41.986  0.00  0.00     0.127 C 
BRANCH  15  16
ATOM     16  C   UNL d   1      46.188 -18.659  42.762  0.00  0.00     0.119 A 
ATOM     17  O   UNL d   1      46.418 -19.236  43.281  0.00  0.00    -0.304 OA
ATOM     18  C   UNL d   1      46.647 -18.895  43.991  0.00  0.00     0.123 A 
ATOM     19  C   UNL d   1      46.551 -18.078  43.893  0.00  0.00     0.029 A 
ATOM     20  C   UNL d   1      46.272 -17.928  43.149  0.00  0.00     0.028 A 
ENDBRANCH  15  16
ENDBRANCH  13  15
ENDBRANCH   9  12
BRANCH   2  21
ATOM     21  S   UNL d   1      44.258 -16.593  37.616  0.00  0.00    -0.044 SA
BRANCH  21  22
ATOM     22  C   UNL d   1      43.458 -16.767  37.609  0.00  0.00     0.107 C 
BRANCH  22  23
ATOM     23  C   UNL d   1      42.950 -16.315  37.142  0.00  0.00     0.307 C 
ATOM     24  O   UNL d   1      42.757 -16.553  36.373  0.00  0.00    -0.258 OA
BRANCH  23  25
ATOM     25  O   UNL d   1      42.631 -15.616  37.455  0.00  0.00    -0.271 OA
BRANCH  25  26
ATOM     26  C   UNL d   1      42.246 -15.093  36.947  0.00  0.00     0.126 C 
ATOM     27  C   UNL d   1      42.031 -14.363  37.232  0.00  0.00     0.029 C 
ENDBRANCH  25  26
ENDBRANCH  23  25
ENDBRANCH  22  23
ENDBRANCH  21  22
ENDBRANCH   2  21
BRANCH   1  28
ATOM     28  C   UNL d   1      45.708 -15.870  37.871  0.00  0.00     0.069 A 
ATOM     29  C   UNL d   1      45.684 -15.078  38.101  0.00  0.00     0.020 A 
ATOM     30  C   UNL d   1      45.939 -14.494  37.598  0.00  0.00     0.031 A 
ATOM     31  C   UNL d   1      46.225 -14.697  36.851  0.00  0.00     0.140 A 
ATOM     32  C   UNL d   1      46.249 -15.489  36.621  0.00  0.00     0.031 A 
ATOM     33  F   UNL d   1      46.487 -14.097  36.334  0.00  0.00    -0.204 F 
ATOM     34  C   UNL d   1      45.992 -16.075  37.127  0.00  0.00     0.020 A 
ENDBRANCH   1  28
TORSDOF 9
ENDMDL
