MODEL 1
REMARK VINA RESULT:      10.8      0.000      0.000
REMARK  2 active torsions:
REMARK  status: ('A' for Active; 'I' for Inactive)
REMARK    1  A    between atoms: C_6  and  C_1 
REMARK    2  A    between atoms: C_7  and  C_5 
ROOT
ATOM      1  C   UNL d   1      45.553 -15.603  44.539  0.00  0.00     0.169 A 
ATOM      2  C   UNL d   1      45.304 -16.278  44.952  0.00  0.00     0.048 A 
ATOM      3  N   UNL d   1      46.320 -16.415  43.669  0.00  0.00    -0.148 NA
ATOM      4  N   UNL d   1      46.062 -15.669  43.895  0.00  0.00    -0.142 NA
ATOM      5  C   UNL d   1      46.074 -17.089  44.078  0.00  0.00     0.105 A 
ENDROOT
BRANCH   5   6
ATOM      6  C   UNL d   1      46.214 -17.898  44.010  0.00  0.00     0.019 A 
ATOM      7  C   UNL d   1      46.282 -18.238  43.262  0.00  0.00     0.002 A 
ATOM      8  C   UNL d   1      46.423 -19.046  43.193  0.00  0.00     0.000 A 
ATOM      9  C   UNL d   1      46.495 -19.404  42.416  0.00  0.00     0.000 C 
ATOM     10  C   UNL d   1      46.495 -19.514  43.874  0.00  0.00     0.000 A 
ATOM     11  C   UNL d   1      46.425 -19.167  44.617  0.00  0.00     0.000 A 
ATOM     12  C   UNL d   1      46.636 -20.325  43.803  0.00  0.00     0.000 C 
ATOM     13  C   UNL d   1      46.286 -18.363  44.688  0.00  0.00     0.002 A 
ENDBRANCH   5   6
BRANCH   1  14
ATOM     14  C   UNL d   1      45.286 -14.858  44.777  0.00  0.00     0.231 C 
ATOM     15  O   UNL d   1      44.480 -14.721  44.865  0.00  0.00    -0.643 OA
ATOM     16  O   UNL d   1      45.823 -14.257  44.925  0.00  0.00    -0.643 OA
ENDBRANCH   1  14
TORSDOF 2
ENDMDL
