MODEL 1
REMARK VINA RESULT:      51.2      0.000      0.000
REMARK  4 active torsions:
REMARK  status: ('A' for Active; 'I' for Inactive)
REMARK    1  A    between atoms: C_6  and  N_1 
REMARK    2  A    between atoms: C_8  and  C_2 
REMARK    3  A    between atoms: C_16  and  C_5 
REMARK    4  A    between atoms: C_7  and  C_8 
ROOT
ATOM      1  N   UNL d   1     -42.251-121.594 -55.193  0.00  0.00    -0.251 N 
ATOM      2  C   UNL d   1     -41.646-120.915 -54.219  0.00  0.00     0.101 A 
ATOM      3  C   UNL d   1     -41.910-120.921 -55.524  0.00  0.00     0.305 A 
ATOM      4  C   UNL d   1     -41.533-120.498 -54.919  0.00  0.00     0.256 A 
ATOM      5  C   UNL d   1     -42.086-121.586 -54.387  0.00  0.00     0.075 A 
ATOM      6  O   UNL d   1     -41.936-120.701 -56.323  0.00  0.00    -0.263 OA
ATOM      7  O   UNL d   1     -41.124-119.790 -55.017  0.00  0.00    -0.281 OA
ENDROOT
BRANCH   2   8
ATOM      8  C   UNL d   1     -41.360-120.687 -53.477  0.00  0.00     0.223 C 
ATOM      9  O   UNL d   1     -41.125-121.262 -52.933  0.00  0.00    -0.284 OA
BRANCH   8  10
ATOM     10  C   UNL d   1     -41.308-119.894 -53.278  0.00  0.00     0.139 A 
ATOM     11  O   UNL d   1     -41.296-119.260 -53.805  0.00  0.00    -0.304 OA
ATOM     12  C   UNL d   1     -41.239-118.561 -53.371  0.00  0.00     0.100 A 
ATOM     13  C   UNL d   1     -41.206-117.777 -53.603  0.00  0.00     0.025 A 
ATOM     14  C   UNL d   1     -41.217-118.766 -52.580  0.00  0.00     0.025 A 
ATOM     15  C   UNL d   1     -41.150-117.188 -53.034  0.00  0.00     0.002 A 
ATOM     16  C   UNL d   1     -41.128-117.388 -52.230  0.00  0.00     0.000 A 
ATOM     17  C   UNL d   1     -41.161-118.178 -52.010  0.00  0.00     0.002 A 
ATOM     18  C   UNL d   1     -41.259-119.585 -52.516  0.00  0.00     0.030 A 
ENDBRANCH   8  10
ENDBRANCH   2   8
BRANCH   5  19
ATOM     19  C   UNL d   1     -42.323-122.160 -53.832  0.00  0.00     0.017 A 
ATOM     20  C   UNL d   1     -41.976-122.918 -53.849  0.00  0.00     0.002 A 
ATOM     21  C   UNL d   1     -42.207-123.494 -53.300  0.00  0.00     0.000 A 
ATOM     22  C   UNL d   1     -42.789-123.318 -52.726  0.00  0.00     0.000 A 
ATOM     23  C   UNL d   1     -43.133-122.555 -52.715  0.00  0.00     0.000 A 
ATOM     24  C   UNL d   1     -42.898-121.977 -53.269  0.00  0.00     0.002 A 
ENDBRANCH   5  19
BRANCH   1  25
ATOM     25  C   UNL d   1     -42.677-122.165 -55.596  0.00  0.00     0.182 A 
ATOM     26  N   UNL d   1     -42.405-122.628 -56.227  0.00  0.00    -0.220 NA
ATOM     27  C   UNL d   1     -43.015-123.125 -56.461  0.00  0.00     0.108 A 
ATOM     28  C   UNL d   1     -43.666-122.976 -55.979  0.00  0.00     0.059 A 
ATOM     29  S   UNL d   1     -43.458-122.383 -55.444  0.00  0.00    -0.048 SA
ENDBRANCH   1  25
TORSDOF 4
ENDMDL
