MODEL 1
REMARK VINA RESULT:      -3.7      0.000      0.000
REMARK  4 active torsions:
REMARK  status: ('A' for Active; 'I' for Inactive)
REMARK    1  A    between atoms: N_2  and  S_1 
REMARK    2  A    between atoms: C_4  and  S_1 
REMARK    3  A    between atoms: C_3  and  C_8 
REMARK       I    between atoms: N_5  and  C_3 
REMARK    4  A    between atoms: C_17  and  N_5 
ROOT
ATOM      1  C   UNL d   1      58.201  -0.420  30.618  0.00  0.00     0.104 A 
ATOM      2  C   UNL d   1      57.044  -0.039  31.717  0.00  0.00     0.058 A 
ATOM      3  C   UNL d   1      57.697  -1.005  30.909  0.00  0.00     0.013 A 
ATOM      4  C   UNL d   1      58.123   0.372  30.884  0.00  0.00     0.013 A 
ATOM      5  C   UNL d   1      57.120  -0.815  31.457  0.00  0.00     0.005 A 
ATOM      6  C   UNL d   1      57.541   0.557  31.434  0.00  0.00     0.005 A 
ENDROOT
BRANCH   2   7
ATOM      7  C   UNL d   1      56.456   0.167  32.278  0.00  0.00     0.279 C 
ATOM      8  N   UNL d   1      56.488  -0.126  33.046  0.00  0.00    -0.208 NA
ATOM      9  O   UNL d   1      55.844   0.678  32.029  0.00  0.00    -0.265 OA
BRANCH   8  10
ATOM     10  C   UNL d   1      55.902   0.081  33.603  0.00  0.00     0.085 A 
ATOM     11  C   UNL d   1      55.105  -0.121  33.456  0.00  0.00     0.020 A 
ATOM     12  C   UNL d   1      54.524   0.077  33.997  0.00  0.00     0.013 A 
ATOM     13  C   UNL d   1      54.725   0.478  34.690  0.00  0.00     0.058 A 
ATOM     14  C   UNL d   1      55.522   0.680  34.837  0.00  0.00     0.013 A 
ATOM     15 CL   UNL d   1      54.119   0.680  35.244  0.00  0.00    -0.082 Cl
ATOM     16  C   UNL d   1      56.105   0.478  34.289  0.00  0.00     0.020 A 
ENDBRANCH   8  10
ENDBRANCH   2   7
BRANCH   1  17
ATOM     17  S   UNL d   1      58.798  -0.593  30.057  0.00  0.00     0.272 S 
ATOM     18  O   UNL d   1      58.281  -1.083  29.616  0.00  0.00    -0.200 OA
ATOM     19  O   UNL d   1      59.334  -0.095  30.499  0.00  0.00    -0.200 OA
BRANCH  17  20
ATOM     20  N   UNL d   1      59.418  -0.746  29.513  0.00  0.00    -0.225 N 
ATOM     21  C   UNL d   1      59.364  -1.372  28.983  0.00  0.00     0.118 A 
ATOM     22  C   UNL d   1      59.974  -1.512  28.456  0.00  0.00     0.142 A 
ATOM     23  O   UNL d   1      60.663  -1.013  28.457  0.00  0.00    -0.300 OA
ATOM     24  C   UNL d   1      60.721  -0.387  28.984  0.00  0.00     0.142 A 
ATOM     25  C   UNL d   1      60.106  -0.247  29.513  0.00  0.00     0.118 A 
ENDBRANCH  17  20
ENDBRANCH   1  17
TORSDOF 4
ENDMDL
MODEL 2
REMARK VINA RESULT:      -2.8      2.503      5.805
REMARK  4 active torsions:
REMARK  status: ('A' for Active; 'I' for Inactive)
REMARK    1  A    between atoms: N_2  and  S_1 
REMARK    2  A    between atoms: C_4  and  S_1 
REMARK    3  A    between atoms: C_3  and  C_8 
REMARK       I    between atoms: N_5  and  C_3 
REMARK    4  A    between atoms: C_17  and  N_5 
ROOT
ATOM      1  C   UNL d   1      56.436   0.452  33.000  0.00  0.00     0.104 A 
ATOM      2  C   UNL d   1      57.400   0.337  31.677  0.00  0.00     0.058 A 
ATOM      3  C   UNL d   1      56.103   0.391  32.247  0.00  0.00     0.013 A 
ATOM      4  C   UNL d   1      57.271   0.456  33.090  0.00  0.00     0.013 A 
ATOM      5  C   UNL d   1      56.584   0.333  31.588  0.00  0.00     0.005 A 
ATOM      6  C   UNL d   1      57.748   0.397  32.424  0.00  0.00     0.005 A 
ENDROOT
BRANCH   2   7
ATOM      7  C   UNL d   1      57.903   0.278  31.009  0.00  0.00     0.279 C 
ATOM      8  N   UNL d   1      58.712   0.165  31.102  0.00  0.00    -0.208 NA
ATOM      9  O   UNL d   1      57.553   0.339  30.253  0.00  0.00    -0.265 OA
BRANCH   8  10
ATOM     10  C   UNL d   1      59.212   0.107  30.435  0.00  0.00     0.085 A 
ATOM     11  C   UNL d   1      59.839   0.650  30.342  0.00  0.00     0.020 A 
ATOM     12  C   UNL d   1      60.333   0.601  29.692  0.00  0.00     0.013 A 
ATOM     13  C   UNL d   1      60.212   0.013  29.126  0.00  0.00     0.058 A 
ATOM     14  C   UNL d   1      59.585  -0.531  29.218  0.00  0.00     0.013 A 
ATOM     15 CL   UNL d   1      60.727  -0.031  28.457  0.00  0.00    -0.082 Cl
ATOM     16  C   UNL d   1      59.088  -0.477  29.876  0.00  0.00     0.020 A 
ENDBRANCH   8  10
ENDBRANCH   2   7
BRANCH   1  17
ATOM     17  S   UNL d   1      55.963   0.512  33.688  0.00  0.00     0.272 S 
ATOM     18  O   UNL d   1      55.264   0.598  33.233  0.00  0.00    -0.200 OA
ATOM     19  O   UNL d   1      56.669   0.425  34.162  0.00  0.00    -0.200 OA
BRANCH  17  20
ATOM     20  N   UNL d   1      55.517   0.569  34.396  0.00  0.00    -0.225 N 
ATOM     21  C   UNL d   1      54.696   0.571  34.374  0.00  0.00     0.118 A 
ATOM     22  C   UNL d   1      54.270   0.626  35.071  0.00  0.00     0.142 A 
ATOM     23  O   UNL d   1      54.676   0.682  35.816  0.00  0.00    -0.300 OA
ATOM     24  C   UNL d   1      55.496   0.680  35.843  0.00  0.00     0.142 A 
ATOM     25  C   UNL d   1      55.923   0.624  35.141  0.00  0.00     0.118 A 
ENDBRANCH  17  20
ENDBRANCH   1  17
TORSDOF 4
ENDMDL
