MODEL 1
REMARK VINA RESULT:      -3.9      0.000      0.000
REMARK  9 active torsions:
REMARK  status: ('A' for Active; 'I' for Inactive)
REMARK    1  A    between atoms: C_12  and  C_1 
REMARK       I    between atoms: C_4  and  N_11 
REMARK    2  A    between atoms: C_5  and  C_4 
REMARK    3  A    between atoms: O_18  and  C_6 
REMARK    4  A    between atoms: O_19  and  C_7 
REMARK    5  A    between atoms: O_20  and  C_8 
REMARK    6  A    between atoms: N_11  and  C_15 
REMARK    7  A    between atoms: C_26  and  O_18 
REMARK    8  A    between atoms: C_28  and  O_19 
REMARK    9  A    between atoms: C_27  and  O_20 
ROOT
ATOM      1  C   UNL d   1     -41.659  13.578  20.998  0.00  0.00     0.279 C 
ATOM      2  N   UNL d   1     -42.435  13.837  21.127  0.00  0.00    -0.208 NA
ATOM      3  O   UNL d   1     -41.448  12.799  21.169  0.00  0.00    -0.265 OA
ENDROOT
BRANCH   1   4
ATOM      4  C   UNL d   1     -41.099  14.100  20.697  0.00  0.00     0.062 A 
ATOM      5  C   UNL d   1     -40.620  14.532  21.212  0.00  0.00     0.032 A 
ATOM      6  C   UNL d   1     -40.061  15.054  20.911  0.00  0.00     0.125 A 
ATOM      7  C   UNL d   1     -39.978  15.147  20.096  0.00  0.00     0.145 A 
ATOM      8  C   UNL d   1     -40.455  14.718  19.585  0.00  0.00     0.125 A 
ATOM      9  C   UNL d   1     -41.011  14.199  19.886  0.00  0.00     0.032 A 
BRANCH   6  10
ATOM     10  O   UNL d   1     -39.578  15.489  21.430  0.00  0.00    -0.303 OA
BRANCH  10  11
ATOM     11  C   UNL d   1     -39.712  15.444  22.247  0.00  0.00     0.123 C 
ATOM     12  C   UNL d   1     -39.165  15.786  22.772  0.00  0.00     0.029 C 
ENDBRANCH  10  11
ENDBRANCH   6  10
BRANCH   7  13
ATOM     13  O   UNL d   1     -39.415  15.672  19.795  0.00  0.00    -0.301 OA
BRANCH  13  14
ATOM     14  C   UNL d   1     -38.679  15.392  19.559  0.00  0.00     0.123 C 
ATOM     15  C   UNL d   1     -38.125  15.912  19.235  0.00  0.00     0.029 C 
ENDBRANCH  13  14
ENDBRANCH   7  13
BRANCH   8  16
ATOM     16  O   UNL d   1     -40.372  14.811  18.761  0.00  0.00    -0.303 OA
BRANCH  16  17
ATOM     17  C   UNL d   1     -40.870  14.393  18.251  0.00  0.00     0.123 C 
ATOM     18  C   UNL d   1     -40.820  14.523  17.433  0.00  0.00     0.029 C 
ENDBRANCH  16  17
ENDBRANCH   8  16
ENDBRANCH   1   4
BRANCH   2  19
ATOM     19  C   UNL d   1     -43.006  13.312  21.432  0.00  0.00     0.085 A 
ATOM     20  C   UNL d   1     -43.763  13.595  21.614  0.00  0.00     0.022 A 
ATOM     21  C   UNL d   1     -44.329  13.080  21.915  0.00  0.00     0.037 A 
ATOM     22  C   UNL d   1     -44.148  12.284  22.036  0.00  0.00     0.003 A 
ATOM     23  C   UNL d   1     -43.389  12.004  21.853  0.00  0.00     0.002 A 
ATOM     24  C   UNL d   1     -42.821  12.513  21.553  0.00  0.00     0.019 A 
BRANCH  21  25
ATOM     25  C   UNL d   1     -45.085  13.358  22.097  0.00  0.00     0.162 A 
ATOM     26  N   UNL d   1     -45.341  14.007  22.535  0.00  0.00    -0.225 NA
ATOM     27  C   UNL d   1     -46.166  14.008  22.530  0.00  0.00     0.101 A 
ATOM     28  C   UNL d   1     -46.722  14.519  22.872  0.00  0.00     0.021 A 
ATOM     29  C   UNL d   1     -46.411  13.362  22.092  0.00  0.00     0.101 A 
ATOM     30  C   UNL d   1     -47.522  14.370  22.767  0.00  0.00     0.002 A 
ATOM     31  C   UNL d   1     -47.771  13.714  22.321  0.00  0.00     0.002 A 
ATOM     32  C   UNL d   1     -47.220  13.214  21.987  0.00  0.00     0.021 A 
ATOM     33  N   UNL d   1     -45.746  12.960  21.825  0.00  0.00    -0.225 NA
ENDBRANCH  21  25
ENDBRANCH   2  19
TORSDOF 9
ENDMDL
MODEL 2
REMARK VINA RESULT:      -3.0      2.539      6.807
REMARK  9 active torsions:
REMARK  status: ('A' for Active; 'I' for Inactive)
REMARK    1  A    between atoms: C_12  and  C_1 
REMARK       I    between atoms: C_4  and  N_11 
REMARK    2  A    between atoms: C_5  and  C_4 
REMARK    3  A    between atoms: O_18  and  C_6 
REMARK    4  A    between atoms: O_19  and  C_7 
REMARK    5  A    between atoms: O_20  and  C_8 
REMARK    6  A    between atoms: N_11  and  C_15 
REMARK    7  A    between atoms: C_26  and  O_18 
REMARK    8  A    between atoms: C_28  and  O_19 
REMARK    9  A    between atoms: C_27  and  O_20 
ROOT
ATOM      1  C   UNL d   1     -45.630  12.846  22.499  0.00  0.00     0.279 C 
ATOM      2  N   UNL d   1     -45.182  12.845  21.802  0.00  0.00    -0.208 NA
ATOM      3  O   UNL d   1     -45.263  12.718  23.227  0.00  0.00    -0.265 OA
ENDROOT
BRANCH   1   4
ATOM      4  C   UNL d   1     -46.442  12.974  22.463  0.00  0.00     0.062 A 
ATOM      5  C   UNL d   1     -46.965  12.370  22.672  0.00  0.00     0.032 A 
ATOM      6  C   UNL d   1     -47.775  12.499  22.636  0.00  0.00     0.125 A 
ATOM      7  C   UNL d   1     -48.068  13.230  22.391  0.00  0.00     0.145 A 
ATOM      8  C   UNL d   1     -47.548  13.829  22.183  0.00  0.00     0.125 A 
ATOM      9  C   UNL d   1     -46.741  13.700  22.220  0.00  0.00     0.032 A 
BRANCH   6  10
ATOM     10  O   UNL d   1     -48.301  11.890  22.847  0.00  0.00    -0.303 OA
BRANCH  10  11
ATOM     11  C   UNL d   1     -48.092  11.359  23.448  0.00  0.00     0.123 C 
ATOM     12  C   UNL d   1     -48.641  10.786  23.698  0.00  0.00     0.029 C 
ENDBRANCH  10  11
ENDBRANCH   6  10
BRANCH   7  13
ATOM     13  O   UNL d   1     -48.883  13.358  22.355  0.00  0.00    -0.301 OA
BRANCH  13  14
ATOM     14  C   UNL d   1     -49.301  13.148  21.678  0.00  0.00     0.123 C 
ATOM     15  C   UNL d   1     -50.115  13.280  21.639  0.00  0.00     0.029 C 
ENDBRANCH  13  14
ENDBRANCH   7  13
BRANCH   8  16
ATOM     16  O   UNL d   1     -47.842  14.569  21.935  0.00  0.00    -0.303 OA
BRANCH  16  17
ATOM     17  C   UNL d   1     -47.550  15.260  22.279  0.00  0.00     0.123 C 
ATOM     18  C   UNL d   1     -48.045  15.922  22.353  0.00  0.00     0.029 C 
ENDBRANCH  16  17
ENDBRANCH   8  16
ENDBRANCH   1   4
BRANCH   2  19
ATOM     19  C   UNL d   1     -44.360  12.716  21.833  0.00  0.00     0.085 A 
ATOM     20  C   UNL d   1     -43.846  13.286  21.521  0.00  0.00     0.022 A 
ATOM     21  C   UNL d   1     -43.034  13.162  21.550  0.00  0.00     0.037 A 
ATOM     22  C   UNL d   1     -42.727  12.473  21.888  0.00  0.00     0.003 A 
ATOM     23  C   UNL d   1     -43.245  11.905  22.200  0.00  0.00     0.002 A 
ATOM     24  C   UNL d   1     -44.056  12.023  22.174  0.00  0.00     0.019 A 
BRANCH  21  25
ATOM     25  C   UNL d   1     -42.518  13.727  21.239  0.00  0.00     0.162 A 
ATOM     26  N   UNL d   1     -42.472  14.543  21.341  0.00  0.00    -0.225 NA
ATOM     27  C   UNL d   1     -41.839  14.819  20.890  0.00  0.00     0.101 A 
ATOM     28  C   UNL d   1     -41.530  15.580  20.776  0.00  0.00     0.021 A 
ATOM     29  C   UNL d   1     -41.502  14.175  20.515  0.00  0.00     0.101 A 
ATOM     30  C   UNL d   1     -40.882  15.681  20.283  0.00  0.00     0.002 A 
ATOM     31  C   UNL d   1     -40.540  15.026  19.902  0.00  0.00     0.002 A 
ATOM     32  C   UNL d   1     -40.847  14.280  20.017  0.00  0.00     0.021 A 
ATOM     33  N   UNL d   1     -41.920  13.501  20.730  0.00  0.00    -0.225 NA
ENDBRANCH  21  25
ENDBRANCH   2  19
TORSDOF 9
ENDMDL
MODEL 3
REMARK VINA RESULT:      -2.9      2.779      6.987
REMARK  9 active torsions:
REMARK  status: ('A' for Active; 'I' for Inactive)
REMARK    1  A    between atoms: C_12  and  C_1 
REMARK       I    between atoms: C_4  and  N_11 
REMARK    2  A    between atoms: C_5  and  C_4 
REMARK    3  A    between atoms: O_18  and  C_6 
REMARK    4  A    between atoms: O_19  and  C_7 
REMARK    5  A    between atoms: O_20  and  C_8 
REMARK    6  A    between atoms: N_11  and  C_15 
REMARK    7  A    between atoms: C_26  and  O_18 
REMARK    8  A    between atoms: C_28  and  O_19 
REMARK    9  A    between atoms: C_27  and  O_20 
ROOT
ATOM      1  C   UNL d   1     -46.060  12.710  22.937  0.00  0.00     0.279 C 
ATOM      2  N   UNL d   1     -45.615  12.758  22.240  0.00  0.00    -0.208 NA
ATOM      3  O   UNL d   1     -45.726  12.392  23.621  0.00  0.00    -0.265 OA
ENDROOT
BRANCH   1   4
ATOM      4  C   UNL d   1     -46.837  12.981  22.945  0.00  0.00     0.062 A 
ATOM      5  C   UNL d   1     -47.004  13.761  22.729  0.00  0.00     0.032 A 
ATOM      6  C   UNL d   1     -47.780  14.031  22.737  0.00  0.00     0.125 A 
ATOM      7  C   UNL d   1     -48.392  13.525  22.959  0.00  0.00     0.145 A 
ATOM      8  C   UNL d   1     -48.225  12.751  23.173  0.00  0.00     0.125 A 
ATOM      9  C   UNL d   1     -47.453  12.483  23.165  0.00  0.00     0.032 A 
BRANCH   6  10
ATOM     10  O   UNL d   1     -47.947  14.816  22.520  0.00  0.00    -0.303 OA
BRANCH  10  11
ATOM     11  C   UNL d   1     -47.346  15.289  22.201  0.00  0.00     0.123 C 
ATOM     12  C   UNL d   1     -47.543  15.903  21.675  0.00  0.00     0.029 C 
ENDBRANCH  10  11
ENDBRANCH   6  10
BRANCH   7  13
ATOM     13  O   UNL d   1     -49.172  13.798  22.967  0.00  0.00    -0.301 OA
BRANCH  13  14
ATOM     14  C   UNL d   1     -49.462  14.191  23.628  0.00  0.00     0.123 C 
ATOM     15  C   UNL d   1     -50.271  14.339  23.698  0.00  0.00     0.029 C 
ENDBRANCH  13  14
ENDBRANCH   7  13
BRANCH   8  16
ATOM     16  O   UNL d   1     -48.843  12.239  23.398  0.00  0.00    -0.303 OA
BRANCH  16  17
ATOM     17  C   UNL d   1     -48.738  11.422  23.338  0.00  0.00     0.123 C 
ATOM     18  C   UNL d   1     -49.343  10.912  23.586  0.00  0.00     0.029 C 
ENDBRANCH  16  17
ENDBRANCH   8  16
ENDBRANCH   1   4
BRANCH   2  19
ATOM     19  C   UNL d   1     -44.827  12.485  22.227  0.00  0.00     0.085 A 
ATOM     20  C   UNL d   1     -44.255  12.917  21.812  0.00  0.00     0.022 A 
ATOM     21  C   UNL d   1     -43.477  12.651  21.797  0.00  0.00     0.037 A 
ATOM     22  C   UNL d   1     -43.263  11.958  22.192  0.00  0.00     0.003 A 
ATOM     23  C   UNL d   1     -43.840  11.529  22.606  0.00  0.00     0.002 A 
ATOM     24  C   UNL d   1     -44.617  11.789  22.625  0.00  0.00     0.019 A 
BRANCH  21  25
ATOM     25  C   UNL d   1     -42.902  13.077  21.385  0.00  0.00     0.162 A 
ATOM     26  N   UNL d   1     -42.512  12.928  20.675  0.00  0.00    -0.225 NA
ATOM     27  C   UNL d   1     -41.991  13.554  20.536  0.00  0.00     0.101 A 
ATOM     28  C   UNL d   1     -41.461  13.705  19.917  0.00  0.00     0.021 A 
ATOM     29  C   UNL d   1     -42.064  14.079  21.158  0.00  0.00     0.101 A 
ATOM     30  C   UNL d   1     -41.008  14.390  19.935  0.00  0.00     0.002 A 
ATOM     31  C   UNL d   1     -41.082  14.924  20.568  0.00  0.00     0.002 A 
ATOM     32  C   UNL d   1     -41.606  14.770  21.174  0.00  0.00     0.021 A 
ATOM     33  N   UNL d   1     -42.625  13.787  21.682  0.00  0.00    -0.225 NA
ENDBRANCH  21  25
ENDBRANCH   2  19
TORSDOF 9
ENDMDL
MODEL 4
REMARK VINA RESULT:      -2.4      1.928      6.027
REMARK  9 active torsions:
REMARK  status: ('A' for Active; 'I' for Inactive)
REMARK    1  A    between atoms: C_12  and  C_1 
REMARK       I    between atoms: C_4  and  N_11 
REMARK    2  A    between atoms: C_5  and  C_4 
REMARK    3  A    between atoms: O_18  and  C_6 
REMARK    4  A    between atoms: O_19  and  C_7 
REMARK    5  A    between atoms: O_20  and  C_8 
REMARK    6  A    between atoms: N_11  and  C_15 
REMARK    7  A    between atoms: C_26  and  O_18 
REMARK    8  A    between atoms: C_28  and  O_19 
REMARK    9  A    between atoms: C_27  and  O_20 
ROOT
ATOM      1  C   UNL d   1     -42.903  12.967  21.460  0.00  0.00     0.279 C 
ATOM      2  N   UNL d   1     -42.421  13.580  21.740  0.00  0.00    -0.208 NA
ATOM      3  O   UNL d   1     -42.671  12.525  20.803  0.00  0.00    -0.265 OA
ENDROOT
BRANCH   1   4
ATOM      4  C   UNL d   1     -43.614  12.802  21.839  0.00  0.00     0.062 A 
ATOM      5  C   UNL d   1     -43.686  12.121  22.302  0.00  0.00     0.032 A 
ATOM      6  C   UNL d   1     -44.396  11.956  22.680  0.00  0.00     0.125 A 
ATOM      7  C   UNL d   1     -45.037  12.468  22.599  0.00  0.00     0.145 A 
ATOM      8  C   UNL d   1     -44.965  13.144  22.139  0.00  0.00     0.125 A 
ATOM      9  C   UNL d   1     -44.258  13.307  21.763  0.00  0.00     0.032 A 
BRANCH   6  10
ATOM     10  O   UNL d   1     -44.468  11.271  23.146  0.00  0.00    -0.303 OA
BRANCH  10  11
ATOM     11  C   UNL d   1     -43.804  10.791  23.272  0.00  0.00     0.123 C 
ATOM     12  C   UNL d   1     -43.892  10.066  23.671  0.00  0.00     0.029 C 
ENDBRANCH  10  11
ENDBRANCH   6  10
BRANCH   7  13
ATOM     13  O   UNL d   1     -45.751  12.301  22.980  0.00  0.00    -0.301 OA
BRANCH  13  14
ATOM     14  C   UNL d   1     -46.295  11.797  22.626  0.00  0.00     0.123 C 
ATOM     15  C   UNL d   1     -46.998  11.608  23.018  0.00  0.00     0.029 C 
ENDBRANCH  13  14
ENDBRANCH   7  13
BRANCH   8  16
ATOM     16  O   UNL d   1     -45.613  13.662  22.056  0.00  0.00    -0.303 OA
BRANCH  16  17
ATOM     17  C   UNL d   1     -45.521  14.462  22.239  0.00  0.00     0.123 C 
ATOM     18  C   UNL d   1     -46.139  14.870  22.612  0.00  0.00     0.029 C 
ENDBRANCH  16  17
ENDBRANCH   8  16
ENDBRANCH   1   4
BRANCH   2  19
ATOM     19  C   UNL d   1     -41.699  13.752  21.360  0.00  0.00     0.085 A 
ATOM     20  C   UNL d   1     -41.709  14.087  20.602  0.00  0.00     0.022 A 
ATOM     21  C   UNL d   1     -41.000  14.258  20.223  0.00  0.00     0.037 A 
ATOM     22  C   UNL d   1     -40.279  14.098  20.593  0.00  0.00     0.003 A 
ATOM     23  C   UNL d   1     -40.273  13.762  21.351  0.00  0.00     0.002 A 
ATOM     24  C   UNL d   1     -40.977  13.589  21.734  0.00  0.00     0.019 A 
BRANCH  21  25
ATOM     25  C   UNL d   1     -41.005  14.592  19.468  0.00  0.00     0.162 A 
ATOM     26  N   UNL d   1     -41.302  15.307  19.186  0.00  0.00    -0.225 NA
ATOM     27  C   UNL d   1     -41.146  15.343  18.376  0.00  0.00     0.101 A 
ATOM     28  C   UNL d   1     -41.313  15.922  17.806  0.00  0.00     0.021 A 
ATOM     29  C   UNL d   1     -40.756  14.655  18.167  0.00  0.00     0.101 A 
ATOM     30  C   UNL d   1     -41.082  15.797  17.028  0.00  0.00     0.002 A 
ATOM     31  C   UNL d   1     -40.686  15.097  16.816  0.00  0.00     0.002 A 
ATOM     32  C   UNL d   1     -40.525  14.531  17.380  0.00  0.00     0.021 A 
ATOM     33  N   UNL d   1     -40.669  14.191  18.839  0.00  0.00    -0.225 NA
ENDBRANCH  21  25
ENDBRANCH   2  19
TORSDOF 9
ENDMDL
MODEL 5
REMARK VINA RESULT:      -2.2      1.824      3.576
REMARK  9 active torsions:
REMARK  status: ('A' for Active; 'I' for Inactive)
REMARK    1  A    between atoms: C_12  and  C_1 
REMARK       I    between atoms: C_4  and  N_11 
REMARK    2  A    between atoms: C_5  and  C_4 
REMARK    3  A    between atoms: O_18  and  C_6 
REMARK    4  A    between atoms: O_19  and  C_7 
REMARK    5  A    between atoms: O_20  and  C_8 
REMARK    6  A    between atoms: N_11  and  C_15 
REMARK    7  A    between atoms: C_26  and  O_18 
REMARK    8  A    between atoms: C_28  and  O_19 
REMARK    9  A    between atoms: C_27  and  O_20 
ROOT
ATOM      1  C   UNL d   1     -39.906  14.421  19.122  0.00  0.00     0.279 C 
ATOM      2  N   UNL d   1     -40.591  14.030  19.376  0.00  0.00    -0.208 NA
ATOM      3  O   UNL d   1     -39.455  14.856  19.658  0.00  0.00    -0.265 OA
ENDROOT
BRANCH   1   4
ATOM      4  C   UNL d   1     -39.678  14.373  18.333  0.00  0.00     0.062 A 
ATOM      5  C   UNL d   1     -39.987  14.904  17.782  0.00  0.00     0.032 A 
ATOM      6  C   UNL d   1     -39.758  14.857  16.994  0.00  0.00     0.125 A 
ATOM      7  C   UNL d   1     -39.221  14.279  16.753  0.00  0.00     0.145 A 
ATOM      8  C   UNL d   1     -38.914  13.752  17.301  0.00  0.00     0.125 A 
ATOM      9  C   UNL d   1     -39.143  13.801  18.085  0.00  0.00     0.032 A 
BRANCH   6  10
ATOM     10  O   UNL d   1     -40.070  15.392  16.439  0.00  0.00    -0.303 OA
BRANCH  10  11
ATOM     11  C   UNL d   1     -40.715  15.868  16.648  0.00  0.00     0.123 C 
ATOM     12  C   UNL d   1     -41.371  15.917  16.139  0.00  0.00     0.029 C 
ENDBRANCH  10  11
ENDBRANCH   6  10
BRANCH   7  13
ATOM     13  O   UNL d   1     -38.992  14.232  15.960  0.00  0.00    -0.301 OA
BRANCH  13  14
ATOM     14  C   UNL d   1     -38.304  14.605  15.710  0.00  0.00     0.123 C 
ATOM     15  C   UNL d   1     -38.047  14.516  14.930  0.00  0.00     0.029 C 
ENDBRANCH  13  14
ENDBRANCH   7  13
BRANCH   8  16
ATOM     16  O   UNL d   1     -38.371  13.168  17.059  0.00  0.00    -0.303 OA
BRANCH  16  17
ATOM     17  C   UNL d   1     -37.999  12.697  17.626  0.00  0.00     0.123 C 
ATOM     18  C   UNL d   1     -38.009  11.872  17.544  0.00  0.00     0.029 C 
ENDBRANCH  16  17
ENDBRANCH   8  16
ENDBRANCH   1   4
BRANCH   2  19
ATOM     19  C   UNL d   1     -40.827  14.076  20.174  0.00  0.00     0.085 A 
ATOM     20  C   UNL d   1     -41.547  13.736  20.405  0.00  0.00     0.022 A 
ATOM     21  C   UNL d   1     -41.783  13.779  21.191  0.00  0.00     0.037 A 
ATOM     22  C   UNL d   1     -41.308  14.157  21.751  0.00  0.00     0.003 A 
ATOM     23  C   UNL d   1     -40.588  14.495  21.516  0.00  0.00     0.002 A 
ATOM     24  C   UNL d   1     -40.347  14.456  20.733  0.00  0.00     0.019 A 
BRANCH  21  25
ATOM     25  C   UNL d   1     -42.500  13.443  21.426  0.00  0.00     0.162 A 
ATOM     26  N   UNL d   1     -42.687  12.692  21.710  0.00  0.00    -0.225 NA
ATOM     27  C   UNL d   1     -43.500  12.672  21.855  0.00  0.00     0.101 A 
ATOM     28  C   UNL d   1     -43.996  12.073  22.141  0.00  0.00     0.021 A 
ATOM     29  C   UNL d   1     -43.804  13.406  21.661  0.00  0.00     0.101 A 
ATOM     30  C   UNL d   1     -44.799  12.224  22.228  0.00  0.00     0.002 A 
ATOM     31  C   UNL d   1     -45.108  12.970  22.030  0.00  0.00     0.002 A 
ATOM     32  C   UNL d   1     -44.615  13.555  21.749  0.00  0.00     0.021 A 
ATOM     33  N   UNL d   1     -43.189  13.882  21.396  0.00  0.00    -0.225 NA
ENDBRANCH  21  25
ENDBRANCH   2  19
TORSDOF 9
ENDMDL
MODEL 6
REMARK VINA RESULT:      -2.1      3.506      7.434
REMARK  9 active torsions:
REMARK  status: ('A' for Active; 'I' for Inactive)
REMARK    1  A    between atoms: C_12  and  C_1 
REMARK       I    between atoms: C_4  and  N_11 
REMARK    2  A    between atoms: C_5  and  C_4 
REMARK    3  A    between atoms: O_18  and  C_6 
REMARK    4  A    between atoms: O_19  and  C_7 
REMARK    5  A    between atoms: O_20  and  C_8 
REMARK    6  A    between atoms: N_11  and  C_15 
REMARK    7  A    between atoms: C_26  and  O_18 
REMARK    8  A    between atoms: C_28  and  O_19 
REMARK    9  A    between atoms: C_27  and  O_20 
ROOT
ATOM      1  C   UNL d   1     -47.289  12.417  22.800  0.00  0.00     0.279 C 
ATOM      2  N   UNL d   1     -46.717  12.346  23.395  0.00  0.00    -0.208 NA
ATOM      3  O   UNL d   1     -47.194  12.020  22.084  0.00  0.00    -0.265 OA
ENDROOT
BRANCH   1   4
ATOM      4  C   UNL d   1     -47.954  12.885  22.927  0.00  0.00     0.062 A 
ATOM      5  C   UNL d   1     -48.647  12.547  23.221  0.00  0.00     0.032 A 
ATOM      6  C   UNL d   1     -49.311  13.015  23.347  0.00  0.00     0.125 A 
ATOM      7  C   UNL d   1     -49.285  13.822  23.181  0.00  0.00     0.145 A 
ATOM      8  C   UNL d   1     -48.596  14.158  22.888  0.00  0.00     0.125 A 
ATOM      9  C   UNL d   1     -47.937  13.691  22.763  0.00  0.00     0.032 A 
BRANCH   6  10
ATOM     10  O   UNL d   1     -50.009  12.673  23.643  0.00  0.00    -0.303 OA
BRANCH  10  11
ATOM     11  C   UNL d   1     -50.095  11.849  23.638  0.00  0.00     0.123 C 
ATOM     12  C   UNL d   1     -50.855  11.515  23.687  0.00  0.00     0.029 C 
ENDBRANCH  10  11
ENDBRANCH   6  10
BRANCH   7  13
ATOM     13  O   UNL d   1     -49.953  14.291  23.308  0.00  0.00    -0.301 OA
BRANCH  13  14
ATOM     14  C   UNL d   1     -50.337  14.639  22.669  0.00  0.00     0.123 C 
ATOM     15  C   UNL d   1     -51.064  15.016  22.781  0.00  0.00     0.029 C 
ENDBRANCH  13  14
ENDBRANCH   7  13
BRANCH   8  16
ATOM     16  O   UNL d   1     -48.569  14.974  22.719  0.00  0.00    -0.303 OA
BRANCH  16  17
ATOM     17  C   UNL d   1     -47.842  15.364  22.708  0.00  0.00     0.123 C 
ATOM     18  C   UNL d   1     -47.562  15.686  21.996  0.00  0.00     0.029 C 
ENDBRANCH  16  17
ENDBRANCH   8  16
ENDBRANCH   1   4
BRANCH   2  19
ATOM     19  C   UNL d   1     -46.042  11.873  23.272  0.00  0.00     0.085 A 
ATOM     20  C   UNL d   1     -45.391  12.191  22.870  0.00  0.00     0.022 A 
ATOM     21  C   UNL d   1     -44.723  11.727  22.746  0.00  0.00     0.037 A 
ATOM     22  C   UNL d   1     -44.698  10.948  23.020  0.00  0.00     0.003 A 
ATOM     23  C   UNL d   1     -45.352  10.634  23.422  0.00  0.00     0.002 A 
ATOM     24  C   UNL d   1     -46.020  11.091  23.548  0.00  0.00     0.019 A 
BRANCH  21  25
ATOM     25  C   UNL d   1     -44.072  12.039  22.346  0.00  0.00     0.162 A 
ATOM     26  N   UNL d   1     -43.264  11.890  22.412  0.00  0.00    -0.225 NA
ATOM     27  C   UNL d   1     -42.873  12.369  21.866  0.00  0.00     0.101 A 
ATOM     28  C   UNL d   1     -42.069  12.458  21.683  0.00  0.00     0.021 A 
ATOM     29  C   UNL d   1     -43.439  12.807  21.470  0.00  0.00     0.101 A 
ATOM     30  C   UNL d   1     -41.847  12.991  21.099  0.00  0.00     0.002 A 
ATOM     31  C   UNL d   1     -42.423  13.435  20.697  0.00  0.00     0.002 A 
ATOM     32  C   UNL d   1     -43.212  13.344  20.880  0.00  0.00     0.021 A 
ATOM     33  N   UNL d   1     -44.179  12.604  21.765  0.00  0.00    -0.225 NA
ENDBRANCH  21  25
ENDBRANCH   2  19
TORSDOF 9
ENDMDL
