MODEL 1
REMARK VINA RESULT:      -8.7      0.000      0.000
REMARK  5 active torsions:
REMARK  status: ('A' for Active; 'I' for Inactive)
REMARK    1  A    between atoms: C_3  and  C_1 
REMARK    2  A    between atoms: C_6  and  C_9 
REMARK    3  A    between atoms: C_7  and  C_12 
REMARK    4  A    between atoms: C_9  and  C_11 
REMARK       I    between atoms: C_11  and  N_16 
REMARK    5  A    between atoms: N_16  and  C_18 
ROOT
ATOM      1  N   UNL d   1     -44.891  12.735  22.591  0.00  0.00    -0.207 NA
ATOM      2  C   UNL d   1     -45.426  13.379  22.576  0.00  0.00     0.285 A 
ATOM      3  S   UNL d   1     -46.389  12.590  23.303  0.00  0.00    -0.080 SA
ATOM      4  C   UNL d   1     -46.171  13.307  22.930  0.00  0.00     0.092 A 
ATOM      5  C   UNL d   1     -45.112  12.028  22.961  0.00  0.00     0.090 A 
ATOM      6  C   UNL d   1     -45.856  11.953  23.317  0.00  0.00     0.047 A 
ATOM      7  C   UNL d   1     -44.800  10.689  23.344  0.00  0.00     0.073 A 
ATOM      8  C   UNL d   1     -44.583  11.395  22.975  0.00  0.00     0.024 A 
ATOM      9  O   UNL d   1     -45.215  14.084  22.210  0.00  0.00    -0.265 OA
ATOM     10  C   UNL d   1     -46.073  11.250  23.684  0.00  0.00     0.008 A 
ATOM     11  C   UNL d   1     -45.545  10.617  23.698  0.00  0.00     0.004 A 
ENDROOT
BRANCH   4  12
ATOM     12  C   UNL d   1     -46.700  13.929  22.921  0.00  0.00     0.074 C 
BRANCH  12  13
ATOM     13  C   UNL d   1     -47.455  13.824  22.586  0.00  0.00     0.280 C 
ATOM     14  N   UNL d   1     -48.103  14.245  22.883  0.00  0.00    -0.208 NA
ATOM     15  O   UNL d   1     -47.534  13.469  22.158  0.00  0.00    -0.265 OA
BRANCH  14  16
ATOM     16  C   UNL d   1     -48.848  14.135  22.546  0.00  0.00     0.085 A 
ATOM     17  C   UNL d   1     -49.280  13.460  22.727  0.00  0.00     0.024 A 
ATOM     18  C   UNL d   1     -50.024  13.349  22.390  0.00  0.00     0.084 A 
ATOM     19  C   UNL d   1     -50.332  13.913  21.874  0.00  0.00     0.062 A 
ATOM     20  C   UNL d   1     -49.889  14.592  21.696  0.00  0.00     0.013 A 
ATOM     21 CL   UNL d   1     -51.064  13.804  21.543  0.00  0.00    -0.082 Cl
ATOM     22  C   UNL d   1     -49.152  14.701  22.030  0.00  0.00     0.020 A 
BRANCH  18  23
ATOM     23  C   UNL d   1     -50.453  12.684  22.568  0.00  0.00     0.420 C 
ATOM     24  F   UNL d   1     -50.845  12.071  22.727  0.00  0.00    -0.166 F 
ATOM     25  F   UNL d   1     -50.507  11.952  22.143  0.00  0.00    -0.166 F 
ATOM     26  F   UNL d   1     -50.964  12.537  23.225  0.00  0.00    -0.166 F 
ENDBRANCH  18  23
ENDBRANCH  14  16
ENDBRANCH  12  13
ENDBRANCH   4  12
BRANCH   7  27
ATOM     27  C   UNL d   1     -44.281  10.067  23.357  0.00  0.00     0.419 C 
ATOM     28  F   UNL d   1     -43.457  10.059  23.552  0.00  0.00    -0.166 F 
ATOM     29  F   UNL d   1     -44.420   9.243  23.179  0.00  0.00    -0.166 F 
ATOM     30  F   UNL d   1     -43.802   9.496  23.371  0.00  0.00    -0.166 F 
ENDBRANCH   7  27
TORSDOF 5
ENDMDL
MODEL 2
REMARK VINA RESULT:      -7.5      8.466      9.977
REMARK  5 active torsions:
REMARK  status: ('A' for Active; 'I' for Inactive)
REMARK    1  A    between atoms: C_3  and  C_1 
REMARK    2  A    between atoms: C_6  and  C_9 
REMARK    3  A    between atoms: C_7  and  C_12 
REMARK    4  A    between atoms: C_9  and  C_11 
REMARK       I    between atoms: C_11  and  N_16 
REMARK    5  A    between atoms: N_16  and  C_18 
ROOT
ATOM      1  N   UNL d   1     -40.247  13.975  17.547  0.00  0.00    -0.207 NA
ATOM      2  C   UNL d   1     -40.552  14.279  18.265  0.00  0.00     0.285 A 
ATOM      3  S   UNL d   1     -39.405  15.144  18.381  0.00  0.00    -0.080 SA
ATOM      4  C   UNL d   1     -40.133  14.860  18.680  0.00  0.00     0.092 A 
ATOM      5  C   UNL d   1     -39.526  14.259  17.256  0.00  0.00     0.090 A 
ATOM      6  C   UNL d   1     -39.105  14.841  17.668  0.00  0.00     0.047 A 
ATOM      7  C   UNL d   1     -38.509  14.240  16.256  0.00  0.00     0.073 A 
ATOM      8  C   UNL d   1     -39.227  13.958  16.548  0.00  0.00     0.024 A 
ATOM      9  O   UNL d   1     -41.267  14.002  18.562  0.00  0.00    -0.265 OA
ATOM     10  C   UNL d   1     -38.389  15.122  17.378  0.00  0.00     0.008 A 
ATOM     11  C   UNL d   1     -38.090  14.822  16.671  0.00  0.00     0.004 A 
ENDROOT
BRANCH   4  12
ATOM     12  C   UNL d   1     -40.423  15.163  19.381  0.00  0.00     0.074 C 
BRANCH  12  13
ATOM     13  C   UNL d   1     -39.939  15.169  20.059  0.00  0.00     0.280 C 
ATOM     14  N   UNL d   1     -40.214  14.846  20.769  0.00  0.00    -0.208 NA
ATOM     15  O   UNL d   1     -39.423  15.392  20.043  0.00  0.00    -0.265 OA
BRANCH  14  16
ATOM     16  C   UNL d   1     -39.728  14.856  21.436  0.00  0.00     0.085 A 
ATOM     17  C   UNL d   1     -39.436  14.149  21.736  0.00  0.00     0.024 A 
ATOM     18  C   UNL d   1     -38.950  14.160  22.402  0.00  0.00     0.084 A 
ATOM     19  C   UNL d   1     -38.759  14.875  22.764  0.00  0.00     0.062 A 
ATOM     20  C   UNL d   1     -39.058  15.584  22.454  0.00  0.00     0.013 A 
ATOM     21 CL   UNL d   1     -38.281  14.884  23.419  0.00  0.00    -0.082 Cl
ATOM     22  C   UNL d   1     -39.539  15.573  21.794  0.00  0.00     0.020 A 
BRANCH  18  23
ATOM     23  C   UNL d   1     -38.660  13.464  22.701  0.00  0.00     0.420 C 
ATOM     24  F   UNL d   1     -38.397  12.824  22.978  0.00  0.00    -0.166 F 
ATOM     25  F   UNL d   1     -38.966  12.981  23.327  0.00  0.00    -0.166 F 
ATOM     26  F   UNL d   1     -37.973  13.027  22.471  0.00  0.00    -0.166 F 
ENDBRANCH  18  23
ENDBRANCH  14  16
ENDBRANCH  12  13
ENDBRANCH   4  12
BRANCH   7  27
ATOM     27  C   UNL d   1     -38.215  13.945  15.560  0.00  0.00     0.419 C 
ATOM     28  F   UNL d   1     -38.095  14.336  14.819  0.00  0.00    -0.166 F 
ATOM     29  F   UNL d   1     -37.943  13.155  15.380  0.00  0.00    -0.166 F 
ATOM     30  F   UNL d   1     -37.945  13.676  14.919  0.00  0.00    -0.166 F 
ENDBRANCH   7  27
TORSDOF 5
ENDMDL
MODEL 3
REMARK VINA RESULT:      -5.9      8.482     10.062
REMARK  5 active torsions:
REMARK  status: ('A' for Active; 'I' for Inactive)
REMARK    1  A    between atoms: C_3  and  C_1 
REMARK    2  A    between atoms: C_6  and  C_9 
REMARK    3  A    between atoms: C_7  and  C_12 
REMARK    4  A    between atoms: C_9  and  C_11 
REMARK       I    between atoms: C_11  and  N_16 
REMARK    5  A    between atoms: N_16  and  C_18 
ROOT
ATOM      1  N   UNL d   1     -37.955  13.043  17.106  0.00  0.00    -0.207 NA
ATOM      2  C   UNL d   1     -37.959  13.303  17.902  0.00  0.00     0.285 A 
ATOM      3  S   UNL d   1     -37.958  14.672  17.450  0.00  0.00    -0.080 SA
ATOM      4  C   UNL d   1     -37.960  14.113  18.073  0.00  0.00     0.092 A 
ATOM      5  C   UNL d   1     -37.953  13.600  16.494  0.00  0.00     0.090 A 
ATOM      6  C   UNL d   1     -37.954  14.411  16.661  0.00  0.00     0.047 A 
ATOM      7  C   UNL d   1     -37.947  13.895  15.098  0.00  0.00     0.073 A 
ATOM      8  C   UNL d   1     -37.950  13.342  15.709  0.00  0.00     0.024 A 
ATOM      9  O   UNL d   1     -37.961  12.757  18.516  0.00  0.00    -0.265 OA
ATOM     10  C   UNL d   1     -37.952  14.963  16.052  0.00  0.00     0.008 A 
ATOM     11  C   UNL d   1     -37.949  14.705  15.269  0.00  0.00     0.004 A 
ENDROOT
BRANCH   4  12
ATOM     12  C   UNL d   1     -37.964  14.377  18.846  0.00  0.00     0.074 C 
BRANCH  12  13
ATOM     13  C   UNL d   1     -38.659  14.702  19.168  0.00  0.00     0.280 C 
ATOM     14  N   UNL d   1     -38.929  14.455  19.911  0.00  0.00    -0.208 NA
ATOM     15  O   UNL d   1     -38.953  15.091  18.888  0.00  0.00    -0.265 OA
BRANCH  14  16
ATOM     16  C   UNL d   1     -39.618  14.782  20.222  0.00  0.00     0.085 A 
ATOM     17  C   UNL d   1     -40.245  14.291  20.425  0.00  0.00     0.024 A 
ATOM     18  C   UNL d   1     -40.935  14.619  20.736  0.00  0.00     0.084 A 
ATOM     19  C   UNL d   1     -40.994  15.433  20.844  0.00  0.00     0.062 A 
ATOM     20  C   UNL d   1     -40.357  15.922  20.637  0.00  0.00     0.013 A 
ATOM     21 CL   UNL d   1     -41.673  15.754  21.150  0.00  0.00    -0.082 Cl
ATOM     22  C   UNL d   1     -39.674  15.598  20.328  0.00  0.00     0.020 A 
BRANCH  18  23
ATOM     23  C   UNL d   1     -41.555  14.136  20.937  0.00  0.00     0.420 C 
ATOM     24  F   UNL d   1     -42.125  13.694  21.126  0.00  0.00    -0.166 F 
ATOM     25  F   UNL d   1     -41.840  13.922  21.706  0.00  0.00    -0.166 F 
ATOM     26  F   UNL d   1     -42.089  13.714  20.435  0.00  0.00    -0.166 F 
ENDBRANCH  18  23
ENDBRANCH  14  16
ENDBRANCH  12  13
ENDBRANCH   4  12
BRANCH   7  27
ATOM     27  C   UNL d   1     -37.944  13.642  14.328  0.00  0.00     0.419 C 
ATOM     28  F   UNL d   1     -37.944  14.096  13.613  0.00  0.00    -0.166 F 
ATOM     29  F   UNL d   1     -37.940  12.845  14.020  0.00  0.00    -0.166 F 
ATOM     30  F   UNL d   1     -37.941  13.411  13.618  0.00  0.00    -0.166 F 
ENDBRANCH   7  27
TORSDOF 5
ENDMDL
