MODEL 1
REMARK VINA RESULT:      61.7      0.000      0.000
REMARK  3 active torsions:
REMARK  status: ('A' for Active; 'I' for Inactive)
REMARK    1  A    between atoms: C_7  and  C_1 
REMARK    2  A    between atoms: C_10  and  N_2 
REMARK    3  A    between atoms: C_14  and  C_7 
ROOT
ATOM      1  C   UNL d   1     -57.933 -98.867 -43.510  0.00  0.00     0.155 A 
ATOM      2  N   UNL d   1     -57.780 -98.875 -44.327  0.00  0.00    -0.277 N 
ATOM      3  C   UNL d   1     -57.007 -98.859 -44.585  0.00  0.00     0.153 A 
ATOM      4  C   UNL d   1     -56.383 -98.835 -44.038  0.00  0.00     0.092 A 
ATOM      5  N   UNL d   1     -57.313 -98.843 -42.966  0.00  0.00    -0.190 NA
ATOM      6  C   UNL d   1     -56.543 -98.827 -43.242  0.00  0.00     0.283 A 
ATOM      7  N   UNL d   1     -56.843 -98.868 -45.406  0.00  0.00    -0.228 NA
ATOM      8  C   UNL d   1     -55.601 -98.820 -44.316  0.00  0.00     0.009 A 
ATOM      9  O   UNL d   1     -55.915 -98.803 -42.700  0.00  0.00    -0.265 OA
ATOM     10  C   UNL d   1     -55.452 -98.828 -45.121  0.00  0.00     0.019 A 
ATOM     11  C   UNL d   1     -56.065 -98.852 -45.658  0.00  0.00     0.083 A 
ATOM     12  C   UNL d   1     -54.981 -98.796 -43.772  0.00  0.00     0.000 C 
ATOM     13  C   UNL d   1     -55.899 -98.860 -46.471  0.00  0.00     0.021 C 
ENDROOT
BRANCH   2  14
ATOM     14  C   UNL d   1     -58.395 -98.899 -44.866  0.00  0.00     0.067 A 
ATOM     15  C   UNL d   1     -58.244 -98.797 -45.659  0.00  0.00     0.018 A 
ATOM     16  C   UNL d   1     -58.866 -98.821 -46.204  0.00  0.00     0.002 A 
ATOM     17  C   UNL d   1     -59.636 -98.947 -45.955  0.00  0.00     0.000 A 
ATOM     18  C   UNL d   1     -59.782 -99.050 -45.140  0.00  0.00     0.002 A 
ATOM     19  C   UNL d   1     -59.165 -99.026 -44.599  0.00  0.00     0.018 A 
ENDBRANCH   2  14
BRANCH   1  20
ATOM     20  C   UNL d   1     -58.711 -98.882 -43.244  0.00  0.00     0.080 C 
BRANCH  20  21
ATOM     21  C   UNL d   1     -58.923 -98.997 -42.455  0.00  0.00     0.199 C 
ATOM     22  O   UNL d   1     -58.249 -98.906 -41.870  0.00  0.00    -0.286 OA
ATOM     23  C   UNL d   1     -59.905 -99.238 -42.102  0.00  0.00     0.045 C 
ENDBRANCH  20  21
ENDBRANCH   1  20
TORSDOF 3
ENDMDL
