MODEL 1
REMARK VINA RESULT:      -9.2      0.000      0.000
REMARK  4 active torsions:
REMARK  status: ('A' for Active; 'I' for Inactive)
REMARK    1  A    between atoms: N_2  and  S_1 
REMARK    2  A    between atoms: C_3  and  S_1 
REMARK    3  A    between atoms: C_5  and  N_4 
REMARK    4  A    between atoms: O_16  and  C_13 
ROOT
ATOM      1  N   UNL d   1      54.449  33.192  54.573  0.00  0.00    -0.226 N 
ATOM      2  N   UNL d   1      53.787  31.808  53.980  0.00  0.00    -0.300 N 
ATOM      3  C   UNL d   1      54.609  32.957  53.794  0.00  0.00     0.111 A 
ATOM      4  C   UNL d   1      53.959  32.736  55.053  0.00  0.00     0.111 A 
ATOM      5  C   UNL d   1      54.277  32.261  53.494  0.00  0.00     0.100 A 
ATOM      6  C   UNL d   1      53.627  32.039  54.753  0.00  0.00     0.100 A 
ENDROOT
BRANCH   1   7
ATOM      7  S   UNL d   1      54.778  33.876  54.860  0.00  0.00     0.272 S 
ATOM      8  O   UNL d   1      55.105  34.557  55.147  0.00  0.00    -0.200 OA
ATOM      9  O   UNL d   1      55.452  33.472  55.048  0.00  0.00    -0.200 OA
BRANCH   7  10
ATOM     10  C   UNL d   1      54.096  34.283  54.671  0.00  0.00     0.106 A 
ATOM     11  C   UNL d   1      54.023  34.632  53.927  0.00  0.00     0.043 A 
ATOM     12  C   UNL d   1      53.335  35.044  53.736  0.00  0.00     0.141 A 
ATOM     13  F   UNL d   1      53.258  35.390  53.003  0.00  0.00    -0.204 F 
ATOM     14  C   UNL d   1      52.727  35.102  54.291  0.00  0.00     0.030 A 
ATOM     15  C   UNL d   1      52.808  34.757  55.016  0.00  0.00     0.003 A 
ATOM     16  C   UNL d   1      53.496  34.345  55.208  0.00  0.00     0.013 A 
ENDBRANCH   7  10
ENDBRANCH   1   7
BRANCH   2  17
ATOM     17  C   UNL d   1      53.454  31.117  53.689  0.00  0.00     0.086 A 
ATOM     18  C   UNL d   1      52.781  31.157  53.214  0.00  0.00     0.110 A 
ATOM     19  C   UNL d   1      52.445  30.459  52.921  0.00  0.00     0.026 A 
ATOM     20  C   UNL d   1      52.782  29.721  53.102  0.00  0.00     0.002 A 
ATOM     21  C   UNL d   1      53.458  29.685  53.579  0.00  0.00     0.002 A 
ATOM     22  C   UNL d   1      53.794  30.383  53.872  0.00  0.00     0.019 A 
BRANCH  18  23
ATOM     23  O   UNL d   1      52.449  31.881  53.035  0.00  0.00    -0.327 OA
ATOM     24  C   UNL d   1      51.850  31.901  52.695  0.00  0.00     0.181 C 
ENDBRANCH  18  23
ENDBRANCH   2  17
TORSDOF 4
ENDMDL
MODEL 2
REMARK VINA RESULT:      -7.6      1.976      3.531
REMARK  4 active torsions:
REMARK  status: ('A' for Active; 'I' for Inactive)
REMARK    1  A    between atoms: N_2  and  S_1 
REMARK    2  A    between atoms: C_3  and  S_1 
REMARK    3  A    between atoms: C_5  and  N_4 
REMARK    4  A    between atoms: O_16  and  C_13 
ROOT
ATOM      1  N   UNL d   1      53.009  32.117  53.272  0.00  0.00    -0.226 N 
ATOM      2  N   UNL d   1      51.790  33.190  53.014  0.00  0.00    -0.300 N 
ATOM      3  C   UNL d   1      52.314  32.070  53.721  0.00  0.00     0.111 A 
ATOM      4  C   UNL d   1      53.094  32.699  52.695  0.00  0.00     0.111 A 
ATOM      5  C   UNL d   1      51.699  32.610  53.593  0.00  0.00     0.100 A 
ATOM      6  C   UNL d   1      52.479  33.239  52.567  0.00  0.00     0.100 A 
ENDROOT
BRANCH   1   7
ATOM      7  S   UNL d   1      53.607  31.585  53.403  0.00  0.00     0.272 S 
ATOM      8  O   UNL d   1      54.203  31.055  53.534  0.00  0.00    -0.200 OA
ATOM      9  O   UNL d   1      53.217  31.036  52.957  0.00  0.00    -0.200 OA
BRANCH   7  10
ATOM     10  C   UNL d   1      54.001  32.139  53.854  0.00  0.00     0.106 A 
ATOM     11  C   UNL d   1      53.871  32.171  54.668  0.00  0.00     0.043 A 
ATOM     12  C   UNL d   1      54.269  32.731  55.122  0.00  0.00     0.141 A 
ATOM     13  F   UNL d   1      54.144  32.767  55.927  0.00  0.00    -0.204 F 
ATOM     14  C   UNL d   1      54.794  33.253  54.759  0.00  0.00     0.030 A 
ATOM     15  C   UNL d   1      54.915  33.215  53.962  0.00  0.00     0.003 A 
ATOM     16  C   UNL d   1      54.517  32.655  53.507  0.00  0.00     0.013 A 
ENDBRANCH   7  10
ENDBRANCH   1   7
BRANCH   2  17
ATOM     17  C   UNL d   1      51.185  33.728  52.881  0.00  0.00     0.086 A 
ATOM     18  C   UNL d   1      51.207  34.466  53.250  0.00  0.00     0.110 A 
ATOM     19  C   UNL d   1      50.597  35.009  53.116  0.00  0.00     0.026 A 
ATOM     20  C   UNL d   1      49.964  34.815  52.613  0.00  0.00     0.002 A 
ATOM     21  C   UNL d   1      49.945  34.074  52.245  0.00  0.00     0.002 A 
ATOM     22  C   UNL d   1      50.556  33.531  52.379  0.00  0.00     0.019 A 
BRANCH  18  23
ATOM     23  O   UNL d   1      51.828  34.658  53.744  0.00  0.00    -0.327 OA
ATOM     24  C   UNL d   1      51.850  35.286  54.028  0.00  0.00     0.181 C 
ENDBRANCH  18  23
ENDBRANCH   2  17
TORSDOF 4
ENDMDL
MODEL 3
REMARK VINA RESULT:      -7.6      2.170      3.357
REMARK  4 active torsions:
REMARK  status: ('A' for Active; 'I' for Inactive)
REMARK    1  A    between atoms: N_2  and  S_1 
REMARK    2  A    between atoms: C_3  and  S_1 
REMARK    3  A    between atoms: C_5  and  N_4 
REMARK    4  A    between atoms: O_16  and  C_13 
ROOT
ATOM      1  N   UNL d   1      52.952  34.214  54.250  0.00  0.00    -0.226 N 
ATOM      2  N   UNL d   1      51.751  34.264  53.128  0.00  0.00    -0.300 N 
ATOM      3  C   UNL d   1      52.968  34.787  53.652  0.00  0.00     0.111 A 
ATOM      4  C   UNL d   1      52.337  33.667  54.288  0.00  0.00     0.111 A 
ATOM      5  C   UNL d   1      52.364  34.814  53.086  0.00  0.00     0.100 A 
ATOM      6  C   UNL d   1      51.733  33.694  53.722  0.00  0.00     0.100 A 
ENDROOT
BRANCH   1   7
ATOM      7  S   UNL d   1      53.548  34.194  54.801  0.00  0.00     0.272 S 
ATOM      8  O   UNL d   1      54.141  34.174  55.349  0.00  0.00    -0.200 OA
ATOM      9  O   UNL d   1      53.256  34.867  55.140  0.00  0.00    -0.200 OA
BRANCH   7  10
ATOM     10  C   UNL d   1      53.842  33.514  54.458  0.00  0.00     0.106 A 
ATOM     11  C   UNL d   1      54.426  33.569  53.878  0.00  0.00     0.043 A 
ATOM     12  C   UNL d   1      54.723  32.883  53.532  0.00  0.00     0.141 A 
ATOM     13  F   UNL d   1      55.299  32.932  52.959  0.00  0.00    -0.204 F 
ATOM     14  C   UNL d   1      54.433  32.148  53.769  0.00  0.00     0.030 A 
ATOM     15  C   UNL d   1      53.861  32.104  54.338  0.00  0.00     0.003 A 
ATOM     16  C   UNL d   1      53.564  32.790  54.684  0.00  0.00     0.013 A 
ENDBRANCH   7  10
ENDBRANCH   1   7
BRANCH   2  17
ATOM     17  C   UNL d   1      51.149  34.285  52.572  0.00  0.00     0.086 A 
ATOM     18  C   UNL d   1      50.408  34.582  52.782  0.00  0.00     0.110 A 
ATOM     19  C   UNL d   1      49.801  34.603  52.220  0.00  0.00     0.026 A 
ATOM     20  C   UNL d   1      49.933  34.326  51.447  0.00  0.00     0.002 A 
ATOM     21  C   UNL d   1      50.677  34.028  51.240  0.00  0.00     0.002 A 
ATOM     22  C   UNL d   1      51.284  34.008  51.802  0.00  0.00     0.019 A 
BRANCH  18  23
ATOM     23  O   UNL d   1      50.277  34.854  53.541  0.00  0.00    -0.327 OA
ATOM     24  C   UNL d   1      49.668  35.138  53.695  0.00  0.00     0.181 C 
ENDBRANCH  18  23
ENDBRANCH   2  17
TORSDOF 4
ENDMDL
MODEL 4
REMARK VINA RESULT:      -7.5      1.665      2.575
REMARK  4 active torsions:
REMARK  status: ('A' for Active; 'I' for Inactive)
REMARK    1  A    between atoms: N_2  and  S_1 
REMARK    2  A    between atoms: C_3  and  S_1 
REMARK    3  A    between atoms: C_5  and  N_4 
REMARK    4  A    between atoms: O_16  and  C_13 
ROOT
ATOM      1  N   UNL d   1      51.731  33.585  52.982  0.00  0.00    -0.226 N 
ATOM      2  N   UNL d   1      52.424  32.104  53.156  0.00  0.00    -0.300 N 
ATOM      3  C   UNL d   1      51.455  33.065  53.565  0.00  0.00     0.111 A 
ATOM      4  C   UNL d   1      52.351  33.365  52.487  0.00  0.00     0.111 A 
ATOM      5  C   UNL d   1      51.803  32.319  53.655  0.00  0.00     0.100 A 
ATOM      6  C   UNL d   1      52.700  32.619  52.576  0.00  0.00     0.100 A 
ENDROOT
BRANCH   1   7
ATOM      7  S   UNL d   1      51.385  34.314  52.900  0.00  0.00     0.272 S 
ATOM      8  O   UNL d   1      51.040  35.041  52.819  0.00  0.00    -0.200 OA
ATOM      9  O   UNL d   1      50.756  33.974  52.524  0.00  0.00    -0.200 OA
BRANCH   7  10
ATOM     10  C   UNL d   1      52.020  34.658  53.281  0.00  0.00     0.106 A 
ATOM     11  C   UNL d   1      51.985  34.791  54.094  0.00  0.00     0.043 A 
ATOM     12  C   UNL d   1      52.626  35.138  54.478  0.00  0.00     0.141 A 
ATOM     13  F   UNL d   1      52.597  35.272  55.281  0.00  0.00    -0.204 F 
ATOM     14  C   UNL d   1      53.296  35.349  54.045  0.00  0.00     0.030 A 
ATOM     15  C   UNL d   1      53.321  35.215  53.249  0.00  0.00     0.003 A 
ATOM     16  C   UNL d   1      52.680  34.868  52.865  0.00  0.00     0.013 A 
ENDBRANCH   7  10
ENDBRANCH   1   7
BRANCH   2  17
ATOM     17  C   UNL d   1      52.774  31.367  53.239  0.00  0.00     0.086 A 
ATOM     18  C   UNL d   1      53.405  31.271  53.761  0.00  0.00     0.110 A 
ATOM     19  C   UNL d   1      53.758  30.526  53.845  0.00  0.00     0.026 A 
ATOM     20  C   UNL d   1      53.481  29.877  53.405  0.00  0.00     0.002 A 
ATOM     21  C   UNL d   1      52.848  29.978  52.882  0.00  0.00     0.002 A 
ATOM     22  C   UNL d   1      52.495  30.722  52.798  0.00  0.00     0.019 A 
BRANCH  18  23
ATOM     23  O   UNL d   1      53.678  31.907  54.194  0.00  0.00    -0.327 OA
ATOM     24  C   UNL d   1      54.176  31.808  54.660  0.00  0.00     0.181 C 
ENDBRANCH  18  23
ENDBRANCH   2  17
TORSDOF 4
ENDMDL
MODEL 5
REMARK VINA RESULT:      -7.0      1.919      4.208
REMARK  4 active torsions:
REMARK  status: ('A' for Active; 'I' for Inactive)
REMARK    1  A    between atoms: N_2  and  S_1 
REMARK    2  A    between atoms: C_3  and  S_1 
REMARK    3  A    between atoms: C_5  and  N_4 
REMARK    4  A    between atoms: O_16  and  C_13 
ROOT
ATOM      1  N   UNL d   1      53.154  31.383  53.173  0.00  0.00    -0.226 N 
ATOM      2  N   UNL d   1      53.707  32.631  54.091  0.00  0.00    -0.300 N 
ATOM      3  C   UNL d   1      52.653  31.746  53.725  0.00  0.00     0.111 A 
ATOM      4  C   UNL d   1      53.930  31.644  53.081  0.00  0.00     0.111 A 
ATOM      5  C   UNL d   1      52.930  32.374  54.188  0.00  0.00     0.100 A 
ATOM      6  C   UNL d   1      54.207  32.273  53.544  0.00  0.00     0.100 A 
ENDROOT
BRANCH   1   7
ATOM      7  S   UNL d   1      52.876  30.768  52.724  0.00  0.00     0.272 S 
ATOM      8  O   UNL d   1      52.598  30.156  52.276  0.00  0.00    -0.200 OA
ATOM      9  O   UNL d   1      52.609  31.293  52.171  0.00  0.00    -0.200 OA
BRANCH   7  10
ATOM     10  C   UNL d   1      53.145  30.238  53.282  0.00  0.00     0.106 A 
ATOM     11  C   UNL d   1      52.628  29.954  53.859  0.00  0.00     0.043 A 
ATOM     12  C   UNL d   1      52.900  29.418  54.422  0.00  0.00     0.141 A 
ATOM     13  F   UNL d   1      52.394  29.135  54.994  0.00  0.00    -0.204 F 
ATOM     14  C   UNL d   1      53.687  29.172  54.404  0.00  0.00     0.030 A 
ATOM     15  C   UNL d   1      54.186  29.455  53.836  0.00  0.00     0.003 A 
ATOM     16  C   UNL d   1      53.914  29.991  53.272  0.00  0.00     0.013 A 
ENDBRANCH   7  10
ENDBRANCH   1   7
BRANCH   2  17
ATOM     17  C   UNL d   1      53.989  33.253  54.546  0.00  0.00     0.086 A 
ATOM     18  C   UNL d   1      53.705  34.016  54.413  0.00  0.00     0.110 A 
ATOM     19  C   UNL d   1      53.989  34.644  54.873  0.00  0.00     0.026 A 
ATOM     20  C   UNL d   1      54.557  34.509  55.465  0.00  0.00     0.002 A 
ATOM     21  C   UNL d   1      54.839  33.742  55.594  0.00  0.00     0.002 A 
ATOM     22  C   UNL d   1      54.555  33.114  55.135  0.00  0.00     0.019 A 
BRANCH  18  23
ATOM     23  O   UNL d   1      53.147  34.150  53.832  0.00  0.00    -0.327 OA
ATOM     24  C   UNL d   1      52.923  34.793  53.723  0.00  0.00     0.181 C 
ENDBRANCH  18  23
ENDBRANCH   2  17
TORSDOF 4
ENDMDL
