MODEL 1
REMARK VINA RESULT:      -0.9      0.000      0.000
REMARK  4 active torsions:
REMARK  status: ('A' for Active; 'I' for Inactive)
REMARK    1  A    between atoms: N_14  and  C_6 
REMARK    2  A    between atoms: C_19  and  N_14 
REMARK    3  A    between atoms: O_17  and  C_20 
REMARK    4  A    between atoms: C_20  and  C_19 
ROOT
ATOM      1  N   UNL d   1     -41.714-122.629 -51.654  0.00  0.00    -0.183 N 
ATOM      2  C   UNL d   1     -41.834-122.228 -50.937  0.00  0.00     0.169 A 
ATOM      3  C   UNL d   1     -42.146-122.618 -50.289  0.00  0.00     0.073 A 
ATOM      4  C   UNL d   1     -42.337-123.409 -50.361  0.00  0.00     0.185 A 
ATOM      5  N   UNL d   1     -42.217-123.810 -51.078  0.00  0.00    -0.142 NA
ATOM      6  C   UNL d   1     -41.402-122.223 -52.291  0.00  0.00     0.218 A 
ATOM      7  N   UNL d   1     -41.639-121.432 -50.877  0.00  0.00    -0.226 NA
ATOM      8  C   UNL d   1     -42.265-122.221 -49.580  0.00  0.00     0.007 A 
ATOM      9  N   UNL d   1     -42.653-123.817 -49.714  0.00  0.00    -0.225 NA
ATOM     10  C   UNL d   1     -41.207-121.436 -52.236  0.00  0.00     0.071 A 
ATOM     11  C   UNL d   1     -42.576-122.610 -48.932  0.00  0.00     0.019 A 
ATOM     12  C   UNL d   1     -41.327-121.035 -51.519  0.00  0.00     0.087 A 
ATOM     13  C   UNL d   1     -42.773-123.417 -48.997  0.00  0.00     0.083 A 
ATOM     14  C   UNL d   1     -42.068-121.422 -49.520  0.00  0.00     0.000 C 
ATOM     15  C   UNL d   1     -41.123-120.208 -51.460  0.00  0.00     0.021 C 
ATOM     16  C   UNL d   1     -43.084-123.810 -48.355  0.00  0.00     0.021 C 
ENDROOT
BRANCH   6  17
ATOM     17  N   UNL d   1     -41.281-122.643 -53.026  0.00  0.00    -0.378 NA
BRANCH  17  18
ATOM     18  C   UNL d   1     -41.156-122.900 -53.823  0.00  0.00     0.189 C 
BRANCH  18  19
ATOM     19  C   UNL d   1     -41.729-122.720 -54.422  0.00  0.00     0.151 C 
BRANCH  19  20
ATOM     20  O   UNL d   1     -41.479-122.563 -55.209  0.00  0.00    -0.323 OA
ATOM     21  C   UNL d   1     -41.965-122.111 -55.746  0.00  0.00     0.182 C 
ENDBRANCH  19  20
ENDBRANCH  18  19
ENDBRANCH  17  18
ENDBRANCH   6  17
TORSDOF 4
ENDMDL
