MODEL 1
REMARK VINA RESULT:      -7.7      0.000      0.000
REMARK  7 active torsions:
REMARK  status: ('A' for Active; 'I' for Inactive)
REMARK    1  A    between atoms: C_10  and  N_1 
REMARK    2  A    between atoms: S_8  and  C_6 
REMARK    3  A    between atoms: C_13  and  S_8 
REMARK    4  A    between atoms: C_11  and  C_13 
REMARK    5  A    between atoms: O_18  and  C_11 
REMARK    6  A    between atoms: C_22  and  C_13 
REMARK    7  A    between atoms: C_23  and  O_18 
ROOT
ATOM      1  N   UNL d   1      50.620  33.912  52.946  0.00  0.00    -0.193 N 
ATOM      2  N   UNL d   1      50.502  33.213  53.354  0.00  0.00    -0.058 NA
ATOM      3  C   UNL d   1      51.415  34.124  53.036  0.00  0.00     0.188 A 
ATOM      4  C   UNL d   1      51.774  33.545  53.501  0.00  0.00     0.164 A 
ATOM      5  N   UNL d   1      51.195  32.986  53.692  0.00  0.00    -0.125 NA
ATOM      6  C   UNL d   1      52.572  33.602  53.689  0.00  0.00     0.135 A 
ATOM      7  N   UNL d   1      51.853  34.760  52.757  0.00  0.00    -0.203 NA
ATOM      8  N   UNL d   1      53.017  34.242  53.410  0.00  0.00    -0.216 NA
ATOM      9  C   UNL d   1      52.658  34.821  52.944  0.00  0.00     0.201 A 
ENDROOT
BRANCH   6  10
ATOM     10  S   UNL d   1      52.931  33.023  54.155  0.00  0.00    -0.061 SA
BRANCH  10  11
ATOM     11  C   UNL d   1      53.738  32.882  54.090  0.00  0.00     0.094 C 
BRANCH  11  12
ATOM     12  C   UNL d   1      54.007  32.205  53.702  0.00  0.00     0.306 C 
ATOM     13  O   UNL d   1      54.615  32.258  53.147  0.00  0.00    -0.258 OA
BRANCH  12  14
ATOM     14  O   UNL d   1      53.663  31.470  53.874  0.00  0.00    -0.271 OA
BRANCH  14  15
ATOM     15  C   UNL d   1      53.901  30.798  53.458  0.00  0.00     0.126 C 
ATOM     16  C   UNL d   1      53.530  30.080  53.586  0.00  0.00     0.029 C 
ENDBRANCH  14  15
ENDBRANCH  12  14
ENDBRANCH  11  12
BRANCH  11  17
ATOM     17  C   UNL d   1      54.275  33.419  54.413  0.00  0.00     0.012 C 
ATOM     18  C   UNL d   1      54.576  33.297  55.165  0.00  0.00     0.001 C 
ENDBRANCH  11  17
ENDBRANCH  10  11
ENDBRANCH   6  10
BRANCH   1  19
ATOM     19  C   UNL d   1      50.031  34.300  52.536  0.00  0.00     0.086 A 
ATOM     20  C   UNL d   1      49.913  34.142  51.733  0.00  0.00     0.022 A 
ATOM     21  C   UNL d   1      49.318  34.534  51.318  0.00  0.00     0.031 A 
ATOM     22  C   UNL d   1      48.840  35.079  51.689  0.00  0.00     0.140 A 
ATOM     23  C   UNL d   1      48.958  35.241  52.504  0.00  0.00     0.031 A 
ATOM     24  F   UNL d   1      48.237  35.469  51.249  0.00  0.00    -0.204 F 
ATOM     25  C   UNL d   1      49.547  34.856  52.923  0.00  0.00     0.022 A 
ENDBRANCH   1  19
TORSDOF 7
ENDMDL
MODEL 2
REMARK VINA RESULT:      -6.9      2.662      4.866
REMARK  7 active torsions:
REMARK  status: ('A' for Active; 'I' for Inactive)
REMARK    1  A    between atoms: C_10  and  N_1 
REMARK    2  A    between atoms: S_8  and  C_6 
REMARK    3  A    between atoms: C_13  and  S_8 
REMARK    4  A    between atoms: C_11  and  C_13 
REMARK    5  A    between atoms: O_18  and  C_11 
REMARK    6  A    between atoms: C_22  and  C_13 
REMARK    7  A    between atoms: C_23  and  O_18 
ROOT
ATOM      1  N   UNL d   1      53.149  30.945  53.468  0.00  0.00    -0.193 N 
ATOM      2  N   UNL d   1      52.831  31.052  52.722  0.00  0.00    -0.058 NA
ATOM      3  C   UNL d   1      53.300  31.693  53.788  0.00  0.00     0.188 A 
ATOM      4  C   UNL d   1      53.070  32.252  53.226  0.00  0.00     0.164 A 
ATOM      5  N   UNL d   1      52.782  31.840  52.569  0.00  0.00    -0.125 NA
ATOM      6  C   UNL d   1      53.154  33.054  53.384  0.00  0.00     0.135 A 
ATOM      7  N   UNL d   1      53.612  31.934  54.508  0.00  0.00    -0.203 NA
ATOM      8  N   UNL d   1      53.469  33.301  54.109  0.00  0.00    -0.216 NA
ATOM      9  C   UNL d   1      53.698  32.742  54.670  0.00  0.00     0.201 A 
ENDROOT
BRANCH   6  10
ATOM     10  S   UNL d   1      52.924  33.614  52.822  0.00  0.00    -0.061 SA
BRANCH  10  11
ATOM     11  C   UNL d   1      52.456  34.252  53.042  0.00  0.00     0.094 C 
BRANCH  11  12
ATOM     12  C   UNL d   1      51.735  34.383  52.662  0.00  0.00     0.306 C 
ATOM     13  O   UNL d   1      51.702  34.436  51.839  0.00  0.00    -0.258 OA
BRANCH  12  14
ATOM     14  O   UNL d   1      51.043  34.461  53.112  0.00  0.00    -0.271 OA
BRANCH  14  15
ATOM     15  C   UNL d   1      50.307  34.468  52.737  0.00  0.00     0.126 C 
ATOM     16  C   UNL d   1      49.645  34.741  53.131  0.00  0.00     0.029 C 
ENDBRANCH  14  15
ENDBRANCH  12  14
ENDBRANCH  11  12
BRANCH  11  17
ATOM     17  C   UNL d   1      52.708  34.759  53.643  0.00  0.00     0.012 C 
ATOM     18  C   UNL d   1      53.121  35.441  53.458  0.00  0.00     0.001 C 
ENDBRANCH  11  17
ENDBRANCH  10  11
ENDBRANCH   6  10
BRANCH   1  19
ATOM     19  C   UNL d   1      53.277  30.211  53.802  0.00  0.00     0.086 A 
ATOM     20  C   UNL d   1      52.706  29.878  54.300  0.00  0.00     0.022 A 
ATOM     21  C   UNL d   1      52.835  29.136  54.637  0.00  0.00     0.031 A 
ATOM     22  C   UNL d   1      53.521  28.723  54.488  0.00  0.00     0.140 A 
ATOM     23  C   UNL d   1      54.101  29.060  53.983  0.00  0.00     0.031 A 
ATOM     24  F   UNL d   1      53.635  27.968  54.841  0.00  0.00    -0.204 F 
ATOM     25  C   UNL d   1      53.980  29.796  53.644  0.00  0.00     0.022 A 
ENDBRANCH   1  19
TORSDOF 7
ENDMDL
MODEL 3
REMARK VINA RESULT:      -6.0      2.795      5.172
REMARK  7 active torsions:
REMARK  status: ('A' for Active; 'I' for Inactive)
REMARK    1  A    between atoms: C_10  and  N_1 
REMARK    2  A    between atoms: S_8  and  C_6 
REMARK    3  A    between atoms: C_13  and  S_8 
REMARK    4  A    between atoms: C_11  and  C_13 
REMARK    5  A    between atoms: O_18  and  C_11 
REMARK    6  A    between atoms: C_22  and  C_13 
REMARK    7  A    between atoms: C_23  and  O_18 
ROOT
ATOM      1  N   UNL d   1      52.604  34.166  53.641  0.00  0.00    -0.193 N 
ATOM      2  N   UNL d   1      52.578  34.951  53.413  0.00  0.00    -0.058 NA
ATOM      3  C   UNL d   1      51.875  33.825  53.451  0.00  0.00     0.188 A 
ATOM      4  C   UNL d   1      51.409  34.412  53.106  0.00  0.00     0.164 A 
ATOM      5  N   UNL d   1      51.858  35.106  53.088  0.00  0.00    -0.125 NA
ATOM      6  C   UNL d   1      50.646  34.239  52.856  0.00  0.00     0.135 A 
ATOM      7  N   UNL d   1      51.578  33.065  53.547  0.00  0.00    -0.203 NA
ATOM      8  N   UNL d   1      50.343  33.474  52.950  0.00  0.00    -0.216 NA
ATOM      9  C   UNL d   1      50.809  32.887  53.296  0.00  0.00     0.201 A 
ENDROOT
BRANCH   6  10
ATOM     10  S   UNL d   1      50.180  34.827  52.510  0.00  0.00    -0.061 SA
BRANCH  10  11
ATOM     11  C   UNL d   1      49.509  34.623  52.082  0.00  0.00     0.094 C 
BRANCH  11  12
ATOM     12  C   UNL d   1      48.770  34.908  52.315  0.00  0.00     0.306 C 
ATOM     13  O   UNL d   1      48.080  34.547  52.043  0.00  0.00    -0.258 OA
BRANCH  12  14
ATOM     14  O   UNL d   1      48.725  35.560  52.825  0.00  0.00    -0.271 OA
BRANCH  14  15
ATOM     15  C   UNL d   1      47.996  35.922  52.966  0.00  0.00     0.126 C 
ATOM     16  C   UNL d   1      47.923  36.490  53.550  0.00  0.00     0.029 C 
ENDBRANCH  14  15
ENDBRANCH  12  14
ENDBRANCH  11  12
BRANCH  11  17
ATOM     17  C   UNL d   1      49.577  34.134  51.420  0.00  0.00     0.012 C 
ATOM     18  C   UNL d   1      49.427  34.432  50.672  0.00  0.00     0.001 C 
ENDBRANCH  11  17
ENDBRANCH  10  11
ENDBRANCH   6  10
BRANCH   1  19
ATOM     19  C   UNL d   1      53.255  33.821  53.992  0.00  0.00     0.086 A 
ATOM     20  C   UNL d   1      53.397  33.931  54.799  0.00  0.00     0.022 A 
ATOM     21  C   UNL d   1      54.054  33.582  55.154  0.00  0.00     0.031 A 
ATOM     22  C   UNL d   1      54.571  33.126  54.719  0.00  0.00     0.140 A 
ATOM     23  C   UNL d   1      54.428  33.013  53.900  0.00  0.00     0.031 A 
ATOM     24  F   UNL d   1      55.236  32.778  55.099  0.00  0.00    -0.204 F 
ATOM     25  C   UNL d   1      53.777  33.357  53.541  0.00  0.00     0.022 A 
ENDBRANCH   1  19
TORSDOF 7
ENDMDL
MODEL 4
REMARK VINA RESULT:      -6.0      2.568      3.624
REMARK  7 active torsions:
REMARK  status: ('A' for Active; 'I' for Inactive)
REMARK    1  A    between atoms: C_10  and  N_1 
REMARK    2  A    between atoms: S_8  and  C_6 
REMARK    3  A    between atoms: C_13  and  S_8 
REMARK    4  A    between atoms: C_11  and  C_13 
REMARK    5  A    between atoms: O_18  and  C_11 
REMARK    6  A    between atoms: C_22  and  C_13 
REMARK    7  A    between atoms: C_23  and  O_18 
ROOT
ATOM      1  N   UNL d   1      53.470  33.492  54.225  0.00  0.00    -0.193 N 
ATOM      2  N   UNL d   1      54.098  33.071  54.539  0.00  0.00    -0.058 NA
ATOM      3  C   UNL d   1      53.022  32.971  53.766  0.00  0.00     0.188 A 
ATOM      4  C   UNL d   1      53.385  32.231  53.806  0.00  0.00     0.164 A 
ATOM      5  N   UNL d   1      54.052  32.308  54.290  0.00  0.00    -0.125 NA
ATOM      6  C   UNL d   1      53.065  31.591  53.402  0.00  0.00     0.135 A 
ATOM      7  N   UNL d   1      52.339  33.072  53.321  0.00  0.00    -0.203 NA
ATOM      8  N   UNL d   1      52.376  31.689  52.953  0.00  0.00    -0.216 NA
ATOM      9  C   UNL d   1      52.013  32.429  52.913  0.00  0.00     0.201 A 
ENDROOT
BRANCH   6  10
ATOM     10  S   UNL d   1      53.428  30.851  53.443  0.00  0.00    -0.061 SA
BRANCH  10  11
ATOM     11  C   UNL d   1      53.028  30.180  53.189  0.00  0.00     0.094 C 
BRANCH  11  12
ATOM     12  C   UNL d   1      52.792  29.610  53.737  0.00  0.00     0.306 C 
ATOM     13  O   UNL d   1      52.014  29.336  53.745  0.00  0.00    -0.258 OA
BRANCH  12  14
ATOM     14  O   UNL d   1      53.342  29.312  54.282  0.00  0.00    -0.271 OA
BRANCH  14  15
ATOM     15  C   UNL d   1      53.101  28.771  54.857  0.00  0.00     0.126 C 
ATOM     16  C   UNL d   1      53.646  28.446  55.373  0.00  0.00     0.029 C 
ENDBRANCH  14  15
ENDBRANCH  12  14
ENDBRANCH  11  12
BRANCH  11  17
ATOM     17  C   UNL d   1      52.864  30.079  52.387  0.00  0.00     0.012 C 
ATOM     18  C   UNL d   1      53.375  29.649  51.913  0.00  0.00     0.001 C 
ENDBRANCH  11  17
ENDBRANCH  10  11
ENDBRANCH   6  10
BRANCH   1  19
ATOM     19  C   UNL d   1      53.346  34.287  54.365  0.00  0.00     0.086 A 
ATOM     20  C   UNL d   1      53.109  34.542  55.115  0.00  0.00     0.022 A 
ATOM     21  C   UNL d   1      52.983  35.344  55.258  0.00  0.00     0.031 A 
ATOM     22  C   UNL d   1      53.089  35.895  54.667  0.00  0.00     0.140 A 
ATOM     23  C   UNL d   1      53.329  35.638  53.905  0.00  0.00     0.031 A 
ATOM     24  F   UNL d   1      52.955  36.709  54.831  0.00  0.00    -0.204 F 
ATOM     25  C   UNL d   1      53.457  34.842  53.756  0.00  0.00     0.022 A 
ENDBRANCH   1  19
TORSDOF 7
ENDMDL
MODEL 5
REMARK VINA RESULT:      -5.3      3.656      6.116
REMARK  7 active torsions:
REMARK  status: ('A' for Active; 'I' for Inactive)
REMARK    1  A    between atoms: C_10  and  N_1 
REMARK    2  A    between atoms: S_8  and  C_6 
REMARK    3  A    between atoms: C_13  and  S_8 
REMARK    4  A    between atoms: C_11  and  C_13 
REMARK    5  A    between atoms: O_18  and  C_11 
REMARK    6  A    between atoms: C_22  and  C_13 
REMARK    7  A    between atoms: C_23  and  O_18 
ROOT
ATOM      1  N   UNL d   1      49.765  34.777  52.766  0.00  0.00    -0.193 N 
ATOM      2  N   UNL d   1      49.525  35.265  53.378  0.00  0.00    -0.058 NA
ATOM      3  C   UNL d   1      49.177  34.794  52.185  0.00  0.00     0.188 A 
ATOM      4  C   UNL d   1      48.580  35.297  52.452  0.00  0.00     0.164 A 
ATOM      5  N   UNL d   1      48.810  35.583  53.193  0.00  0.00    -0.125 NA
ATOM      6  C   UNL d   1      47.914  35.429  51.990  0.00  0.00     0.135 A 
ATOM      7  N   UNL d   1      49.108  34.421  51.456  0.00  0.00    -0.203 NA
ATOM      8  N   UNL d   1      47.841  35.055  51.255  0.00  0.00    -0.216 NA
ATOM      9  C   UNL d   1      48.437  34.551  50.988  0.00  0.00     0.201 A 
ENDROOT
BRANCH   6  10
ATOM     10  S   UNL d   1      47.316  35.933  52.257  0.00  0.00    -0.061 SA
BRANCH  10  11
ATOM     11  C   UNL d   1      46.534  35.791  52.052  0.00  0.00     0.094 C 
BRANCH  11  12
ATOM     12  C   UNL d   1      45.998  35.538  52.626  0.00  0.00     0.306 C 
ATOM     13  O   UNL d   1      45.536  34.867  52.498  0.00  0.00    -0.258 OA
BRANCH  12  14
ATOM     14  O   UNL d   1      45.926  35.962  53.335  0.00  0.00    -0.271 OA
BRANCH  14  15
ATOM     15  C   UNL d   1      45.370  35.729  53.899  0.00  0.00     0.126 C 
ATOM     16  C   UNL d   1      45.371  36.067  54.644  0.00  0.00     0.029 C 
ENDBRANCH  14  15
ENDBRANCH  12  14
ENDBRANCH  11  12
BRANCH  11  17
ATOM     17  C   UNL d   1      46.287  35.901  51.272  0.00  0.00     0.012 C 
ATOM     18  C   UNL d   1      45.726  36.471  51.096  0.00  0.00     0.001 C 
ENDBRANCH  11  17
ENDBRANCH  10  11
ENDBRANCH   6  10
BRANCH   1  19
ATOM     19  C   UNL d   1      50.469  34.363  52.770  0.00  0.00     0.086 A 
ATOM     20  C   UNL d   1      50.516  33.632  53.153  0.00  0.00     0.022 A 
ATOM     21  C   UNL d   1      51.227  33.213  53.157  0.00  0.00     0.031 A 
ATOM     22  C   UNL d   1      51.889  33.511  52.786  0.00  0.00     0.140 A 
ATOM     23  C   UNL d   1      51.842  34.253  52.397  0.00  0.00     0.031 A 
ATOM     24  F   UNL d   1      52.605  33.069  52.801  0.00  0.00    -0.204 F 
ATOM     25  C   UNL d   1      51.139  34.674  52.389  0.00  0.00     0.022 A 
ENDBRANCH   1  19
TORSDOF 7
ENDMDL
MODEL 6
REMARK VINA RESULT:      -4.7      2.370      3.633
REMARK  7 active torsions:
REMARK  status: ('A' for Active; 'I' for Inactive)
REMARK    1  A    between atoms: C_10  and  N_1 
REMARK    2  A    between atoms: S_8  and  C_6 
REMARK    3  A    between atoms: C_13  and  S_8 
REMARK    4  A    between atoms: C_11  and  C_13 
REMARK    5  A    between atoms: O_18  and  C_11 
REMARK    6  A    between atoms: C_22  and  C_13 
REMARK    7  A    between atoms: C_23  and  O_18 
ROOT
ATOM      1  N   UNL d   1      47.830  35.715  52.785  0.00  0.00    -0.193 N 
ATOM      2  N   UNL d   1      48.144  35.934  53.508  0.00  0.00    -0.058 NA
ATOM      3  C   UNL d   1      48.397  35.258  52.393  0.00  0.00     0.188 A 
ATOM      4  C   UNL d   1      49.056  35.204  52.887  0.00  0.00     0.164 A 
ATOM      5  N   UNL d   1      48.885  35.629  53.576  0.00  0.00    -0.125 NA
ATOM      6  C   UNL d   1      49.718  34.781  52.648  0.00  0.00     0.135 A 
ATOM      7  N   UNL d   1      48.399  34.889  51.659  0.00  0.00    -0.203 NA
ATOM      8  N   UNL d   1      49.724  34.407  51.909  0.00  0.00    -0.216 NA
ATOM      9  C   UNL d   1      49.065  34.461  51.415  0.00  0.00     0.201 A 
ENDROOT
BRANCH   6  10
ATOM     10  S   UNL d   1      50.377  34.727  53.142  0.00  0.00    -0.061 SA
BRANCH  10  11
ATOM     11  C   UNL d   1      50.975  34.189  52.975  0.00  0.00     0.094 C 
BRANCH  11  12
ATOM     12  C   UNL d   1      51.759  34.445  52.934  0.00  0.00     0.306 C 
ATOM     13  O   UNL d   1      52.169  34.417  52.219  0.00  0.00    -0.258 OA
BRANCH  12  14
ATOM     14  O   UNL d   1      52.132  34.731  53.616  0.00  0.00    -0.271 OA
BRANCH  14  15
ATOM     15  C   UNL d   1      52.926  34.958  53.586  0.00  0.00     0.126 C 
ATOM     16  C   UNL d   1      53.269  35.345  54.220  0.00  0.00     0.029 C 
ENDBRANCH  14  15
ENDBRANCH  12  14
ENDBRANCH  11  12
BRANCH  11  17
ATOM     17  C   UNL d   1      50.790  33.394  52.850  0.00  0.00     0.012 C 
ATOM     18  C   UNL d   1      51.066  32.822  53.366  0.00  0.00     0.001 C 
ENDBRANCH  11  17
ENDBRANCH  10  11
ENDBRANCH   6  10
BRANCH   1  19
ATOM     19  C   UNL d   1      47.084  35.931  52.534  0.00  0.00     0.086 A 
ATOM     20  C   UNL d   1      46.997  36.491  51.931  0.00  0.00     0.022 A 
ATOM     21  C   UNL d   1      46.244  36.709  51.676  0.00  0.00     0.031 A 
ATOM     22  C   UNL d   1      45.578  36.380  52.011  0.00  0.00     0.140 A 
ATOM     23  C   UNL d   1      45.664  35.811  52.622  0.00  0.00     0.031 A 
ATOM     24  F   UNL d   1      44.817  36.615  51.738  0.00  0.00    -0.204 F 
ATOM     25  C   UNL d   1      46.410  35.590  52.880  0.00  0.00     0.022 A 
ENDBRANCH   1  19
TORSDOF 7
ENDMDL
MODEL 7
REMARK VINA RESULT:      -4.7      1.748      2.636
REMARK  7 active torsions:
REMARK  status: ('A' for Active; 'I' for Inactive)
REMARK    1  A    between atoms: C_10  and  N_1 
REMARK    2  A    between atoms: S_8  and  C_6 
REMARK    3  A    between atoms: C_13  and  S_8 
REMARK    4  A    between atoms: C_11  and  C_13 
REMARK    5  A    between atoms: O_18  and  C_11 
REMARK    6  A    between atoms: C_22  and  C_13 
REMARK    7  A    between atoms: C_23  and  O_18 
ROOT
ATOM      1  N   UNL d   1      48.659  35.013  51.722  0.00  0.00    -0.193 N 
ATOM      2  N   UNL d   1      49.031  34.644  51.094  0.00  0.00    -0.058 NA
ATOM      3  C   UNL d   1      49.153  34.946  52.382  0.00  0.00     0.188 A 
ATOM      4  C   UNL d   1      49.827  34.532  52.145  0.00  0.00     0.164 A 
ATOM      5  N   UNL d   1      49.737  34.351  51.343  0.00  0.00    -0.125 NA
ATOM      6  C   UNL d   1      50.426  34.377  52.684  0.00  0.00     0.135 A 
ATOM      7  N   UNL d   1      49.078  35.204  53.158  0.00  0.00    -0.203 NA
ATOM      8  N   UNL d   1      50.355  34.635  53.468  0.00  0.00    -0.216 NA
ATOM      9  C   UNL d   1      49.681  35.049  53.705  0.00  0.00     0.201 A 
ENDROOT
BRANCH   6  10
ATOM     10  S   UNL d   1      51.101  33.963  52.447  0.00  0.00    -0.061 SA
BRANCH  10  11
ATOM     11  C   UNL d   1      51.784  33.991  52.903  0.00  0.00     0.094 C 
BRANCH  11  12
ATOM     12  C   UNL d   1      52.062  33.306  53.270  0.00  0.00     0.306 C 
ATOM     13  O   UNL d   1      52.237  33.307  54.076  0.00  0.00    -0.258 OA
BRANCH  12  14
ATOM     14  O   UNL d   1      52.165  32.615  52.823  0.00  0.00    -0.271 OA
BRANCH  14  15
ATOM     15  C   UNL d   1      52.541  31.961  53.158  0.00  0.00     0.126 C 
ATOM     16  C   UNL d   1      52.592  31.257  52.745  0.00  0.00     0.029 C 
ENDBRANCH  14  15
ENDBRANCH  12  14
ENDBRANCH  11  12
BRANCH  11  17
ATOM     17  C   UNL d   1      52.189  34.705  52.991  0.00  0.00     0.012 C 
ATOM     18  C   UNL d   1      52.918  34.811  52.633  0.00  0.00     0.001 C 
ENDBRANCH  11  17
ENDBRANCH  10  11
ENDBRANCH   6  10
BRANCH   1  19
ATOM     19  C   UNL d   1      47.928  35.372  51.665  0.00  0.00     0.086 A 
ATOM     20  C   UNL d   1      47.298  34.972  51.309  0.00  0.00     0.022 A 
ATOM     21  C   UNL d   1      46.559  35.334  51.251  0.00  0.00     0.031 A 
ATOM     22  C   UNL d   1      46.439  36.086  51.541  0.00  0.00     0.140 A 
ATOM     23  C   UNL d   1      47.078  36.494  51.902  0.00  0.00     0.031 A 
ATOM     24  F   UNL d   1      45.678  36.439  51.472  0.00  0.00    -0.204 F 
ATOM     25  C   UNL d   1      47.814  36.140  51.963  0.00  0.00     0.022 A 
ENDBRANCH   1  19
TORSDOF 7
ENDMDL
