MODEL 1
REMARK VINA RESULT:      22.5      0.000      0.000
REMARK  4 active torsions:
REMARK  status: ('A' for Active; 'I' for Inactive)
REMARK    1  A    between atoms: C_3  and  C_1 
REMARK    2  A    between atoms: C_5  and  C_1 
REMARK    3  A    between atoms: C_2  and  C_3 
REMARK       I    between atoms: N_4  and  C_2 
REMARK    4  A    between atoms: C_6  and  N_4 
ROOT
ATOM      1  C   UNL d   1     -56.567 -99.612 -44.501  0.00  0.00     0.279 C 
ATOM      2  N   UNL d   1     -55.747 -99.730 -44.523  0.00  0.00    -0.208 NA
ATOM      3  O   UNL d   1     -57.052-100.239 -44.274  0.00  0.00    -0.265 OA
ENDROOT
BRANCH   1   4
ATOM      4  C   UNL d   1     -56.918 -98.887 -44.698  0.00  0.00     0.063 C 
BRANCH   4   5
ATOM      5  C   UNL d   1     -57.667 -98.848 -44.985  0.00  0.00     0.006 C 
BRANCH   5   6
ATOM      6  C   UNL d   1     -58.329 -98.824 -44.477  0.00  0.00     0.011 A 
ATOM      7  C   UNL d   1     -59.101 -98.790 -44.760  0.00  0.00     0.058 A 
ATOM      8 CL   UNL d   1     -59.234 -98.779 -45.574  0.00  0.00    -0.082 Cl
ATOM      9  C   UNL d   1     -59.735 -98.767 -44.257  0.00  0.00     0.011 A 
ATOM     10  C   UNL d   1     -59.605 -98.777 -43.426  0.00  0.00     0.001 A 
ATOM     11  C   UNL d   1     -58.845 -98.811 -43.120  0.00  0.00     0.000 A 
ATOM     12  C   UNL d   1     -58.199 -98.835 -43.646  0.00  0.00     0.001 A 
ENDBRANCH   5   6
ENDBRANCH   4   5
ENDBRANCH   1   4
BRANCH   2  13
ATOM     13  C   UNL d   1     -55.397-100.454 -44.326  0.00  0.00     0.088 A 
ATOM     14  C   UNL d   1     -55.373-101.051 -44.895  0.00  0.00     0.061 A 
ATOM     15  C   UNL d   1     -55.040-101.766 -44.735  0.00  0.00     0.197 A 
ATOM     16  O   UNL d   1     -55.016-102.361 -45.301  0.00  0.00    -0.286 OA
ATOM     17  C   UNL d   1     -54.713-101.900 -43.976  0.00  0.00     0.042 A 
ATOM     18  C   UNL d   1     -54.737-101.302 -43.407  0.00  0.00     0.005 A 
ATOM     19  C   UNL d   1     -55.088-100.578 -43.604  0.00  0.00     0.019 A 
ENDBRANCH   2  13
TORSDOF 4
ENDMDL
