MODEL 1
REMARK VINA RESULT:      -3.0      0.000      0.000
REMARK  6 active torsions:
REMARK  status: ('A' for Active; 'I' for Inactive)
REMARK    1  A    between atoms: C_6  and  C_1 
REMARK    2  A    between atoms: C_9  and  N_3 
REMARK       I    between atoms: N_7  and  C_6 
REMARK    3  A    between atoms: C_8  and  N_7 
REMARK    4  A    between atoms: C_14  and  C_9 
REMARK    5  A    between atoms: O_21  and  C_12 
REMARK    6  A    between atoms: O_22  and  C_19 
ROOT
ATOM      1  C   UNL d   1      33.065  19.908 -22.601  0.00  0.00     0.199 A 
ATOM      2  C   UNL d   1      33.157  19.552 -23.346  0.00  0.00     0.211 A 
ATOM      3  N   UNL d   1      33.149  18.733 -23.239  0.00  0.00    -0.190 N 
ATOM      4  N   UNL d   1      33.001  19.307 -22.038  0.00  0.00    -0.122 NA
ATOM      5  N   UNL d   1      33.054  18.579 -22.435  0.00  0.00    -0.058 NA
ATOM      6  N   UNL d   1      33.241  19.948 -24.068  0.00  0.00    -0.125 N 
ENDROOT
BRANCH   1   7
ATOM      7  C   UNL d   1      33.043  20.718 -22.457  0.00  0.00     0.302 C 
ATOM      8  N   UNL d   1      32.820  20.994 -21.709  0.00  0.00    -0.205 NA
ATOM      9  O   UNL d   1      33.241  21.253 -23.053  0.00  0.00    -0.263 OA
BRANCH   8  10
ATOM     10  C   UNL d   1      32.796  21.811 -21.560  0.00  0.00     0.108 A 
ATOM     11  C   UNL d   1      32.624  22.337 -22.171  0.00  0.00     0.033 A 
ATOM     12  C   UNL d   1      32.600  23.149 -22.024  0.00  0.00     0.059 A 
ATOM     13 CL   UNL d   1      32.426  23.671 -22.641  0.00  0.00    -0.082 Cl
ATOM     14  C   UNL d   1      32.750  23.436 -21.262  0.00  0.00     0.013 A 
ATOM     15  C   UNL d   1      32.925  22.904 -20.644  0.00  0.00     0.027 A 
ATOM     16  C   UNL d   1      32.946  22.092 -20.801  0.00  0.00     0.112 A 
BRANCH  16  17
ATOM     17  O   UNL d   1      33.119  21.562 -20.188  0.00  0.00    -0.327 OA
ATOM     18  C   UNL d   1      33.241  21.845 -19.423  0.00  0.00     0.181 C 
ENDBRANCH  16  17
ENDBRANCH   8  10
ENDBRANCH   1   7
BRANCH   3  19
ATOM     19  C   UNL d   1      33.224  18.161 -23.828  0.00  0.00     0.104 C 
BRANCH  19  20
ATOM     20  C   UNL d   1      32.822  17.446 -23.778  0.00  0.00     0.021 A 
ATOM     21  C   UNL d   1      32.053  17.374 -24.062  0.00  0.00     0.026 A 
ATOM     22  C   UNL d   1      31.655  16.658 -24.010  0.00  0.00     0.094 A 
ATOM     23  C   UNL d   1      32.024  15.997 -23.670  0.00  0.00     0.024 A 
ATOM     24  C   UNL d   1      32.805  16.070 -23.381  0.00  0.00     0.002 A 
ATOM     25  C   UNL d   1      33.196  16.789 -23.437  0.00  0.00     0.002 A 
BRANCH  22  26
ATOM     26  O   UNL d   1      30.885  16.594 -24.297  0.00  0.00    -0.328 OA
ATOM     27  C   UNL d   1      30.484  15.874 -24.257  0.00  0.00     0.181 C 
ENDBRANCH  22  26
ENDBRANCH  19  20
ENDBRANCH   3  19
TORSDOF 6
ENDMDL
MODEL 2
REMARK VINA RESULT:      -2.7      1.871      5.602
REMARK  6 active torsions:
REMARK  status: ('A' for Active; 'I' for Inactive)
REMARK    1  A    between atoms: C_6  and  C_1 
REMARK    2  A    between atoms: C_9  and  N_3 
REMARK       I    between atoms: N_7  and  C_6 
REMARK    3  A    between atoms: C_8  and  N_7 
REMARK    4  A    between atoms: C_14  and  C_9 
REMARK    5  A    between atoms: O_21  and  C_12 
REMARK    6  A    between atoms: O_22  and  C_19 
ROOT
ATOM      1  C   UNL d   1      32.781  19.209 -23.027  0.00  0.00     0.199 A 
ATOM      2  C   UNL d   1      33.008  19.965 -23.285  0.00  0.00     0.211 A 
ATOM      3  N   UNL d   1      33.039  20.460 -22.625  0.00  0.00    -0.190 N 
ATOM      4  N   UNL d   1      32.672  19.242 -22.209  0.00  0.00    -0.122 NA
ATOM      5  N   UNL d   1      32.833  20.019 -21.961  0.00  0.00    -0.058 NA
ATOM      6  N   UNL d   1      33.175  20.183 -24.066  0.00  0.00    -0.125 N 
ENDROOT
BRANCH   1   7
ATOM      7  C   UNL d   1      32.683  18.548 -23.507  0.00  0.00     0.302 C 
ATOM      8  N   UNL d   1      32.023  18.060 -23.400  0.00  0.00    -0.205 NA
ATOM      9  O   UNL d   1      33.238  18.372 -24.091  0.00  0.00    -0.263 OA
BRANCH   8  10
ATOM     10  C   UNL d   1      31.921  17.392 -23.884  0.00  0.00     0.108 A 
ATOM     11  C   UNL d   1      32.514  16.822 -23.930  0.00  0.00     0.033 A 
ATOM     12  C   UNL d   1      32.413  16.158 -24.411  0.00  0.00     0.059 A 
ATOM     13 CL   UNL d   1      33.013  15.589 -24.453  0.00  0.00    -0.082 Cl
ATOM     14  C   UNL d   1      31.717  16.064 -24.847  0.00  0.00     0.013 A 
ATOM     15  C   UNL d   1      31.117  16.641 -24.800  0.00  0.00     0.027 A 
ATOM     16  C   UNL d   1      31.226  17.303 -24.316  0.00  0.00     0.112 A 
BRANCH  16  17
ATOM     17  O   UNL d   1      30.631  17.877 -24.269  0.00  0.00    -0.327 OA
ATOM     18  C   UNL d   1      29.845  17.665 -24.400  0.00  0.00     0.181 C 
ENDBRANCH  16  17
ENDBRANCH   8  10
ENDBRANCH   1   7
BRANCH   3  19
ATOM     19  C   UNL d   1      33.240  21.260 -22.622  0.00  0.00     0.104 C 
BRANCH  19  20
ATOM     20  C   UNL d   1      32.977  21.761 -22.026  0.00  0.00     0.021 A 
ATOM     21  C   UNL d   1      33.239  21.668 -21.251  0.00  0.00     0.026 A 
ATOM     22  C   UNL d   1      32.973  22.171 -20.659  0.00  0.00     0.094 A 
ATOM     23  C   UNL d   1      32.436  22.779 -20.834  0.00  0.00     0.024 A 
ATOM     24  C   UNL d   1      32.170  22.873 -21.621  0.00  0.00     0.002 A 
ATOM     25  C   UNL d   1      32.440  22.367 -22.207  0.00  0.00     0.002 A 
BRANCH  22  26
ATOM     26  O   UNL d   1      33.241  22.071 -19.885  0.00  0.00    -0.328 OA
ATOM     27  C   UNL d   1      33.150  22.677 -19.333  0.00  0.00     0.181 C 
ENDBRANCH  22  26
ENDBRANCH  19  20
ENDBRANCH   3  19
TORSDOF 6
ENDMDL
