MODEL 1
REMARK VINA RESULT:      85.5      0.000      0.000
REMARK  6 active torsions:
REMARK  status: ('A' for Active; 'I' for Inactive)
REMARK    1  A    between atoms: N_3  and  S_1 
REMARK    2  A    between atoms: C_7  and  S_1 
REMARK    3  A    between atoms: C_2  and  N_3 
REMARK    4  A    between atoms: N_8  and  C_5 
REMARK    5  A    between atoms: C_20  and  N_8 
REMARK    6  A    between atoms: C_13  and  C_20 
ROOT
ATOM      1  C   UNL d   1      60.642  48.632  50.868  0.00  0.00     0.211 A 
ATOM      2  N   UNL d   1      61.227  48.594  51.461  0.00  0.00    -0.222 NA
ATOM      3  C   UNL d   1      59.926  49.030  51.023  0.00  0.00     0.200 A 
ATOM      4  N   UNL d   1      59.811  49.376  51.752  0.00  0.00    -0.223 NA
ATOM      5  C   UNL d   1      61.105  48.947  52.198  0.00  0.00     0.101 A 
ATOM      6  C   UNL d   1      60.383  49.342  52.338  0.00  0.00     0.101 A 
ATOM      7  C   UNL d   1      60.251  49.708  53.097  0.00  0.00     0.021 A 
ATOM      8  C   UNL d   1      61.694  48.913  52.805  0.00  0.00     0.021 A 
ATOM      9  C   UNL d   1      60.850  49.660  53.682  0.00  0.00     0.002 A 
ATOM     10  C   UNL d   1      61.567  49.262  53.527  0.00  0.00     0.002 A 
ENDROOT
BRANCH   1  11
ATOM     11  N   UNL d   1      60.721  48.316  50.171  0.00  0.00    -0.136 NA
BRANCH  11  12
ATOM     12  S   UNL d   1      61.369  47.911  49.909  0.00  0.00     0.287 S 
ATOM     13  O   UNL d   1      62.147  47.662  49.633  0.00  0.00    -0.198 OA
ATOM     14  O   UNL d   1      61.596  48.680  49.967  0.00  0.00    -0.198 OA
BRANCH  12  15
ATOM     15  C   UNL d   1      61.455  47.120  49.753  0.00  0.00     0.105 A 
ATOM     16  C   UNL d   1      61.159  46.562  50.272  0.00  0.00     0.013 A 
ATOM     17  C   UNL d   1      61.236  45.734  50.132  0.00  0.00     0.001 A 
ATOM     18  C   UNL d   1      61.632  45.481  49.430  0.00  0.00     0.000 A 
ATOM     19  C   UNL d   1      61.932  46.032  48.904  0.00  0.00     0.001 A 
ATOM     20  C   UNL d   1      61.734  44.692  49.246  0.00  0.00     0.000 C 
ATOM     21  C   UNL d   1      61.844  46.861  49.063  0.00  0.00     0.013 A 
ENDBRANCH  12  15
ENDBRANCH  11  12
ENDBRANCH   1  11
BRANCH   3  22
ATOM     22  N   UNL d   1      59.397  49.044  50.436  0.00  0.00    -0.221 NA
BRANCH  22  23
ATOM     23  C   UNL d   1      59.108  49.642  50.013  0.00  0.00     0.125 C 
BRANCH  23  24
ATOM     24  C   UNL d   1      58.348  49.633  49.800  0.00  0.00     0.119 A 
ATOM     25  O   UNL d   1      57.728  49.550  50.277  0.00  0.00    -0.304 OA
ATOM     26  C   UNL d   1      57.086  49.571  49.847  0.00  0.00     0.123 A 
ATOM     27  C   UNL d   1      57.295  49.668  49.094  0.00  0.00     0.029 A 
ATOM     28  C   UNL d   1      58.078  49.707  49.063  0.00  0.00     0.028 A 
ENDBRANCH  23  24
ENDBRANCH  22  23
ENDBRANCH   3  22
TORSDOF 6
ENDMDL
MODEL 2
REMARK VINA RESULT:      86.6      1.150      3.461
REMARK  6 active torsions:
REMARK  status: ('A' for Active; 'I' for Inactive)
REMARK    1  A    between atoms: N_3  and  S_1 
REMARK    2  A    between atoms: C_7  and  S_1 
REMARK    3  A    between atoms: C_2  and  N_3 
REMARK    4  A    between atoms: N_8  and  C_5 
REMARK    5  A    between atoms: C_20  and  N_8 
REMARK    6  A    between atoms: C_13  and  C_20 
ROOT
ATOM      1  C   UNL d   1      59.214  49.445  50.713  0.00  0.00     0.211 A 
ATOM      2  N   UNL d   1      58.743  49.362  50.031  0.00  0.00    -0.222 NA
ATOM      3  C   UNL d   1      58.850  49.607  51.446  0.00  0.00     0.200 A 
ATOM      4  N   UNL d   1      58.039  49.683  51.480  0.00  0.00    -0.223 NA
ATOM      5  C   UNL d   1      57.922  49.440  50.072  0.00  0.00     0.101 A 
ATOM      6  C   UNL d   1      57.572  49.603  50.812  0.00  0.00     0.101 A 
ATOM      7  C   UNL d   1      56.724  49.684  50.861  0.00  0.00     0.021 A 
ATOM      8  C   UNL d   1      57.437  49.358  49.383  0.00  0.00     0.021 A 
ATOM      9  C   UNL d   1      56.266  49.598  50.164  0.00  0.00     0.002 A 
ATOM     10  C   UNL d   1      56.630  49.435  49.431  0.00  0.00     0.002 A 
ENDROOT
BRANCH   1  11
ATOM     11  N   UNL d   1      59.981  49.379  50.713  0.00  0.00    -0.136 NA
BRANCH  11  12
ATOM     12  S   UNL d   1      60.416  48.952  50.184  0.00  0.00     0.287 S 
ATOM     13  O   UNL d   1      60.865  48.663  49.506  0.00  0.00    -0.198 OA
ATOM     14  O   UNL d   1      60.282  49.665  49.837  0.00  0.00    -0.198 OA
BRANCH  12  15
ATOM     15  C   UNL d   1      60.706  48.197  50.244  0.00  0.00     0.105 A 
ATOM     16  C   UNL d   1      61.499  48.048  50.116  0.00  0.00     0.013 A 
ATOM     17  C   UNL d   1      61.824  47.272  50.173  0.00  0.00     0.001 A 
ATOM     18  C   UNL d   1      61.307  46.634  50.369  0.00  0.00     0.000 A 
ATOM     19  C   UNL d   1      60.511  46.773  50.500  0.00  0.00     0.001 A 
ATOM     20  C   UNL d   1      61.570  45.863  50.437  0.00  0.00     0.000 C 
ATOM     21  C   UNL d   1      60.203  47.561  50.438  0.00  0.00     0.013 A 
ENDBRANCH  12  15
ENDBRANCH  11  12
ENDBRANCH   1  11
BRANCH   3  22
ATOM     22  N   UNL d   1      59.329  49.679  52.070  0.00  0.00    -0.221 NA
BRANCH  22  23
ATOM     23  C   UNL d   1      59.233  49.471  52.824  0.00  0.00     0.125 C 
BRANCH  23  24
ATOM     24  C   UNL d   1      59.841  49.535  53.323  0.00  0.00     0.119 A 
ATOM     25  O   UNL d   1      60.592  49.669  53.132  0.00  0.00    -0.304 OA
ATOM     26  C   UNL d   1      61.009  49.692  53.783  0.00  0.00     0.123 A 
ATOM     27  C   UNL d   1      60.523  49.573  54.391  0.00  0.00     0.029 A 
ATOM     28  C   UNL d   1      59.798  49.475  54.107  0.00  0.00     0.028 A 
ENDBRANCH  23  24
ENDBRANCH  22  23
ENDBRANCH   3  22
TORSDOF 6
ENDMDL
