MODEL 1
REMARK VINA RESULT:       4.5      0.000      0.000
REMARK  3 active torsions:
REMARK  status: ('A' for Active; 'I' for Inactive)
REMARK    1  A    between atoms: C_5  and  C_1 
REMARK    2  A    between atoms: C_2  and  C_5 
REMARK    3  A    between atoms: C_12  and  C_5 
ROOT
ATOM      1  C   UNL d   1      58.622  -0.441  29.880  0.00  0.00     0.021 C 
ENDROOT
BRANCH   1   2
ATOM      2  C   UNL d   1      57.926  -0.050  30.087  0.00  0.00     0.021 A 
ATOM      3  C   UNL d   1      57.416   0.445  29.643  0.00  0.00     0.082 A 
ATOM      4  N   UNL d   1      56.807   0.673  30.149  0.00  0.00    -0.246 NA
ATOM      5  C   UNL d   1      57.496   0.669  28.848  0.00  0.00     0.021 C 
ATOM      6  C   UNL d   1      56.930   0.332  30.889  0.00  0.00     0.081 A 
ATOM      7  C   UNL d   1      57.622  -0.113  30.841  0.00  0.00     0.019 A 
ATOM      8  C   UNL d   1      56.515   0.357  31.606  0.00  0.00     0.019 A 
ATOM      9  C   UNL d   1      57.897  -0.527  31.501  0.00  0.00     0.002 A 
ATOM     10  C   UNL d   1      57.486  -0.503  32.215  0.00  0.00     0.000 A 
ATOM     11  C   UNL d   1      56.810  -0.067  32.254  0.00  0.00     0.002 A 
ENDBRANCH   1   2
BRANCH   1  12
ATOM     12  C   UNL d   1      59.350  -0.034  29.874  0.00  0.00     0.021 A 
ATOM     13  C   UNL d   1      59.661   0.353  29.223  0.00  0.00     0.082 A 
ATOM     14  N   UNL d   1      60.383   0.682  29.449  0.00  0.00    -0.246 NA
ATOM     15  C   UNL d   1      59.307   0.408  28.456  0.00  0.00     0.021 C 
ATOM     16  C   UNL d   1      60.512   0.495  30.238  0.00  0.00     0.081 A 
ATOM     17  C   UNL d   1      59.875   0.053  30.500  0.00  0.00     0.019 A 
ATOM     18  C   UNL d   1      61.132   0.671  30.754  0.00  0.00     0.019 A 
ATOM     19  C   UNL d   1      59.851  -0.217  31.282  0.00  0.00     0.002 A 
ATOM     20  C   UNL d   1      60.474  -0.040  31.799  0.00  0.00     0.000 A 
ATOM     21  C   UNL d   1      61.111   0.402  31.536  0.00  0.00     0.002 A 
ENDBRANCH   1  12
BRANCH   1  22
ATOM     22  C   UNL d   1      58.611  -1.232  29.677  0.00  0.00     0.082 A 
ATOM     23  N   UNL d   1      58.897  -1.795  30.193  0.00  0.00    -0.244 NA
ATOM     24  C   UNL d   1      58.888  -2.589  29.993  0.00  0.00     0.099 A 
ATOM     25  C   UNL d   1      58.576  -2.810  29.244  0.00  0.00     0.021 A 
ATOM     26  C   UNL d   1      58.299  -2.259  28.748  0.00  0.00     0.003 A 
ATOM     27  C   UNL d   1      58.306  -1.466  28.941  0.00  0.00     0.019 A 
ENDBRANCH   1  22
TORSDOF 3
ENDMDL
MODEL 2
REMARK VINA RESULT:       6.2      0.970      2.441
REMARK  3 active torsions:
REMARK  status: ('A' for Active; 'I' for Inactive)
REMARK    1  A    between atoms: C_5  and  C_1 
REMARK    2  A    between atoms: C_2  and  C_5 
REMARK    3  A    between atoms: C_12  and  C_5 
ROOT
ATOM      1  C   UNL d   1      59.059  -0.552  29.490  0.00  0.00     0.021 C 
ENDROOT
BRANCH   1   2
ATOM      2  C   UNL d   1      58.396  -0.170  29.800  0.00  0.00     0.021 A 
ATOM      3  C   UNL d   1      57.724   0.163  29.425  0.00  0.00     0.082 A 
ATOM      4  N   UNL d   1      57.247   0.469  30.024  0.00  0.00    -0.246 NA
ATOM      5  C   UNL d   1      57.559   0.187  28.613  0.00  0.00     0.021 C 
ATOM      6  C   UNL d   1      57.608   0.333  30.751  0.00  0.00     0.081 A 
ATOM      7  C   UNL d   1      58.316  -0.061  30.604  0.00  0.00     0.019 A 
ATOM      8  C   UNL d   1      57.399   0.509  31.534  0.00  0.00     0.019 A 
ATOM      9  C   UNL d   1      58.810  -0.278  31.229  0.00  0.00     0.002 A 
ATOM     10  C   UNL d   1      58.605  -0.104  32.009  0.00  0.00     0.000 A 
ATOM     11  C   UNL d   1      57.911   0.281  32.145  0.00  0.00     0.002 A 
ENDBRANCH   1   2
BRANCH   1  12
ATOM     12  C   UNL d   1      59.031  -1.366  29.311  0.00  0.00     0.021 A 
ATOM     13  C   UNL d   1      58.462  -1.719  28.838  0.00  0.00     0.082 A 
ATOM     14  N   UNL d   1      58.633  -2.525  28.801  0.00  0.00    -0.246 NA
ATOM     15  C   UNL d   1      57.815  -1.328  28.456  0.00  0.00     0.021 C 
ATOM     16  C   UNL d   1      59.305  -2.664  29.251  0.00  0.00     0.081 A 
ATOM     17  C   UNL d   1      59.551  -1.949  29.565  0.00  0.00     0.019 A 
ATOM     18  C   UNL d   1      59.729  -3.354  29.416  0.00  0.00     0.019 A 
ATOM     19  C   UNL d   1      60.222  -1.918  30.048  0.00  0.00     0.002 A 
ATOM     20  C   UNL d   1      60.646  -2.610  30.212  0.00  0.00     0.000 A 
ATOM     21  C   UNL d   1      60.400  -3.325  29.898  0.00  0.00     0.002 A 
ENDBRANCH   1  12
BRANCH   1  22
ATOM     22  C   UNL d   1      59.751  -0.142  29.355  0.00  0.00     0.082 A 
ATOM     23  N   UNL d   1      60.235   0.067  29.977  0.00  0.00    -0.244 NA
ATOM     24  C   UNL d   1      60.931   0.479  29.845  0.00  0.00     0.099 A 
ATOM     25  C   UNL d   1      61.133   0.681  29.054  0.00  0.00     0.021 A 
ATOM     26  C   UNL d   1      60.659   0.476  28.455  0.00  0.00     0.003 A 
ATOM     27  C   UNL d   1      59.965   0.066  28.580  0.00  0.00     0.019 A 
ENDBRANCH   1  22
TORSDOF 3
ENDMDL
MODEL 3
REMARK VINA RESULT:       6.7      1.012      3.260
REMARK  3 active torsions:
REMARK  status: ('A' for Active; 'I' for Inactive)
REMARK    1  A    between atoms: C_5  and  C_1 
REMARK    2  A    between atoms: C_2  and  C_5 
REMARK    3  A    between atoms: C_12  and  C_5 
ROOT
ATOM      1  C   UNL d   1      58.645  -0.387  30.317  0.00  0.00     0.021 C 
ENDROOT
BRANCH   1   2
ATOM      2  C   UNL d   1      59.223  -0.956  30.163  0.00  0.00     0.021 A 
ATOM      3  C   UNL d   1      60.057  -0.933  30.241  0.00  0.00     0.082 A 
ATOM      4  N   UNL d   1      60.337  -1.670  30.003  0.00  0.00    -0.246 NA
ATOM      5  C   UNL d   1      60.521  -0.298  30.504  0.00  0.00     0.021 C 
ATOM      6  C   UNL d   1      59.700  -2.143  29.783  0.00  0.00     0.081 A 
ATOM      7  C   UNL d   1      59.016  -1.695  29.885  0.00  0.00     0.019 A 
ATOM      8  C   UNL d   1      59.635  -2.920  29.502  0.00  0.00     0.019 A 
ATOM      9  C   UNL d   1      58.277  -2.017  29.709  0.00  0.00     0.002 A 
ATOM     10  C   UNL d   1      58.209  -2.790  29.430  0.00  0.00     0.000 A 
ATOM     11  C   UNL d   1      58.881  -3.222  29.332  0.00  0.00     0.002 A 
ENDBRANCH   1   2
BRANCH   1  12
ATOM     12  C   UNL d   1      58.470  -0.164  31.101  0.00  0.00     0.021 A 
ATOM     13  C   UNL d   1      58.940   0.323  31.562  0.00  0.00     0.082 A 
ATOM     14  N   UNL d   1      58.572   0.405  32.296  0.00  0.00    -0.246 NA
ATOM     15  C   UNL d   1      59.672   0.680  31.329  0.00  0.00     0.021 C 
ATOM     16  C   UNL d   1      57.878  -0.033  32.283  0.00  0.00     0.081 A 
ATOM     17  C   UNL d   1      57.815  -0.384  31.545  0.00  0.00     0.019 A 
ATOM     18  C   UNL d   1      57.291  -0.158  32.850  0.00  0.00     0.019 A 
ATOM     19  C   UNL d   1      57.164  -0.863  31.370  0.00  0.00     0.002 A 
ATOM     20  C   UNL d   1      56.576  -0.988  31.939  0.00  0.00     0.000 A 
ATOM     21  C   UNL d   1      56.639  -0.637  32.677  0.00  0.00     0.002 A 
ENDBRANCH   1  12
BRANCH   1  22
ATOM     22  C   UNL d   1      58.236  -0.034  29.705  0.00  0.00     0.082 A 
ATOM     23  N   UNL d   1      57.422   0.007  29.723  0.00  0.00    -0.244 NA
ATOM     24  C   UNL d   1      57.007   0.361  29.111  0.00  0.00     0.099 A 
ATOM     25  C   UNL d   1      57.442   0.681  28.466  0.00  0.00     0.021 A 
ATOM     26  C   UNL d   1      58.232   0.638  28.455  0.00  0.00     0.003 A 
ATOM     27  C   UNL d   1      58.650   0.287  29.061  0.00  0.00     0.019 A 
ENDBRANCH   1  22
TORSDOF 3
ENDMDL
