MODEL 1
REMARK VINA RESULT:      62.2      0.000      0.000
REMARK  6 active torsions:
REMARK  status: ('A' for Active; 'I' for Inactive)
REMARK    1  A    between atoms: N_2  and  S_1 
REMARK    2  A    between atoms: C_5  and  S_1 
REMARK    3  A    between atoms: S_6  and  C_3 
REMARK    4  A    between atoms: C_18  and  S_6 
REMARK       I    between atoms: C_9  and  N_11 
REMARK    5  A    between atoms: N_11  and  C_19 
REMARK    6  A    between atoms: C_17  and  C_18 
ROOT
ATOM      1  N   UNL d   1     -55.068-100.227 -42.995  0.00  0.00    -0.208 N 
ATOM      2  C   UNL d   1     -55.446 -99.530 -43.250  0.00  0.00     0.189 A 
ATOM      3  N   UNL d   1     -55.332 -98.949 -42.671  0.00  0.00    -0.219 NA
ATOM      4  C   UNL d   1     -54.720-100.074 -42.255  0.00  0.00     0.114 A 
ATOM      5  C   UNL d   1     -54.884 -99.288 -42.060  0.00  0.00     0.121 A 
ENDROOT
BRANCH   1   6
ATOM      6  S   UNL d   1     -55.046-100.946 -43.410  0.00  0.00     0.273 S 
ATOM      7  O   UNL d   1     -55.031-101.505 -44.021  0.00  0.00    -0.200 OA
ATOM      8  O   UNL d   1     -55.069-100.507 -44.101  0.00  0.00    -0.200 OA
BRANCH   6   9
ATOM      9  C   UNL d   1     -55.022-101.406 -42.723  0.00  0.00     0.104 A 
ATOM     10  C   UNL d   1     -55.274-101.087 -42.018  0.00  0.00     0.014 A 
ATOM     11  C   UNL d   1     -55.255-101.540 -41.322  0.00  0.00     0.020 A 
ATOM     12  C   UNL d   1     -54.976-102.313 -41.359  0.00  0.00     0.085 A 
ATOM     13  C   UNL d   1     -54.722-102.630 -42.076  0.00  0.00     0.020 A 
ATOM     14  C   UNL d   1     -54.743-102.178 -42.766  0.00  0.00     0.014 A 
BRANCH  12  15
ATOM     15  N   UNL d   1     -54.952-102.773 -40.673  0.00  0.00    -0.208 NA
ATOM     16  C   UNL d   1     -54.828-102.412 -39.945  0.00  0.00     0.279 C 
ATOM     17  O   UNL d   1     -54.728-101.600 -39.885  0.00  0.00    -0.265 OA
ATOM     18  C   UNL d   1     -54.804-102.877 -39.246  0.00  0.00     0.068 C 
ENDBRANCH  12  15
ENDBRANCH   6   9
ENDBRANCH   1   6
BRANCH   2  19
ATOM     19  S   UNL d   1     -55.864 -99.436 -43.963  0.00  0.00    -0.049 SA
BRANCH  19  20
ATOM     20  C   UNL d   1     -56.322 -98.760 -44.083  0.00  0.00     0.040 C 
BRANCH  20  21
ATOM     21  C   UNL d   1     -57.079 -98.828 -44.401  0.00  0.00     0.026 A 
ATOM     22  C   UNL d   1     -57.752 -98.766 -43.902  0.00  0.00     0.099 A 
ATOM     23  N   UNL d   1     -58.514 -98.832 -44.204  0.00  0.00    -0.242 NA
ATOM     24  C   UNL d   1     -58.606 -98.961 -45.013  0.00  0.00     0.099 A 
ATOM     25  C   UNL d   1     -57.951 -99.023 -45.509  0.00  0.00     0.021 A 
ATOM     26  C   UNL d   1     -57.188 -98.956 -45.201  0.00  0.00     0.004 A 
ENDBRANCH  20  21
ENDBRANCH  19  20
ENDBRANCH   2  19
TORSDOF 6
ENDMDL
