MODEL 1
REMARK VINA RESULT:      77.4      0.000      0.000
REMARK  5 active torsions:
REMARK  status: ('A' for Active; 'I' for Inactive)
REMARK    1  A    between atoms: C_12  and  N_3 
REMARK    2  A    between atoms: C_11  and  C_5 
REMARK    3  A    between atoms: C_10  and  C_8 
REMARK    4  A    between atoms: O_27  and  C_14 
REMARK    5  A    between atoms: O_28  and  C_21 
ROOT
ATOM      1  C   UNL d   1      46.255 -18.709  42.918  0.00  0.00     0.143 A 
ATOM      2  C   UNL d   1      45.980 -17.929  42.918  0.00  0.00     0.172 A 
ATOM      3  N   UNL d   1      46.092 -17.609  43.676  0.00  0.00    -0.242 N 
ATOM      4  C   UNL d   1      46.438 -18.199  44.144  0.00  0.00     0.355 A 
ATOM      5  C   UNL d   1      46.214 -19.160  42.242  0.00  0.00     0.163 A 
ATOM      6  N   UNL d   1      45.661 -17.603  42.226  0.00  0.00    -0.207 NA
ATOM      7  N   UNL d   1      46.536 -18.872  43.675  0.00  0.00    -0.187 NA
ATOM      8  C   UNL d   1      45.623 -18.069  41.543  0.00  0.00     0.166 A 
ATOM      9  N   UNL d   1      45.900 -18.849  41.550  0.00  0.00    -0.220 NA
ATOM     10  O   UNL d   1      46.645 -18.117  44.941  0.00  0.00    -0.244 OA
ENDROOT
BRANCH   8  11
ATOM     11  C   UNL d   1      45.308 -17.754  40.852  0.00  0.00     0.060 A 
ATOM     12  C   UNL d   1      44.497 -17.774  40.725  0.00  0.00     0.097 A 
ATOM     13  C   UNL d   1      44.180 -17.456  40.029  0.00  0.00     0.026 A 
ATOM     14  C   UNL d   1      44.676 -17.123  39.470  0.00  0.00     0.026 A 
ATOM     15  C   UNL d   1      45.486 -17.107  39.605  0.00  0.00     0.094 A 
ATOM     16  C   UNL d   1      45.809 -17.418  40.288  0.00  0.00     0.029 A 
BRANCH  12  17
ATOM     17  O   UNL d   1      44.002 -18.112  41.294  0.00  0.00    -0.328 OA
ATOM     18  C   UNL d   1      43.228 -18.315  41.074  0.00  0.00     0.181 C 
ENDBRANCH  12  17
BRANCH  15  19
ATOM     19  O   UNL d   1      45.986 -16.771  39.041  0.00  0.00    -0.328 OA
ATOM     20  C   UNL d   1      45.796 -16.816  38.239  0.00  0.00     0.181 C 
ENDBRANCH  15  19
ENDBRANCH   8  11
BRANCH   5  21
ATOM     21  C   UNL d   1      46.488 -19.940  42.241  0.00  0.00     0.316 C 
ATOM     22  O   UNL d   1      46.644 -20.330  41.532  0.00  0.00    -0.262 OA
ATOM     23  N   UNL d   1      46.606 -20.329  42.967  0.00  0.00    -0.101 N 
ENDBRANCH   5  21
BRANCH   3  24
ATOM     24  C   UNL d   1      45.895 -16.852  43.914  0.00  0.00     0.070 A 
ATOM     25  C   UNL d   1      45.138 -16.700  44.165  0.00  0.00     0.020 A 
ATOM     26  C   UNL d   1      44.938 -15.931  44.408  0.00  0.00     0.031 A 
ATOM     27  C   UNL d   1      45.515 -15.335  44.389  0.00  0.00     0.140 A 
ATOM     28  C   UNL d   1      46.277 -15.493  44.134  0.00  0.00     0.031 A 
ATOM     29  F   UNL d   1      45.309 -14.570  44.631  0.00  0.00    -0.204 F 
ATOM     30  C   UNL d   1      46.468 -16.258  43.895  0.00  0.00     0.020 A 
ENDBRANCH   3  24
TORSDOF 5
ENDMDL
MODEL 2
REMARK VINA RESULT:      78.9      5.481      6.967
REMARK  5 active torsions:
REMARK  status: ('A' for Active; 'I' for Inactive)
REMARK    1  A    between atoms: C_12  and  N_3 
REMARK    2  A    between atoms: C_11  and  C_5 
REMARK    3  A    between atoms: C_10  and  C_8 
REMARK    4  A    between atoms: O_27  and  C_14 
REMARK    5  A    between atoms: O_28  and  C_21 
ROOT
ATOM      1  C   UNL d   1      43.366 -16.190  37.019  0.00  0.00     0.143 A 
ATOM      2  C   UNL d   1      43.075 -15.417  37.070  0.00  0.00     0.172 A 
ATOM      3  N   UNL d   1      42.254 -15.433  36.947  0.00  0.00    -0.242 N 
ATOM      4  C   UNL d   1      42.040 -16.224  36.818  0.00  0.00     0.355 A 
ATOM      5  C   UNL d   1      44.159 -16.339  37.118  0.00  0.00     0.163 A 
ATOM      6  N   UNL d   1      43.594 -14.790  37.225  0.00  0.00    -0.207 NA
ATOM      7  N   UNL d   1      42.725 -16.684  36.863  0.00  0.00    -0.187 NA
ATOM      8  C   UNL d   1      44.400 -14.951  37.324  0.00  0.00     0.166 A 
ATOM      9  N   UNL d   1      44.684 -15.726  37.271  0.00  0.00    -0.220 NA
ATOM     10  O   UNL d   1      41.273 -16.494  36.671  0.00  0.00    -0.244 OA
ENDROOT
BRANCH   8  11
ATOM     11  C   UNL d   1      44.922 -14.334  37.478  0.00  0.00     0.060 A 
ATOM     12  C   UNL d   1      45.637 -14.292  37.074  0.00  0.00     0.097 A 
ATOM     13  C   UNL d   1      46.162 -13.670  37.229  0.00  0.00     0.026 A 
ATOM     14  C   UNL d   1      45.968 -13.101  37.783  0.00  0.00     0.026 A 
ATOM     15  C   UNL d   1      45.252 -13.151  38.182  0.00  0.00     0.094 A 
ATOM     16  C   UNL d   1      44.726 -13.759  38.037  0.00  0.00     0.029 A 
BRANCH  12  17
ATOM     17  O   UNL d   1      45.826 -14.871  36.516  0.00  0.00    -0.328 OA
ATOM     18  C   UNL d   1      46.627 -15.021  36.359  0.00  0.00     0.181 C 
ENDBRANCH  12  17
BRANCH  15  19
ATOM     19  O   UNL d   1      45.055 -12.576  38.741  0.00  0.00    -0.328 OA
ATOM     20  C   UNL d   1      45.046 -12.765  39.544  0.00  0.00     0.181 C 
ENDBRANCH  15  19
ENDBRANCH   8  11
BRANCH   5  21
ATOM     21  C   UNL d   1      44.450 -17.111  37.067  0.00  0.00     0.316 C 
ATOM     22  O   UNL d   1      44.597 -17.456  36.332  0.00  0.00    -0.262 OA
ATOM     23  N   UNL d   1      44.593 -17.538  37.766  0.00  0.00    -0.101 N 
ENDBRANCH   5  21
BRANCH   3  24
ATOM     24  C   UNL d   1      41.752 -14.788  36.951  0.00  0.00     0.070 A 
ATOM     25  C   UNL d   1      41.791 -14.261  37.568  0.00  0.00     0.020 A 
ATOM     26  C   UNL d   1      41.281 -13.606  37.573  0.00  0.00     0.031 A 
ATOM     27  C   UNL d   1      40.742 -13.503  36.950  0.00  0.00     0.140 A 
ATOM     28  C   UNL d   1      40.707 -14.038  36.331  0.00  0.00     0.031 A 
ATOM     29  F   UNL d   1      40.236 -12.848  36.961  0.00  0.00    -0.204 F 
ATOM     30  C   UNL d   1      41.216 -14.686  36.332  0.00  0.00     0.020 A 
ENDBRANCH   3  24
TORSDOF 5
ENDMDL
