MODEL 1
REMARK VINA RESULT:      52.1      0.000      0.000
REMARK  2 active torsions:
REMARK  status: ('A' for Active; 'I' for Inactive)
REMARK       I    between atoms: N_3  and  C_1 
REMARK       I    between atoms: N_4  and  C_1 
REMARK       I    between atoms: C_2  and  N_5 
REMARK       I    between atoms: N_6  and  C_2 
REMARK    1  A    between atoms: C_13  and  N_4 
REMARK    2  A    between atoms: C_14  and  N_4 
ROOT
ATOM      1  C   UNL d   1      46.109 -17.368  44.144  0.00  0.00     0.339 C 
ATOM      2  C   UNL d   1      45.719 -14.268  43.084  0.00  0.00     0.340 C 
ATOM      3  N   UNL d   1      46.010 -16.581  43.876  0.00  0.00    -0.254 N 
ATOM      4  N   UNL d   1      46.084 -17.993  43.608  0.00  0.00    -0.260 N 
ATOM      5  N   UNL d   1      45.817 -15.041  43.351  0.00  0.00    -0.254 N 
ATOM      6  N   UNL d   1      45.743 -13.640  43.618  0.00  0.00    -0.253 N 
ATOM      7  O   UNL d   1      46.232 -17.516  44.952  0.00  0.00    -0.245 OA
ATOM      8  O   UNL d   1      45.598 -14.124  42.286  0.00  0.00    -0.245 OA
ATOM      9  C   UNL d   1      46.038 -15.958  44.434  0.00  0.00     0.104 A 
ATOM     10  C   UNL d   1      45.890 -16.435  43.086  0.00  0.00     0.104 A 
ATOM     11  C   UNL d   1      45.793 -15.664  42.823  0.00  0.00     0.104 A 
ATOM     12  C   UNL d   1      45.941 -15.186  44.171  0.00  0.00     0.104 A 
ATOM     13  O   UNL d   1      45.791 -12.378  44.685  0.00  0.00    -0.300 OA
ATOM     14  C   UNL d   1      45.645 -12.867  43.346  0.00  0.00     0.111 A 
ATOM     15  C   UNL d   1      45.866 -13.789  44.422  0.00  0.00     0.111 A 
ATOM     16  C   UNL d   1      45.889 -13.153  44.953  0.00  0.00     0.142 A 
ATOM     17  C   UNL d   1      45.668 -12.236  43.875  0.00  0.00     0.142 A 
ENDROOT
BRANCH   4  18
ATOM     18  C   UNL d   1      46.182 -18.776  43.875  0.00  0.00     0.068 A 
ATOM     19  C   UNL d   1      46.543 -19.339  43.378  0.00  0.00     0.018 A 
ATOM     20  C   UNL d   1      46.640 -20.115  43.642  0.00  0.00     0.002 A 
ATOM     21  C   UNL d   1      46.380 -20.329  44.397  0.00  0.00     0.000 A 
ATOM     22  C   UNL d   1      46.021 -19.767  44.891  0.00  0.00     0.002 A 
ATOM     23  C   UNL d   1      45.923 -18.991  44.627  0.00  0.00     0.018 A 
ENDBRANCH   4  18
BRANCH   4  24
ATOM     24  C   UNL d   1      45.963 -17.850  42.811  0.00  0.00     0.068 A 
ATOM     25  C   UNL d   1      46.603 -17.766  42.300  0.00  0.00     0.018 A 
ATOM     26  C   UNL d   1      46.471 -17.624  41.507  0.00  0.00     0.002 A 
ATOM     27  C   UNL d   1      45.704 -17.563  41.210  0.00  0.00     0.000 A 
ATOM     28  C   UNL d   1      45.060 -17.648  41.728  0.00  0.00     0.002 A 
ATOM     29  C   UNL d   1      45.190 -17.791  42.528  0.00  0.00     0.018 A 
ENDBRANCH   4  24
TORSDOF 2
ENDMDL
