MODEL 1
REMARK VINA RESULT:      73.3      0.000      0.000
REMARK  8 active torsions:
REMARK  status: ('A' for Active; 'I' for Inactive)
REMARK    1  A    between atoms: C_14  and  N_1 
REMARK    2  A    between atoms: S_10  and  C_2 
REMARK    3  A    between atoms: C_7  and  C_9 
REMARK       I    between atoms: N_8  and  C_7 
REMARK    4  A    between atoms: C_26  and  S_10 
REMARK    5  A    between atoms: C_13  and  C_18 
REMARK    6  A    between atoms: C_16  and  C_26 
REMARK    7  A    between atoms: O_28  and  C_16 
REMARK    8  A    between atoms: C_31  and  O_28 
ROOT
ATOM      1  N   UNL d   1      14.481  16.505  -4.468  0.00  0.00    -0.254 N 
ATOM      2  C   UNL d   1      14.492  16.382  -3.663  0.00  0.00     0.182 A 
ATOM      3  C   UNL d   1      14.233  15.899  -4.976  0.00  0.00     0.268 A 
ATOM      4  N   UNL d   1      14.259  15.662  -3.351  0.00  0.00    -0.222 NA
ATOM      5  C   UNL d   1      13.999  15.178  -4.671  0.00  0.00     0.074 A 
ATOM      6  C   UNL d   1      14.009  15.048  -3.849  0.00  0.00     0.088 A 
ATOM      7  C   UNL d   1      13.523  13.709  -4.042  0.00  0.00     0.058 A 
ATOM      8  C   UNL d   1      13.772  14.317  -3.532  0.00  0.00     0.024 A 
ATOM      9  C   UNL d   1      13.748  14.562  -5.171  0.00  0.00     0.006 A 
ATOM     10  O   UNL d   1      14.223  16.028  -5.796  0.00  0.00    -0.267 OA
ATOM     11  C   UNL d   1      13.516  13.844  -4.857  0.00  0.00     0.005 A 
ENDROOT
BRANCH   7  12
ATOM     12  C   UNL d   1      13.290  12.987  -3.723  0.00  0.00     0.265 C 
ATOM     13  N   UNL d   1      13.545  12.746  -2.996  0.00  0.00    -0.272 N 
ATOM     14  C   UNL d   1      14.059  13.251  -2.565  0.00  0.00     0.083 A 
ATOM     15  C   UNL d   1      13.316  12.034  -2.679  0.00  0.00     0.083 A 
ATOM     16  C   UNL d   1      14.317  13.001  -1.823  0.00  0.00     0.024 A 
ATOM     17  C   UNL d   1      14.086  12.280  -1.501  0.00  0.00     0.062 A 
ATOM     18  C   UNL d   1      13.572  11.783  -1.941  0.00  0.00     0.024 A 
ATOM     19  O   UNL d   1      12.769  12.497  -4.182  0.00  0.00    -0.267 OA
BRANCH  17  20
ATOM     20  C   UNL d   1      14.352  12.042  -0.758  0.00  0.00     0.297 C 
ATOM     21  O   UNL d   1      13.836  12.061  -0.109  0.00  0.00    -0.264 OA
ATOM     22  N   UNL d   1      15.135  11.781  -0.654  0.00  0.00    -0.102 N 
ENDBRANCH  17  20
ENDBRANCH   7  12
BRANCH   2  23
ATOM     23  S   UNL d   1      14.743  16.994  -3.150  0.00  0.00    -0.044 SA
BRANCH  23  24
ATOM     24  C   UNL d   1      15.319  16.841  -2.591  0.00  0.00     0.107 C 
BRANCH  24  25
ATOM     25  C   UNL d   1      15.141  16.971  -1.788  0.00  0.00     0.307 C 
ATOM     26  O   UNL d   1      14.484  17.416  -1.569  0.00  0.00    -0.258 OA
BRANCH  25  27
ATOM     27  O   UNL d   1      15.639  16.643  -1.210  0.00  0.00    -0.271 OA
BRANCH  27  28
ATOM     28  C   UNL d   1      15.294  16.306  -0.536  0.00  0.00     0.126 C 
ATOM     29  C   UNL d   1      15.693  15.714  -0.164  0.00  0.00     0.029 C 
ENDBRANCH  27  28
ENDBRANCH  25  27
ENDBRANCH  24  25
ENDBRANCH  23  24
ENDBRANCH   2  23
BRANCH   1  30
ATOM     30  C   UNL d   1      14.715  17.225  -4.780  0.00  0.00     0.069 A 
ATOM     31  C   UNL d   1      14.172  17.824  -4.883  0.00  0.00     0.018 A 
ATOM     32  C   UNL d   1      14.405  18.548  -5.196  0.00  0.00     0.002 A 
ATOM     33  C   UNL d   1      15.205  18.669  -5.409  0.00  0.00     0.000 A 
ATOM     34  C   UNL d   1      15.747  18.061  -5.302  0.00  0.00     0.002 A 
ATOM     35  C   UNL d   1      15.519  17.331  -4.988  0.00  0.00     0.018 A 
ENDBRANCH   1  30
TORSDOF 8
ENDMDL
MODEL 2
REMARK VINA RESULT:      73.9      1.599      5.604
REMARK  8 active torsions:
REMARK  status: ('A' for Active; 'I' for Inactive)
REMARK    1  A    between atoms: C_14  and  N_1 
REMARK    2  A    between atoms: S_10  and  C_2 
REMARK    3  A    between atoms: C_7  and  C_9 
REMARK       I    between atoms: N_8  and  C_7 
REMARK    4  A    between atoms: C_26  and  S_10 
REMARK    5  A    between atoms: C_13  and  C_18 
REMARK    6  A    between atoms: C_16  and  C_26 
REMARK    7  A    between atoms: O_28  and  C_16 
REMARK    8  A    between atoms: C_31  and  O_28 
ROOT
ATOM      1  N   UNL d   1      14.486  14.275  -2.248  0.00  0.00    -0.254 N 
ATOM      2  C   UNL d   1      14.141  13.823  -2.831  0.00  0.00     0.182 A 
ATOM      3  C   UNL d   1      14.684  15.065  -2.401  0.00  0.00     0.268 A 
ATOM      4  N   UNL d   1      13.990  14.144  -3.569  0.00  0.00    -0.222 NA
ATOM      5  C   UNL d   1      14.535  15.392  -3.134  0.00  0.00     0.074 A 
ATOM      6  C   UNL d   1      14.184  14.933  -3.733  0.00  0.00     0.088 A 
ATOM      7  C   UNL d   1      14.228  16.052  -4.634  0.00  0.00     0.058 A 
ATOM      8  C   UNL d   1      14.029  15.258  -4.481  0.00  0.00     0.024 A 
ATOM      9  C   UNL d   1      14.730  16.184  -3.299  0.00  0.00     0.006 A 
ATOM     10  O   UNL d   1      15.035  15.524  -1.803  0.00  0.00    -0.267 OA
ATOM     11  C   UNL d   1      14.577  16.502  -4.036  0.00  0.00     0.005 A 
ENDROOT
BRANCH   7  12
ATOM     12  C   UNL d   1      14.073  16.370  -5.378  0.00  0.00     0.265 C 
ATOM     13  N   UNL d   1      14.116  17.164  -5.512  0.00  0.00    -0.272 N 
ATOM     14  C   UNL d   1      14.325  17.668  -4.873  0.00  0.00     0.083 A 
ATOM     15  C   UNL d   1      13.964  17.480  -6.245  0.00  0.00     0.083 A 
ATOM     16  C   UNL d   1      14.367  18.479  -5.016  0.00  0.00     0.024 A 
ATOM     17  C   UNL d   1      14.213  18.800  -5.757  0.00  0.00     0.062 A 
ATOM     18  C   UNL d   1      14.006  18.287  -6.389  0.00  0.00     0.024 A 
ATOM     19  O   UNL d   1      13.865  15.836  -6.005  0.00  0.00    -0.267 OA
BRANCH  17  20
ATOM     20  C   UNL d   1      14.259  19.612  -5.886  0.00  0.00     0.297 C 
ATOM     21  O   UNL d   1      13.586  20.032  -6.128  0.00  0.00    -0.264 OA
ATOM     22  N   UNL d   1      14.978  20.017  -5.776  0.00  0.00    -0.102 N 
ENDBRANCH  17  20
ENDBRANCH   7  12
BRANCH   2  23
ATOM     23  S   UNL d   1      13.941  13.025  -2.677  0.00  0.00    -0.044 SA
BRANCH  23  24
ATOM     24  C   UNL d   1      13.836  12.508  -3.301  0.00  0.00     0.107 C 
BRANCH  24  25
ATOM     25  C   UNL d   1      13.155  12.028  -3.313  0.00  0.00     0.307 C 
ATOM     26  O   UNL d   1      12.786  11.805  -2.612  0.00  0.00    -0.258 OA
BRANCH  25  27
ATOM     27  O   UNL d   1      12.855  11.779  -4.046  0.00  0.00    -0.271 OA
BRANCH  27  28
ATOM     28  C   UNL d   1      12.890  12.304  -4.687  0.00  0.00     0.126 C 
ATOM     29  C   UNL d   1      13.089  12.008  -5.408  0.00  0.00     0.029 C 
ENDBRANCH  27  28
ENDBRANCH  25  27
ENDBRANCH  24  25
ENDBRANCH  23  24
ENDBRANCH   2  23
BRANCH   1  30
ATOM     30  C   UNL d   1      14.638  13.953  -1.510  0.00  0.00     0.069 A 
ATOM     31  C   UNL d   1      14.528  14.398  -0.837  0.00  0.00     0.018 A 
ATOM     32  C   UNL d   1      14.680  14.077  -0.095  0.00  0.00     0.002 A 
ATOM     33  C   UNL d   1      14.950  13.287  -0.034  0.00  0.00     0.000 A 
ATOM     34  C   UNL d   1      15.059  12.844  -0.717  0.00  0.00     0.002 A 
ATOM     35  C   UNL d   1      14.907  13.162  -1.465  0.00  0.00     0.018 A 
ENDBRANCH   1  30
TORSDOF 8
ENDMDL
