MODEL 1
REMARK VINA RESULT:      -5.8      0.000      0.000
REMARK  3 active torsions:
REMARK  status: ('A' for Active; 'I' for Inactive)
REMARK    1  A    between atoms: N_2  and  S_1 
REMARK    2  A    between atoms: C_5  and  S_1 
REMARK    3  A    between atoms: C_3  and  N_4 
ROOT
ATOM      1  N   UNL d   1     -41.740-122.891 -51.115  0.00  0.00    -0.226 N 
ATOM      2  N   UNL d   1     -41.697-122.677 -52.747  0.00  0.00    -0.134 N 
ATOM      3  C   UNL d   1     -41.627-123.540 -51.611  0.00  0.00     0.111 A 
ATOM      4  C   UNL d   1     -41.831-122.137 -51.436  0.00  0.00     0.111 A 
ATOM      5  C   UNL d   1     -41.809-122.030 -52.252  0.00  0.00     0.118 A 
ATOM      6  C   UNL d   1     -41.605-123.432 -52.427  0.00  0.00     0.118 A 
ENDROOT
BRANCH   1   7
ATOM      7  S   UNL d   1     -41.760-123.008 -50.290  0.00  0.00     0.271 S 
ATOM      8  O   UNL d   1     -41.159-122.443 -50.197  0.00  0.00    -0.200 OA
ATOM      9  O   UNL d   1     -42.365-123.574 -50.392  0.00  0.00    -0.200 OA
BRANCH   7  10
ATOM     10  C   UNL d   1     -41.787-123.130 -49.468  0.00  0.00     0.104 A 
ATOM     11  C   UNL d   1     -42.504-122.981 -49.062  0.00  0.00     0.015 A 
ATOM     12  C   UNL d   1     -42.539-123.102 -48.235  0.00  0.00     0.030 A 
ATOM     13  C   UNL d   1     -41.861-123.368 -47.827  0.00  0.00     0.140 A 
ATOM     14  C   UNL d   1     -41.147-123.515 -48.239  0.00  0.00     0.030 A 
ATOM     15  F   UNL d   1     -41.894-123.487 -47.008  0.00  0.00    -0.204 F 
ATOM     16  C   UNL d   1     -41.123-123.391 -49.065  0.00  0.00     0.015 A 
ENDBRANCH   7  10
ENDBRANCH   1   7
BRANCH   2  17
ATOM     17  C   UNL d   1     -41.676-122.566 -53.552  0.00  0.00     0.735 A 
ATOM     18  N   UNL d   1     -41.140-122.985 -54.018  0.00  0.00    -0.059 NA
ATOM     19  C   UNL d   1     -41.123-122.870 -54.831  0.00  0.00     0.120 A 
ATOM     20  C   UNL d   1     -41.642-122.334 -55.178  0.00  0.00     0.043 A 
ATOM     21  C   UNL d   1     -42.178-121.915 -54.711  0.00  0.00     0.120 A 
ATOM     22  N   UNL d   1     -42.190-122.034 -53.905  0.00  0.00    -0.059 NA
ENDBRANCH   2  17
TORSDOF 3
ENDMDL
