MODEL 1
REMARK VINA RESULT:      10.9      0.000      0.000
REMARK  1 active torsions:
REMARK  status: ('A' for Active; 'I' for Inactive)
REMARK    1  A    between atoms: C_8  and  N_3 
ROOT
ATOM      1  C   UNL d   1     -51.291  25.887  33.351  0.00  0.00     0.292 A 
ATOM      2  C   UNL d   1     -50.658  26.419  33.349  0.00  0.00     0.128 A 
ATOM      3  N   UNL d   1     -51.147  25.082  33.331  0.00  0.00    -0.194 N 
ATOM      4  N   UNL d   1     -50.372  24.793  33.308  0.00  0.00    -0.160 NA
ATOM      5  C   UNL d   1     -49.879  26.148  33.327  0.00  0.00     0.094 A 
ATOM      6  C   UNL d   1     -49.739  25.326  33.306  0.00  0.00     0.133 A 
ATOM      7  O   UNL d   1     -52.085  26.174  33.374  0.00  0.00    -0.264 OA
ATOM      8 CL   UNL d   1     -50.790  27.263  33.370  0.00  0.00    -0.076 Cl
ATOM      9 CL   UNL d   1     -49.249  26.678  33.325  0.00  0.00    -0.080 Cl
ENDROOT
BRANCH   3  10
ATOM     10  C   UNL d   1     -51.788  24.543  33.333  0.00  0.00     0.086 A 
ATOM     11  C   UNL d   1     -51.631  23.735  33.355  0.00  0.00     0.019 A 
ATOM     12  C   UNL d   1     -52.278  23.190  33.357  0.00  0.00     0.002 A 
ATOM     13  C   UNL d   1     -53.048  23.483  33.336  0.00  0.00     0.000 A 
ATOM     14  C   UNL d   1     -53.198  24.283  33.314  0.00  0.00     0.002 A 
ATOM     15  C   UNL d   1     -52.550  24.828  33.312  0.00  0.00     0.019 A 
ENDBRANCH   3  10
TORSDOF 1
ENDMDL
