MODEL 1
REMARK VINA RESULT:       7.5      0.000      0.000
REMARK  2 active torsions:
REMARK  status: ('A' for Active; 'I' for Inactive)
REMARK    1  A    between atoms: C_6  and  C_1 
REMARK    2  A    between atoms: O_12  and  C_9 
ROOT
ATOM      1  C   UNL d   1     -51.037  26.092  33.308  0.00  0.00     0.123 A 
ATOM      2  C   UNL d   1     -51.862  26.088  33.309  0.00  0.00     0.305 A 
ATOM      3  O   UNL d   1     -52.262  25.386  33.309  0.00  0.00    -0.271 OA
ATOM      4  C   UNL d   1     -50.634  25.394  33.308  0.00  0.00     0.012 A 
ATOM      5  C   UNL d   1     -51.854  24.648  33.309  0.00  0.00     0.125 A 
ATOM      6  C   UNL d   1     -51.029  24.652  33.308  0.00  0.00     0.025 A 
ATOM      7  O   UNL d   1     -52.269  26.785  33.309  0.00  0.00    -0.259 OA
ATOM      8  C   UNL d   1     -52.255  23.924  33.310  0.00  0.00     0.117 A 
ATOM      9  C   UNL d   1     -50.627  23.932  33.308  0.00  0.00     0.002 A 
ATOM     10  C   UNL d   1     -51.022  23.204  33.309  0.00  0.00     0.002 A 
ATOM     11  C   UNL d   1     -51.847  23.200  33.310  0.00  0.00     0.026 A 
ENDROOT
BRANCH   1  12
ATOM     12  C   UNL d   1     -50.610  26.793  33.307  0.00  0.00     0.302 C 
ATOM     13  O   UNL d   1     -51.004  27.543  33.306  0.00  0.00    -0.263 OA
ATOM     14  N   UNL d   1     -49.784  26.743  33.308  0.00  0.00    -0.102 N 
ENDBRANCH   1  12
BRANCH   8  15
ATOM     15  O   UNL d   1     -53.071  23.920  33.310  0.00  0.00    -0.326 OA
ATOM     16  C   UNL d   1     -53.475  23.219  33.306  0.00  0.00     0.181 C 
ENDBRANCH   8  15
TORSDOF 2
ENDMDL
