MODEL 1
REMARK VINA RESULT:       1.9      0.000      0.000
REMARK  4 active torsions:
REMARK  status: ('A' for Active; 'I' for Inactive)
REMARK    1  A    between atoms: N_15  and  C_2 
REMARK    2  A    between atoms: C_3  and  C_9 
REMARK    3  A    between atoms: C_11  and  C_7 
REMARK       I    between atoms: C_9  and  N_14 
REMARK    4  A    between atoms: N_14  and  N_15 
ROOT
ATOM      1  C   UNL d   1      31.881  17.484 -23.613  0.00  0.00     0.062 A 
ATOM      2  N   UNL d   1      30.939  16.932 -24.849  0.00  0.00    -0.245 NA
ATOM      3  C   UNL d   1      30.712  17.612 -24.426  0.00  0.00     0.087 A 
ATOM      4  C   UNL d   1      31.192  17.881 -23.808  0.00  0.00     0.025 A 
ATOM      5  C   UNL d   1      32.093  16.806 -24.045  0.00  0.00     0.022 A 
ATOM      6  C   UNL d   1      31.628  16.535 -24.654  0.00  0.00     0.082 A 
ATOM      7  C   UNL d   1      32.791  16.414 -23.840  0.00  0.00     0.002 A 
ATOM      8  C   UNL d   1      31.843  15.870 -25.072  0.00  0.00     0.019 A 
ATOM      9  C   UNL d   1      33.011  15.737 -24.264  0.00  0.00     0.000 A 
ATOM     10  C   UNL d   1      32.539  15.470 -24.876  0.00  0.00     0.002 A 
ENDROOT
BRANCH   1  11
ATOM     11  C   UNL d   1      32.348  17.761 -22.998  0.00  0.00     0.297 C 
ATOM     12  N   UNL d   1      32.763  18.442 -23.174  0.00  0.00    -0.104 NA
ATOM     13  O   UNL d   1      32.299  17.283 -22.318  0.00  0.00    -0.264 OA
BRANCH  12  14
ATOM     14  N   UNL d   1      32.687  18.783 -23.916  0.00  0.00    -0.118 NA
BRANCH  14  15
ATOM     15  C   UNL d   1      32.802  19.600 -24.016  0.00  0.00     0.215 A 
ATOM     16  N   UNL d   1      32.764  20.169 -23.428  0.00  0.00    -0.219 NA
ATOM     17  C   UNL d   1      32.912  20.904 -23.758  0.00  0.00     0.090 A 
ATOM     18  C   UNL d   1      33.044  20.785 -24.570  0.00  0.00     0.050 A 
ATOM     19  C   UNL d   1      32.945  21.661 -23.443  0.00  0.00     0.018 A 
ATOM     20  C   UNL d   1      33.210  21.423 -25.067  0.00  0.00     0.008 A 
ATOM     21  S   UNL d   1      32.976  19.982 -24.724  0.00  0.00    -0.045 SA
ATOM     22  C   UNL d   1      33.241  22.185 -24.736  0.00  0.00     0.001 A 
ATOM     23  C   UNL d   1      33.110  22.303 -23.933  0.00  0.00     0.002 A 
ATOM     24  C   UNL d   1      32.813  21.775 -22.633  0.00  0.00     0.002 C 
ENDBRANCH  14  15
ENDBRANCH  12  14
ENDBRANCH   1  11
BRANCH   3  25
ATOM     25  C   UNL d   1      30.013  18.015 -24.624  0.00  0.00     0.047 A 
ATOM     26  S   UNL d   1      29.284  17.732 -24.360  0.00  0.00    -0.085 SA
ATOM     27  C   UNL d   1      28.689  18.236 -24.635  0.00  0.00     0.035 A 
ATOM     28  C   UNL d   1      29.050  18.817 -25.059  0.00  0.00     0.007 A 
ATOM     29  C   UNL d   1      29.874  18.696 -25.063  0.00  0.00     0.009 A 
ENDBRANCH   3  25
TORSDOF 4
ENDMDL
MODEL 2
REMARK VINA RESULT:       2.5      1.725      2.903
REMARK  4 active torsions:
REMARK  status: ('A' for Active; 'I' for Inactive)
REMARK    1  A    between atoms: N_15  and  C_2 
REMARK    2  A    between atoms: C_3  and  C_9 
REMARK    3  A    between atoms: C_11  and  C_7 
REMARK       I    between atoms: C_9  and  N_14 
REMARK    4  A    between atoms: N_14  and  N_15 
ROOT
ATOM      1  C   UNL d   1      30.236  17.192 -24.336  0.00  0.00     0.062 A 
ATOM      2  N   UNL d   1      30.668  15.725 -23.721  0.00  0.00    -0.245 NA
ATOM      3  C   UNL d   1      31.226  16.179 -24.139  0.00  0.00     0.087 A 
ATOM      4  C   UNL d   1      30.999  16.915 -24.443  0.00  0.00     0.025 A 
ATOM      5  C   UNL d   1      29.691  16.725 -23.916  0.00  0.00     0.022 A 
ATOM      6  C   UNL d   1      29.906  16.002 -23.614  0.00  0.00     0.082 A 
ATOM      7  C   UNL d   1      28.925  17.016 -23.815  0.00  0.00     0.002 A 
ATOM      8  C   UNL d   1      29.365  15.551 -23.204  0.00  0.00     0.019 A 
ATOM      9  C   UNL d   1      28.374  16.558 -23.398  0.00  0.00     0.000 A 
ATOM     10  C   UNL d   1      28.595  15.831 -23.096  0.00  0.00     0.002 A 
ENDROOT
BRANCH   1  11
ATOM     11  C   UNL d   1      30.024  17.923 -24.643  0.00  0.00     0.297 C 
ATOM     12  N   UNL d   1      30.536  18.530 -24.446  0.00  0.00    -0.104 NA
ATOM     13  O   UNL d   1      29.326  17.890 -25.094  0.00  0.00    -0.264 OA
BRANCH  12  14
ATOM     14  N   UNL d   1      31.191  18.371 -23.980  0.00  0.00    -0.118 NA
BRANCH  14  15
ATOM     15  C   UNL d   1      31.674  18.992 -23.709  0.00  0.00     0.215 A 
ATOM     16  N   UNL d   1      31.946  19.093 -22.944  0.00  0.00    -0.219 NA
ATOM     17  C   UNL d   1      32.404  19.772 -22.911  0.00  0.00     0.090 A 
ATOM     18  C   UNL d   1      32.412  20.097 -23.675  0.00  0.00     0.050 A 
ATOM     19  C   UNL d   1      32.811  20.141 -22.302  0.00  0.00     0.018 A 
ATOM     20  C   UNL d   1      32.829  20.792 -23.832  0.00  0.00     0.008 A 
ATOM     21  S   UNL d   1      31.962  19.614 -24.163  0.00  0.00    -0.045 SA
ATOM     22  C   UNL d   1      33.239  21.157 -23.207  0.00  0.00     0.001 A 
ATOM     23  C   UNL d   1      33.230  20.835 -22.450  0.00  0.00     0.002 A 
ATOM     24  C   UNL d   1      32.800  19.813 -21.541  0.00  0.00     0.002 C 
ENDBRANCH  14  15
ENDBRANCH  12  14
ENDBRANCH   1  11
BRANCH   3  25
ATOM     25  C   UNL d   1      32.000  15.898 -24.248  0.00  0.00     0.047 A 
ATOM     26  S   UNL d   1      32.475  15.733 -23.594  0.00  0.00    -0.085 SA
ATOM     27  C   UNL d   1      33.210  15.464 -23.862  0.00  0.00     0.035 A 
ATOM     28  C   UNL d   1      33.182  15.467 -24.666  0.00  0.00     0.007 A 
ATOM     29  C   UNL d   1      32.437  15.734 -24.924  0.00  0.00     0.009 A 
ENDBRANCH   3  25
TORSDOF 4
ENDMDL
