MODEL 1
REMARK VINA RESULT:      76.4      0.000      0.000
REMARK  5 active torsions:
REMARK  status: ('A' for Active; 'I' for Inactive)
REMARK    1  A    between atoms: N_2  and  S_1 
REMARK    2  A    between atoms: C_10  and  S_1 
REMARK    3  A    between atoms: C_4  and  C_3 
REMARK       I    between atoms: N_5  and  C_4 
REMARK    4  A    between atoms: C_6  and  N_5 
REMARK    5  A    between atoms: O_24  and  C_21 
ROOT
ATOM      1  N   UNL d   1      44.809 -16.697  38.606  0.00  0.00    -0.226 N 
ATOM      2  C   UNL d   1      45.600 -16.459  38.478  0.00  0.00     0.133 A 
ATOM      3  C   UNL d   1      44.637 -17.255  39.184  0.00  0.00     0.092 A 
ATOM      4  C   UNL d   1      46.210 -16.782  38.930  0.00  0.00     0.023 A 
ATOM      5  C   UNL d   1      45.243 -17.583  39.640  0.00  0.00     0.018 A 
ATOM      6  C   UNL d   1      46.033 -17.342  39.509  0.00  0.00     0.003 A 
ATOM      7  C   UNL d   1      45.075 -18.141  40.218  0.00  0.00     0.002 A 
ATOM      8  C   UNL d   1      46.640 -17.670  39.965  0.00  0.00     0.000 A 
ATOM      9  C   UNL d   1      45.679 -18.463  40.667  0.00  0.00     0.000 A 
ATOM     10  C   UNL d   1      46.457 -18.229  40.541  0.00  0.00     0.000 A 
ENDROOT
BRANCH   1  11
ATOM     11  S   UNL d   1      44.200 -16.363  38.143  0.00  0.00     0.271 S 
ATOM     12  O   UNL d   1      43.951 -15.935  38.796  0.00  0.00    -0.200 OA
ATOM     13  O   UNL d   1      44.458 -16.796  37.501  0.00  0.00    -0.200 OA
BRANCH  11  14
ATOM     14  C   UNL d   1      43.600 -16.034  37.691  0.00  0.00     0.104 A 
ATOM     15  C   UNL d   1      43.088 -15.479  38.029  0.00  0.00     0.015 A 
ATOM     16  C   UNL d   1      42.488 -15.150  37.576  0.00  0.00     0.025 A 
ATOM     17  C   UNL d   1      42.393 -15.369  36.786  0.00  0.00     0.094 A 
ATOM     18  C   UNL d   1      42.906 -15.922  36.455  0.00  0.00     0.025 A 
ATOM     19  C   UNL d   1      43.513 -16.258  36.905  0.00  0.00     0.015 A 
BRANCH  17  20
ATOM     20  O   UNL d   1      41.794 -15.040  36.333  0.00  0.00    -0.328 OA
ATOM     21  C   UNL d   1      41.357 -14.403  36.630  0.00  0.00     0.181 C 
ENDBRANCH  17  20
ENDBRANCH  11  14
ENDBRANCH   1  11
BRANCH   2  22
ATOM     22  C   UNL d   1      45.770 -15.894  37.893  0.00  0.00     0.298 C 
ATOM     23  N   UNL d   1      46.147 -15.192  38.102  0.00  0.00    -0.181 NA
ATOM     24  O   UNL d   1      45.560 -16.040  37.106  0.00  0.00    -0.264 OA
BRANCH  23  25
ATOM     25  C   UNL d   1      46.316 -14.630  37.525  0.00  0.00     0.197 A 
ATOM     26  N   UNL d   1      46.384 -14.659  36.615  0.00  0.00    -0.219 NA
ATOM     27  C   UNL d   1      46.586 -13.843  36.330  0.00  0.00     0.108 A 
ATOM     28  C   UNL d   1      46.647 -13.297  37.048  0.00  0.00     0.059 A 
ATOM     29  S   UNL d   1      46.481 -13.780  37.786  0.00  0.00    -0.046 SA
ENDBRANCH  23  25
ENDBRANCH   2  22
TORSDOF 5
ENDMDL
MODEL 2
REMARK VINA RESULT:      78.1      3.985      5.630
REMARK  5 active torsions:
REMARK  status: ('A' for Active; 'I' for Inactive)
REMARK    1  A    between atoms: N_2  and  S_1 
REMARK    2  A    between atoms: C_10  and  S_1 
REMARK    3  A    between atoms: C_4  and  C_3 
REMARK       I    between atoms: N_5  and  C_4 
REMARK    4  A    between atoms: C_6  and  N_5 
REMARK    5  A    between atoms: O_24  and  C_21 
ROOT
ATOM      1  N   UNL d   1      46.049 -17.494  43.541  0.00  0.00    -0.226 N 
ATOM      2  C   UNL d   1      45.939 -17.936  42.840  0.00  0.00     0.133 A 
ATOM      3  C   UNL d   1      46.253 -17.876  44.240  0.00  0.00     0.092 A 
ATOM      4  C   UNL d   1      46.034 -18.755  42.845  0.00  0.00     0.023 A 
ATOM      5  C   UNL d   1      46.349 -18.697  44.252  0.00  0.00     0.018 A 
ATOM      6  C   UNL d   1      46.238 -19.135  43.549  0.00  0.00     0.003 A 
ATOM      7  C   UNL d   1      46.553 -19.082  44.947  0.00  0.00     0.002 A 
ATOM      8  C   UNL d   1      46.335 -19.956  43.561  0.00  0.00     0.000 A 
ATOM      9  C   UNL d   1      46.647 -19.895  44.954  0.00  0.00     0.000 A 
ATOM     10  C   UNL d   1      46.539 -20.330  44.265  0.00  0.00     0.000 A 
ENDROOT
BRANCH   1  11
ATOM     11  S   UNL d   1      45.951 -16.665  43.524  0.00  0.00     0.271 S 
ATOM     12  O   UNL d   1      45.295 -16.742  44.008  0.00  0.00    -0.200 OA
ATOM     13  O   UNL d   1      46.606 -16.602  43.041  0.00  0.00    -0.200 OA
BRANCH  11  14
ATOM     14  C   UNL d   1      45.852 -15.851  43.509  0.00  0.00     0.104 A 
ATOM     15  C   UNL d   1      46.433 -15.372  43.167  0.00  0.00     0.015 A 
ATOM     16  C   UNL d   1      46.333 -14.558  43.152  0.00  0.00     0.025 A 
ATOM     17  C   UNL d   1      45.656 -14.214  43.477  0.00  0.00     0.094 A 
ATOM     18  C   UNL d   1      45.081 -14.696  43.815  0.00  0.00     0.025 A 
ATOM     19  C   UNL d   1      45.174 -15.518  43.834  0.00  0.00     0.015 A 
BRANCH  17  20
ATOM     20  O   UNL d   1      45.556 -13.400  43.462  0.00  0.00    -0.328 OA
ATOM     21  C   UNL d   1      45.214 -13.017  44.111  0.00  0.00     0.181 C 
ENDBRANCH  17  20
ENDBRANCH  11  14
ENDBRANCH   1  11
BRANCH   2  22
ATOM     22  C   UNL d   1      45.733 -17.545  42.136  0.00  0.00     0.298 C 
ATOM     23  N   UNL d   1      45.880 -17.907  41.412  0.00  0.00    -0.181 NA
ATOM     24  O   UNL d   1      45.382 -16.797  42.168  0.00  0.00    -0.264 OA
BRANCH  23  25
ATOM     25  C   UNL d   1      45.678 -17.524  40.712  0.00  0.00     0.197 A 
ATOM     26  N   UNL d   1      44.969 -17.007  40.457  0.00  0.00    -0.219 NA
ATOM     27  C   UNL d   1      45.098 -16.766  39.612  0.00  0.00     0.108 A 
ATOM     28  C   UNL d   1      45.879 -17.123  39.328  0.00  0.00     0.059 A 
ATOM     29  S   UNL d   1      46.238 -17.591  40.005  0.00  0.00    -0.046 SA
ENDBRANCH  23  25
ENDBRANCH   2  22
TORSDOF 5
ENDMDL
