MODEL 1
REMARK VINA RESULT:      -8.7      0.000      0.000
REMARK  4 active torsions:
REMARK  status: ('A' for Active; 'I' for Inactive)
REMARK    1  A    between atoms: C_3  and  C_1 
REMARK    2  A    between atoms: C_7  and  C_3 
REMARK    3  A    between atoms: N_9  and  C_4 
REMARK    4  A    between atoms: C_8  and  C_7 
ROOT
ATOM      1  C   UNL d   1      53.892  32.567  53.926  0.00  0.00     0.106 C 
ATOM      2  C   UNL d   1      54.544  32.856  53.567  0.00  0.00     0.104 C 
ATOM      3  N   UNL d   1      55.220  33.139  53.190  0.00  0.00    -0.191 NA
ENDROOT
BRANCH   1   4
ATOM      4  C   UNL d   1      53.680  31.772  53.874  0.00  0.00     0.172 A 
ATOM      5  N   UNL d   1      53.430  31.366  53.230  0.00  0.00    -0.225 NA
ATOM      6  C   UNL d   1      53.281  30.587  53.438  0.00  0.00     0.101 A 
ATOM      7  C   UNL d   1      53.016  29.926  53.010  0.00  0.00     0.021 A 
ATOM      8  C   UNL d   1      53.450  30.523  54.248  0.00  0.00     0.101 A 
ATOM      9  C   UNL d   1      52.916  29.196  53.378  0.00  0.00     0.002 A 
ATOM     10  C   UNL d   1      53.091  29.140  54.203  0.00  0.00     0.002 A 
ATOM     11  C   UNL d   1      53.356  29.801  54.630  0.00  0.00     0.021 A 
ATOM     12  N   UNL d   1      53.695  31.259  54.506  0.00  0.00    -0.225 NA
ENDBRANCH   1   4
BRANCH   1  13
ATOM     13  C   UNL d   1      53.406  33.075  54.368  0.00  0.00     0.038 C 
BRANCH  13  14
ATOM     14  C   UNL d   1      52.850  33.561  53.988  0.00  0.00     0.103 A 
ATOM     15  O   UNL d   1      52.198  33.394  53.512  0.00  0.00    -0.290 OA
ATOM     16  C   UNL d   1      51.860  34.105  53.300  0.00  0.00     0.168 A 
ATOM     17  C   UNL d   1      52.284  34.706  53.633  0.00  0.00     0.045 A 
ATOM     18  C   UNL d   1      52.904  34.380  54.064  0.00  0.00     0.028 A 
BRANCH  16  19
ATOM     19  N   UNL d   1      51.197  34.248  52.829  0.00  0.00    -0.281 N 
ATOM     20  C   UNL d   1      50.492  34.464  53.172  0.00  0.00     0.109 A 
ATOM     21  C   UNL d   1      49.829  34.608  52.700  0.00  0.00     0.142 A 
ATOM     22  O   UNL d   1      49.895  34.529  51.887  0.00  0.00    -0.300 OA
ATOM     23  C   UNL d   1      50.600  34.312  51.536  0.00  0.00     0.142 A 
ATOM     24  C   UNL d   1      51.259  34.170  52.013  0.00  0.00     0.109 A 
ENDBRANCH  16  19
ENDBRANCH  13  14
ENDBRANCH   1  13
TORSDOF 4
ENDMDL
MODEL 2
REMARK VINA RESULT:      -8.6      1.256      4.359
REMARK  4 active torsions:
REMARK  status: ('A' for Active; 'I' for Inactive)
REMARK    1  A    between atoms: C_3  and  C_1 
REMARK    2  A    between atoms: C_7  and  C_3 
REMARK    3  A    between atoms: N_9  and  C_4 
REMARK    4  A    between atoms: C_8  and  C_7 
ROOT
ATOM      1  C   UNL d   1      52.921  33.997  53.588  0.00  0.00     0.106 C 
ATOM      2  C   UNL d   1      53.093  34.293  54.309  0.00  0.00     0.104 C 
ATOM      3  N   UNL d   1      53.255  34.606  55.054  0.00  0.00    -0.191 NA
ENDROOT
BRANCH   1   4
ATOM      4  C   UNL d   1      52.184  34.106  53.234  0.00  0.00     0.172 A 
ATOM      5  N   UNL d   1      51.464  34.138  53.586  0.00  0.00    -0.225 NA
ATOM      6  C   UNL d   1      50.886  34.255  53.016  0.00  0.00     0.101 A 
ATOM      7  C   UNL d   1      50.060  34.330  53.053  0.00  0.00     0.021 A 
ATOM      8  C   UNL d   1      51.280  34.295  52.287  0.00  0.00     0.101 A 
ATOM      9  C   UNL d   1      49.615  34.447  52.371  0.00  0.00     0.002 A 
ATOM     10  C   UNL d   1      50.023  34.486  51.632  0.00  0.00     0.002 A 
ATOM     11  C   UNL d   1      50.849  34.411  51.595  0.00  0.00     0.021 A 
ATOM     12  N   UNL d   1      52.079  34.202  52.433  0.00  0.00    -0.225 NA
ENDBRANCH   1   4
BRANCH   1  13
ATOM     13  C   UNL d   1      53.495  33.563  53.174  0.00  0.00     0.038 C 
BRANCH  13  14
ATOM     14  C   UNL d   1      53.619  32.759  53.342  0.00  0.00     0.103 A 
ATOM     15  O   UNL d   1      53.116  32.106  53.337  0.00  0.00    -0.290 OA
ATOM     16  C   UNL d   1      53.557  31.455  53.554  0.00  0.00     0.168 A 
ATOM     17  C   UNL d   1      54.318  31.689  53.692  0.00  0.00     0.045 A 
ATOM     18  C   UNL d   1      54.369  32.499  53.563  0.00  0.00     0.028 A 
BRANCH  16  19
ATOM     19  N   UNL d   1      53.322  30.668  53.635  0.00  0.00    -0.281 N 
ATOM     20  C   UNL d   1      53.545  30.241  54.289  0.00  0.00     0.109 A 
ATOM     21  C   UNL d   1      53.310  29.454  54.371  0.00  0.00     0.142 A 
ATOM     22  O   UNL d   1      52.850  29.114  53.783  0.00  0.00    -0.300 OA
ATOM     23  C   UNL d   1      52.622  29.537  53.122  0.00  0.00     0.142 A 
ATOM     24  C   UNL d   1      52.861  30.324  53.048  0.00  0.00     0.109 A 
ENDBRANCH  16  19
ENDBRANCH  13  14
ENDBRANCH   1  13
TORSDOF 4
ENDMDL
MODEL 3
REMARK VINA RESULT:      -7.8      2.151      5.161
REMARK  4 active torsions:
REMARK  status: ('A' for Active; 'I' for Inactive)
REMARK    1  A    between atoms: C_3  and  C_1 
REMARK    2  A    between atoms: C_7  and  C_3 
REMARK    3  A    between atoms: N_9  and  C_4 
REMARK    4  A    between atoms: C_8  and  C_7 
ROOT
ATOM      1  C   UNL d   1      50.674  34.047  52.712  0.00  0.00     0.106 C 
ATOM      2  C   UNL d   1      50.673  33.317  53.034  0.00  0.00     0.104 C 
ATOM      3  N   UNL d   1      50.655  32.564  53.370  0.00  0.00    -0.191 NA
ENDROOT
BRANCH   1   4
ATOM      4  C   UNL d   1      49.985  34.494  52.638  0.00  0.00     0.172 A 
ATOM      5  N   UNL d   1      49.641  34.971  53.183  0.00  0.00    -0.225 NA
ATOM      6  C   UNL d   1      48.963  35.305  52.866  0.00  0.00     0.101 A 
ATOM      7  C   UNL d   1      48.396  35.831  53.168  0.00  0.00     0.021 A 
ATOM      8  C   UNL d   1      48.897  35.013  52.092  0.00  0.00     0.101 A 
ATOM      9  C   UNL d   1      47.758  36.074  52.708  0.00  0.00     0.002 A 
ATOM     10  C   UNL d   1      47.698  35.773  51.921  0.00  0.00     0.002 A 
ATOM     11  C   UNL d   1      48.265  35.247  51.620  0.00  0.00     0.021 A 
ATOM     12  N   UNL d   1      49.531  34.515  51.962  0.00  0.00    -0.225 NA
ENDBRANCH   1   4
BRANCH   1  13
ATOM     13  C   UNL d   1      51.386  34.376  52.440  0.00  0.00     0.038 C 
BRANCH  13  14
ATOM     14  C   UNL d   1      52.062  34.376  52.922  0.00  0.00     0.103 A 
ATOM     15  O   UNL d   1      52.496  33.767  53.271  0.00  0.00    -0.290 OA
ATOM     16  C   UNL d   1      53.109  34.110  53.686  0.00  0.00     0.168 A 
ATOM     17  C   UNL d   1      53.065  34.913  53.603  0.00  0.00     0.045 A 
ATOM     18  C   UNL d   1      52.417  35.090  53.129  0.00  0.00     0.028 A 
BRANCH  16  19
ATOM     19  N   UNL d   1      53.703  33.751  54.133  0.00  0.00    -0.281 N 
ATOM     20  C   UNL d   1      53.778  33.922  54.924  0.00  0.00     0.109 A 
ATOM     21  C   UNL d   1      54.372  33.562  55.371  0.00  0.00     0.142 A 
ATOM     22  O   UNL d   1      54.880  33.034  55.005  0.00  0.00    -0.300 OA
ATOM     23  C   UNL d   1      54.810  32.857  54.209  0.00  0.00     0.142 A 
ATOM     24  C   UNL d   1      54.214  33.220  53.769  0.00  0.00     0.109 A 
ENDBRANCH  16  19
ENDBRANCH  13  14
ENDBRANCH   1  13
TORSDOF 4
ENDMDL
MODEL 4
REMARK VINA RESULT:      -7.6      2.063      3.242
REMARK  4 active torsions:
REMARK  status: ('A' for Active; 'I' for Inactive)
REMARK    1  A    between atoms: C_3  and  C_1 
REMARK    2  A    between atoms: C_7  and  C_3 
REMARK    3  A    between atoms: N_9  and  C_4 
REMARK    4  A    between atoms: C_8  and  C_7 
ROOT
ATOM      1  C   UNL d   1      51.736  33.414  53.091  0.00  0.00     0.106 C 
ATOM      2  C   UNL d   1      51.212  32.821  53.194  0.00  0.00     0.104 C 
ATOM      3  N   UNL d   1      50.680  32.202  53.311  0.00  0.00    -0.191 NA
ENDROOT
BRANCH   1   4
ATOM      4  C   UNL d   1      52.437  33.458  53.524  0.00  0.00     0.172 A 
ATOM      5  N   UNL d   1      52.584  33.881  54.189  0.00  0.00    -0.225 NA
ATOM      6  C   UNL d   1      53.359  33.757  54.426  0.00  0.00     0.101 A 
ATOM      7  C   UNL d   1      53.810  34.043  55.062  0.00  0.00     0.021 A 
ATOM      8  C   UNL d   1      53.692  33.233  53.876  0.00  0.00     0.101 A 
ATOM      9  C   UNL d   1      54.595  33.814  55.160  0.00  0.00     0.002 A 
ATOM     10  C   UNL d   1      54.927  33.281  54.595  0.00  0.00     0.002 A 
ATOM     11  C   UNL d   1      54.476  32.995  53.960  0.00  0.00     0.021 A 
ATOM     12  N   UNL d   1      53.116  33.056  53.324  0.00  0.00    -0.225 NA
ENDBRANCH   1   4
BRANCH   1  13
ATOM     13  C   UNL d   1      51.580  34.010  52.535  0.00  0.00     0.038 C 
BRANCH  13  14
ATOM     14  C   UNL d   1      50.814  34.319  52.451  0.00  0.00     0.103 A 
ATOM     15  O   UNL d   1      50.334  34.759  52.957  0.00  0.00    -0.290 OA
ATOM     16  C   UNL d   1      49.633  34.903  52.566  0.00  0.00     0.168 A 
ATOM     17  C   UNL d   1      49.668  34.565  51.832  0.00  0.00     0.045 A 
ATOM     18  C   UNL d   1      50.399  34.198  51.750  0.00  0.00     0.028 A 
BRANCH  16  19
ATOM     19  N   UNL d   1      48.966  35.317  52.823  0.00  0.00    -0.281 N 
ATOM     20  C   UNL d   1      48.926  35.591  53.587  0.00  0.00     0.109 A 
ATOM     21  C   UNL d   1      48.260  36.005  53.845  0.00  0.00     0.142 A 
ATOM     22  O   UNL d   1      47.644  36.134  53.319  0.00  0.00    -0.300 OA
ATOM     23  C   UNL d   1      47.678  35.861  52.549  0.00  0.00     0.142 A 
ATOM     24  C   UNL d   1      48.348  35.448  52.299  0.00  0.00     0.109 A 
ENDBRANCH  16  19
ENDBRANCH  13  14
ENDBRANCH   1  13
TORSDOF 4
ENDMDL
MODEL 5
REMARK VINA RESULT:      -7.2      1.469      2.603
REMARK  4 active torsions:
REMARK  status: ('A' for Active; 'I' for Inactive)
REMARK    1  A    between atoms: C_3  and  C_1 
REMARK    2  A    between atoms: C_7  and  C_3 
REMARK    3  A    between atoms: N_9  and  C_4 
REMARK    4  A    between atoms: C_8  and  C_7 
ROOT
ATOM      1  C   UNL d   1      52.063  34.052  52.873  0.00  0.00     0.106 C 
ATOM      2  C   UNL d   1      52.182  34.661  53.375  0.00  0.00     0.104 C 
ATOM      3  N   UNL d   1      52.314  35.280  53.903  0.00  0.00    -0.191 NA
ENDROOT
BRANCH   1   4
ATOM      4  C   UNL d   1      52.378  33.302  53.012  0.00  0.00     0.172 A 
ATOM      5  N   UNL d   1      52.138  32.599  52.711  0.00  0.00    -0.225 NA
ATOM      6  C   UNL d   1      52.614  31.999  53.003  0.00  0.00     0.101 A 
ATOM      7  C   UNL d   1      52.626  31.177  52.886  0.00  0.00     0.021 A 
ATOM      8  C   UNL d   1      53.167  32.361  53.504  0.00  0.00     0.101 A 
ATOM      9  C   UNL d   1      53.184  30.704  53.264  0.00  0.00     0.002 A 
ATOM     10  C   UNL d   1      53.743  31.081  53.773  0.00  0.00     0.002 A 
ATOM     11  C   UNL d   1      53.731  31.902  53.889  0.00  0.00     0.021 A 
ATOM     12  N   UNL d   1      53.013  33.164  53.503  0.00  0.00    -0.225 NA
ENDBRANCH   1   4
BRANCH   1  13
ATOM     13  C   UNL d   1      51.610  34.166  52.187  0.00  0.00     0.038 C 
BRANCH  13  14
ATOM     14  C   UNL d   1      50.811  34.383  52.240  0.00  0.00     0.103 A 
ATOM     15  O   UNL d   1      50.409  34.907  52.734  0.00  0.00    -0.290 OA
ATOM     16  C   UNL d   1      49.621  34.888  52.524  0.00  0.00     0.168 A 
ATOM     17  C   UNL d   1      49.526  34.366  51.915  0.00  0.00     0.045 A 
ATOM     18  C   UNL d   1      50.260  34.045  51.729  0.00  0.00     0.028 A 
BRANCH  16  19
ATOM     19  N   UNL d   1      48.985  35.306  52.843  0.00  0.00    -0.281 N 
ATOM     20  C   UNL d   1      48.977  35.497  53.633  0.00  0.00     0.109 A 
ATOM     21  C   UNL d   1      48.341  35.915  53.952  0.00  0.00     0.142 A 
ATOM     22  O   UNL d   1      47.722  36.133  53.461  0.00  0.00    -0.300 OA
ATOM     23  C   UNL d   1      47.723  35.944  52.665  0.00  0.00     0.142 A 
ATOM     24  C   UNL d   1      48.363  35.526  52.354  0.00  0.00     0.109 A 
ENDBRANCH  16  19
ENDBRANCH  13  14
ENDBRANCH   1  13
TORSDOF 4
ENDMDL
MODEL 6
REMARK VINA RESULT:      -7.1      1.904      2.479
REMARK  4 active torsions:
REMARK  status: ('A' for Active; 'I' for Inactive)
REMARK    1  A    between atoms: C_3  and  C_1 
REMARK    2  A    between atoms: C_7  and  C_3 
REMARK    3  A    between atoms: N_9  and  C_4 
REMARK    4  A    between atoms: C_8  and  C_7 
ROOT
ATOM      1  C   UNL d   1      53.351  31.382  53.279  0.00  0.00     0.106 C 
ATOM      2  C   UNL d   1      52.711  31.623  52.869  0.00  0.00     0.104 C 
ATOM      3  N   UNL d   1      52.041  31.858  52.450  0.00  0.00    -0.191 NA
ENDROOT
BRANCH   1   4
ATOM      4  C   UNL d   1      53.350  30.689  53.725  0.00  0.00     0.172 A 
ATOM      5  N   UNL d   1      53.092  30.583  54.477  0.00  0.00    -0.225 NA
ATOM      6  C   UNL d   1      53.199  29.799  54.695  0.00  0.00     0.101 A 
ATOM      7  C   UNL d   1      53.038  29.377  55.392  0.00  0.00     0.021 A 
ATOM      8  C   UNL d   1      53.537  29.417  54.041  0.00  0.00     0.101 A 
ATOM      9  C   UNL d   1      53.209  28.574  55.449  0.00  0.00     0.002 A 
ATOM     10  C   UNL d   1      53.554  28.193  54.778  0.00  0.00     0.002 A 
ATOM     11  C   UNL d   1      53.715  28.615  54.082  0.00  0.00     0.021 A 
ATOM     12  N   UNL d   1      53.626  29.974  53.449  0.00  0.00    -0.225 NA
ENDBRANCH   1   4
BRANCH   1  13
ATOM     13  C   UNL d   1      54.046  31.838  53.264  0.00  0.00     0.038 C 
BRANCH  13  14
ATOM     14  C   UNL d   1      54.062  32.594  53.606  0.00  0.00     0.103 A 
ATOM     15  O   UNL d   1      53.472  33.152  53.751  0.00  0.00    -0.290 OA
ATOM     16  C   UNL d   1      53.825  33.796  54.104  0.00  0.00     0.168 A 
ATOM     17  C   UNL d   1      54.616  33.651  54.182  0.00  0.00     0.045 A 
ATOM     18  C   UNL d   1      54.776  32.906  53.875  0.00  0.00     0.028 A 
BRANCH  16  19
ATOM     19  N   UNL d   1      53.484  34.503  54.361  0.00  0.00    -0.281 N 
ATOM     20  C   UNL d   1      53.398  34.649  55.156  0.00  0.00     0.109 A 
ATOM     21  C   UNL d   1      53.058  35.357  55.412  0.00  0.00     0.142 A 
ATOM     22  O   UNL d   1      52.809  35.904  54.855  0.00  0.00    -0.300 OA
ATOM     23  C   UNL d   1      52.893  35.763  54.054  0.00  0.00     0.142 A 
ATOM     24  C   UNL d   1      53.234  35.054  53.805  0.00  0.00     0.109 A 
ENDBRANCH  16  19
ENDBRANCH  13  14
ENDBRANCH   1  13
TORSDOF 4
ENDMDL
