MODEL 1
REMARK VINA RESULT:      34.2      0.000      0.000
REMARK  5 active torsions:
REMARK  status: ('A' for Active; 'I' for Inactive)
REMARK    1  A    between atoms: C_7  and  N_1 
REMARK    2  A    between atoms: C_2  and  C_6 
REMARK    3  A    between atoms: C_5  and  C_3 
REMARK    4  A    between atoms: N_8  and  C_5 
REMARK    5  A    between atoms: C_19  and  N_9 
ROOT
ATOM      1  C   UNL d   1      45.023 -14.229  43.516  0.00  0.00     0.102 A 
ATOM      2  C   UNL d   1      45.577 -15.323  44.061  0.00  0.00     0.126 A 
ATOM      3  O   UNL d   1      45.738 -14.632  43.639  0.00  0.00    -0.305 OA
ATOM      4  C   UNL d   1      44.418 -14.680  43.867  0.00  0.00     0.027 A 
ATOM      5  C   UNL d   1      44.763 -15.348  44.199  0.00  0.00     0.029 A 
ENDROOT
BRANCH   2   6
ATOM      6  C   UNL d   1      46.149 -15.917  44.316  0.00  0.00     0.143 C 
ATOM      7  S   UNL d   1      46.647 -15.755  44.953  0.00  0.00    -0.057 SA
BRANCH   6   8
ATOM      8  N   UNL d   1      46.182 -16.653  43.901  0.00  0.00    -0.291 N 
ATOM      9  C   UNL d   1      46.303 -16.686  43.090  0.00  0.00     0.100 A 
ATOM     10  C   UNL d   1      46.331 -17.410  42.716  0.00  0.00     0.100 A 
ATOM     11  N   UNL d   1      46.243 -18.107  43.117  0.00  0.00    -0.301 N 
ATOM     12  C   UNL d   1      46.117 -18.096  43.950  0.00  0.00     0.100 A 
ATOM     13  C   UNL d   1      46.087 -17.361  44.343  0.00  0.00     0.100 A 
BRANCH  11  14
ATOM     14  C   UNL d   1      46.274 -18.832  42.714  0.00  0.00     0.064 A 
ATOM     15  C   UNL d   1      46.251 -19.545  43.118  0.00  0.00     0.018 A 
ATOM     16  C   UNL d   1      46.284 -20.258  42.707  0.00  0.00     0.002 A 
ATOM     17  C   UNL d   1      46.340 -20.250  41.879  0.00  0.00     0.000 A 
ATOM     18  C   UNL d   1      46.363 -19.536  41.475  0.00  0.00     0.002 A 
ATOM     19  C   UNL d   1      46.330 -18.831  41.899  0.00  0.00     0.018 A 
ENDBRANCH  11  14
ENDBRANCH   6   8
ENDBRANCH   2   6
BRANCH   1  20
ATOM     20  C   UNL d   1      44.846 -13.515  43.131  0.00  0.00     0.045 A 
ATOM     21  C   UNL d   1      45.147 -12.799  43.424  0.00  0.00     0.129 A 
ATOM     22  C   UNL d   1      44.972 -12.089  43.042  0.00  0.00     0.024 A 
ATOM     23  C   UNL d   1      44.491 -12.080  42.359  0.00  0.00     0.002 A 
ATOM     24  C   UNL d   1      44.197 -12.800  42.077  0.00  0.00     0.000 A 
ATOM     25  C   UNL d   1      44.372 -13.510  42.459  0.00  0.00     0.004 A 
BRANCH  21  26
ATOM     26  N   UNL d   1      45.618 -12.788  44.088  0.00  0.00    -0.114 N 
ATOM     27  O   UNL d   1      45.328 -12.787  44.874  0.00  0.00    -0.532 OA
ATOM     28  O   UNL d   1      46.443 -12.778  44.069  0.00  0.00    -0.532 OA
ENDBRANCH  21  26
ENDBRANCH   1  20
TORSDOF 5
ENDMDL
