MODEL 1
REMARK VINA RESULT:      -5.0      0.000      0.000
REMARK  3 active torsions:
REMARK  status: ('A' for Active; 'I' for Inactive)
REMARK    1  A    between atoms: S_6  and  C_1 
REMARK    2  A    between atoms: C_9  and  S_6 
REMARK    3  A    between atoms: C_7  and  C_9 
ROOT
ATOM      1  C   UNL d   1      57.260   0.098  31.308  0.00  0.00     0.191 A 
ATOM      2  N   UNL d   1      57.072  -0.673  31.487  0.00  0.00    -0.220 NA
ATOM      3  N   UNL d   1      56.860   0.596  31.807  0.00  0.00    -0.220 NA
ATOM      4  C   UNL d   1      56.546  -0.644  32.107  0.00  0.00     0.101 A 
ATOM      5  C   UNL d   1      56.414   0.146  32.306  0.00  0.00     0.101 A 
ATOM      6  C   UNL d   1      56.166  -1.249  32.522  0.00  0.00     0.021 A 
ATOM      7  C   UNL d   1      55.903   0.320  32.917  0.00  0.00     0.021 A 
ATOM      8  C   UNL d   1      55.517  -0.265  33.339  0.00  0.00     0.002 A 
ATOM      9  C   UNL d   1      55.649  -1.055  33.140  0.00  0.00     0.002 A 
ENDROOT
BRANCH   1  10
ATOM     10  S   UNL d   1      57.776   0.334  30.715  0.00  0.00    -0.064 SA
BRANCH  10  11
ATOM     11  C   UNL d   1      58.037  -0.208  30.152  0.00  0.00     0.162 C 
BRANCH  11  12
ATOM     12  C   UNL d   1      58.486   0.051  29.492  0.00  0.00     0.197 C 
ATOM     13  O   UNL d   1      59.284   0.211  29.585  0.00  0.00    -0.647 OA
ATOM     14  O   UNL d   1      58.115   0.139  28.760  0.00  0.00    -0.647 OA
ENDBRANCH  11  12
ENDBRANCH  10  11
ENDBRANCH   1  10
TORSDOF 3
ENDMDL
MODEL 2
REMARK VINA RESULT:      -3.7      2.492      3.746
REMARK  3 active torsions:
REMARK  status: ('A' for Active; 'I' for Inactive)
REMARK    1  A    between atoms: S_6  and  C_1 
REMARK    2  A    between atoms: C_9  and  S_6 
REMARK    3  A    between atoms: C_7  and  C_9 
ROOT
ATOM      1  C   UNL d   1      56.700  -0.248  32.145  0.00  0.00     0.191 A 
ATOM      2  N   UNL d   1      56.972   0.442  31.811  0.00  0.00    -0.220 NA
ATOM      3  N   UNL d   1      56.960  -0.881  31.710  0.00  0.00    -0.220 NA
ATOM      4  C   UNL d   1      57.408   0.224  31.159  0.00  0.00     0.101 A 
ATOM      5  C   UNL d   1      57.400  -0.598  31.096  0.00  0.00     0.101 A 
ATOM      6  C   UNL d   1      57.817   0.682  30.605  0.00  0.00     0.021 A 
ATOM      7  C   UNL d   1      57.802  -0.952  30.481  0.00  0.00     0.021 A 
ATOM      8  C   UNL d   1      58.213  -0.516  29.924  0.00  0.00     0.002 A 
ATOM      9  C   UNL d   1      58.220   0.306  29.986  0.00  0.00     0.002 A 
ENDROOT
BRANCH   1  10
ATOM     10  S   UNL d   1      56.233  -0.295  32.819  0.00  0.00    -0.064 SA
BRANCH  10  11
ATOM     11  C   UNL d   1      55.762   0.343  33.042  0.00  0.00     0.162 C 
BRANCH  11  12
ATOM     12  C   UNL d   1      55.284   0.295  33.731  0.00  0.00     0.197 C 
ATOM     13  O   UNL d   1      54.528  -0.014  33.677  0.00  0.00    -0.647 OA
ATOM     14  O   UNL d   1      55.587   0.560  34.452  0.00  0.00    -0.647 OA
ENDBRANCH  11  12
ENDBRANCH  10  11
ENDBRANCH   1  10
TORSDOF 3
ENDMDL
MODEL 3
REMARK VINA RESULT:      -3.7      1.314      1.737
REMARK  3 active torsions:
REMARK  status: ('A' for Active; 'I' for Inactive)
REMARK    1  A    between atoms: S_6  and  C_1 
REMARK    2  A    between atoms: C_9  and  S_6 
REMARK    3  A    between atoms: C_7  and  C_9 
ROOT
ATOM      1  C   UNL d   1      56.708   0.664  32.477  0.00  0.00     0.191 A 
ATOM      2  N   UNL d   1      56.934   0.661  33.259  0.00  0.00    -0.220 NA
ATOM      3  N   UNL d   1      55.899   0.671  32.429  0.00  0.00    -0.220 NA
ATOM      4  C   UNL d   1      56.247   0.667  33.696  0.00  0.00     0.101 A 
ATOM      5  C   UNL d   1      55.604   0.674  33.179  0.00  0.00     0.101 A 
ATOM      6  C   UNL d   1      56.127   0.668  34.513  0.00  0.00     0.021 A 
ATOM      7  C   UNL d   1      54.849   0.681  33.488  0.00  0.00     0.021 A 
ATOM      8  C   UNL d   1      54.710   0.682  34.294  0.00  0.00     0.002 A 
ATOM      9  C   UNL d   1      55.353   0.676  34.810  0.00  0.00     0.002 A 
ENDROOT
BRANCH   1  10
ATOM     10  S   UNL d   1      57.222   0.659  31.837  0.00  0.00    -0.064 SA
BRANCH  10  11
ATOM     11  C   UNL d   1      57.306  -0.020  31.377  0.00  0.00     0.162 C 
BRANCH  11  12
ATOM     12  C   UNL d   1      57.810  -0.016  30.706  0.00  0.00     0.197 C 
ATOM     13  O   UNL d   1      58.348   0.593  30.608  0.00  0.00    -0.647 OA
ATOM     14  O   UNL d   1      57.753  -0.628  30.155  0.00  0.00    -0.647 OA
ENDBRANCH  11  12
ENDBRANCH  10  11
ENDBRANCH   1  10
TORSDOF 3
ENDMDL
MODEL 4
REMARK VINA RESULT:      -3.0      1.575      2.138
REMARK  3 active torsions:
REMARK  status: ('A' for Active; 'I' for Inactive)
REMARK    1  A    between atoms: S_6  and  C_1 
REMARK    2  A    between atoms: C_9  and  S_6 
REMARK    3  A    between atoms: C_7  and  C_9 
ROOT
ATOM      1  C   UNL d   1      58.078  -0.884  30.029  0.00  0.00     0.191 A 
ATOM      2  N   UNL d   1      58.006  -0.084  30.159  0.00  0.00    -0.220 NA
ATOM      3  N   UNL d   1      57.658  -1.287  30.593  0.00  0.00    -0.220 NA
ATOM      4  C   UNL d   1      57.533   0.001  30.816  0.00  0.00     0.101 A 
ATOM      5  C   UNL d   1      57.317  -0.748  31.086  0.00  0.00     0.101 A 
ATOM      6  C   UNL d   1      57.269   0.679  31.207  0.00  0.00     0.021 A 
ATOM      7  C   UNL d   1      56.839  -0.808  31.744  0.00  0.00     0.021 A 
ATOM      8  C   UNL d   1      56.567  -0.149  32.145  0.00  0.00     0.002 A 
ATOM      9  C   UNL d   1      56.784   0.600  31.875  0.00  0.00     0.002 A 
ENDROOT
BRANCH   1  10
ATOM     10  S   UNL d   1      58.508  -1.228  29.421  0.00  0.00    -0.064 SA
BRANCH  10  11
ATOM     11  C   UNL d   1      59.271  -1.508  29.559  0.00  0.00     0.162 C 
BRANCH  11  12
ATOM     12  C   UNL d   1      59.698  -1.890  28.946  0.00  0.00     0.197 C 
ATOM     13  O   UNL d   1      60.493  -1.723  28.844  0.00  0.00    -0.647 OA
ATOM     14  O   UNL d   1      59.308  -2.427  28.456  0.00  0.00    -0.647 OA
ENDBRANCH  11  12
ENDBRANCH  10  11
ENDBRANCH   1  10
TORSDOF 3
ENDMDL
MODEL 5
REMARK VINA RESULT:      -2.7      9.597      9.805
REMARK  3 active torsions:
REMARK  status: ('A' for Active; 'I' for Inactive)
REMARK    1  A    between atoms: S_6  and  C_1 
REMARK    2  A    between atoms: C_9  and  S_6 
REMARK    3  A    between atoms: C_7  and  C_9 
ROOT
ATOM      1  C   UNL d   1      59.653  -9.107  33.937  0.00  0.00     0.191 A 
ATOM      2  N   UNL d   1      59.188  -8.834  34.546  0.00  0.00    -0.220 NA
ATOM      3  N   UNL d   1      60.434  -8.991  34.121  0.00  0.00    -0.220 NA
ATOM      4  C   UNL d   1      59.696  -8.546  35.112  0.00  0.00     0.101 A 
ATOM      5  C   UNL d   1      60.472  -8.644  34.848  0.00  0.00     0.101 A 
ATOM      6  C   UNL d   1      59.546  -8.201  35.848  0.00  0.00     0.021 A 
ATOM      7  C   UNL d   1      61.086  -8.396  35.323  0.00  0.00     0.021 A 
ATOM      8  C   UNL d   1      60.958  -8.053  36.054  0.00  0.00     0.002 A 
ATOM      9  C   UNL d   1      60.183  -7.955  36.319  0.00  0.00     0.002 A 
ENDROOT
BRANCH   1  10
ATOM     10  S   UNL d   1      59.374  -9.446  33.244  0.00  0.00    -0.064 SA
BRANCH  10  11
ATOM     11  C   UNL d   1      58.566  -9.452  33.081  0.00  0.00     0.162 C 
BRANCH  11  12
ATOM     12  C   UNL d   1      58.288  -9.698  32.328  0.00  0.00     0.197 C 
ATOM     13  O   UNL d   1      57.487  -9.814  32.211  0.00  0.00    -0.647 OA
ATOM     14  O   UNL d   1      58.831  -9.818  31.717  0.00  0.00    -0.647 OA
ENDBRANCH  11  12
ENDBRANCH  10  11
ENDBRANCH   1  10
TORSDOF 3
ENDMDL
MODEL 6
REMARK VINA RESULT:      -2.1      1.591      2.129
REMARK  3 active torsions:
REMARK  status: ('A' for Active; 'I' for Inactive)
REMARK    1  A    between atoms: S_6  and  C_1 
REMARK    2  A    between atoms: C_9  and  S_6 
REMARK    3  A    between atoms: C_7  and  C_9 
ROOT
ATOM      1  C   UNL d   1      56.513  -0.073  33.001  0.00  0.00     0.191 A 
ATOM      2  N   UNL d   1      55.796   0.253  32.798  0.00  0.00    -0.220 NA
ATOM      3  N   UNL d   1      56.532  -0.208  33.800  0.00  0.00    -0.220 NA
ATOM      4  C   UNL d   1      55.370   0.319  33.488  0.00  0.00     0.101 A 
ATOM      5  C   UNL d   1      55.828   0.031  34.111  0.00  0.00     0.101 A 
ATOM      6  C   UNL d   1      54.609   0.609  33.627  0.00  0.00     0.021 A 
ATOM      7  C   UNL d   1      55.518   0.038  34.866  0.00  0.00     0.021 A 
ATOM      8  C   UNL d   1      54.767   0.322  35.024  0.00  0.00     0.002 A 
ATOM      9  C   UNL d   1      54.309   0.609  34.401  0.00  0.00     0.002 A 
ENDROOT
BRANCH   1  10
ATOM     10  S   UNL d   1      57.123  -0.240  32.477  0.00  0.00    -0.064 SA
BRANCH  10  11
ATOM     11  C   UNL d   1      56.964  -0.342  31.675  0.00  0.00     0.162 C 
BRANCH  11  12
ATOM     12  C   UNL d   1      57.532  -0.702  31.174  0.00  0.00     0.197 C 
ATOM     13  O   UNL d   1      58.282  -0.379  31.117  0.00  0.00    -0.647 OA
ATOM     14  O   UNL d   1      57.325  -1.377  30.746  0.00  0.00    -0.647 OA
ENDBRANCH  11  12
ENDBRANCH  10  11
ENDBRANCH   1  10
TORSDOF 3
ENDMDL
