MODEL 1
REMARK VINA RESULT:      -2.4      0.000      0.000
REMARK  2 active torsions:
REMARK  status: ('A' for Active; 'I' for Inactive)
REMARK    1  A    between atoms: C_2  and  P_1 
REMARK    2  A    between atoms: C_7  and  C_2 
ROOT
ATOM      1  C   UNL d   1      45.586 -13.123  44.389  0.00  0.00     0.194 C 
ATOM      2  N   UNL d   1      45.892 -12.596  44.955  0.00  0.00    -0.138 N 
ENDROOT
BRANCH   1   3
ATOM      3  P   UNL d   1      45.239 -12.808  43.698  0.00  0.00     0.317 P 
ATOM      4  O   UNL d   1      44.905 -12.494  43.025  0.00  0.00    -0.635 OA
ATOM      5  O   UNL d   1      45.706 -12.113  43.806  0.00  0.00    -0.635 OA
ATOM      6  O   UNL d   1      44.779 -13.496  43.594  0.00  0.00    -0.635 OA
ENDBRANCH   1   3
BRANCH   1   7
ATOM      7  C   UNL d   1      45.625 -13.940  44.511  0.00  0.00     0.029 C 
ATOM      8  C   UNL d   1      45.051 -14.316  44.954  0.00  0.00     0.002 C 
ATOM      9  C   UNL d   1      46.248 -14.368  44.180  0.00  0.00     0.002 C 
ENDBRANCH   1   7
TORSDOF 2
ENDMDL
MODEL 2
REMARK VINA RESULT:      -0.8      1.438      1.783
REMARK  2 active torsions:
REMARK  status: ('A' for Active; 'I' for Inactive)
REMARK    1  A    between atoms: C_2  and  P_1 
REMARK    2  A    between atoms: C_7  and  C_2 
ROOT
ATOM      1  C   UNL d   1      45.526 -13.175  44.413  0.00  0.00     0.194 C 
ATOM      2  N   UNL d   1      45.894 -12.663  44.955  0.00  0.00    -0.138 N 
ENDROOT
BRANCH   1   3
ATOM      3  P   UNL d   1      45.527 -13.994  44.575  0.00  0.00     0.317 P 
ATOM      4  O   UNL d   1      45.535 -14.794  44.730  0.00  0.00    -0.635 OA
ATOM      5  O   UNL d   1      46.277 -14.048  44.191  0.00  0.00    -0.635 OA
ATOM      6  O   UNL d   1      44.786 -13.938  44.955  0.00  0.00    -0.635 OA
ENDBRANCH   1   3
BRANCH   1   7
ATOM      7  C   UNL d   1      45.168 -12.878  43.730  0.00  0.00     0.029 C 
ATOM      8  C   UNL d   1      44.473 -13.208  43.455  0.00  0.00     0.002 C 
ATOM      9  C   UNL d   1      45.521 -12.247  43.331  0.00  0.00     0.002 C 
ENDBRANCH   1   7
TORSDOF 2
ENDMDL
MODEL 3
REMARK VINA RESULT:      -0.2      7.598      7.835
REMARK  2 active torsions:
REMARK  status: ('A' for Active; 'I' for Inactive)
REMARK    1  A    between atoms: C_2  and  P_1 
REMARK    2  A    between atoms: C_7  and  C_2 
ROOT
ATOM      1  C   UNL d   1      44.544 -15.368  37.043  0.00  0.00     0.194 C 
ATOM      2  N   UNL d   1      44.358 -15.170  37.829  0.00  0.00    -0.138 N 
ENDROOT
BRANCH   1   3
ATOM      3  P   UNL d   1      45.279 -15.122  36.733  0.00  0.00     0.317 P 
ATOM      4  O   UNL d   1      45.995 -14.875  36.435  0.00  0.00    -0.635 OA
ATOM      5  O   UNL d   1      45.147 -14.363  37.079  0.00  0.00    -0.635 OA
ATOM      6  O   UNL d   1      45.407 -15.872  36.392  0.00  0.00    -0.635 OA
ENDBRANCH   1   3
BRANCH   1   7
ATOM      7  C   UNL d   1      44.011 -15.798  36.580  0.00  0.00     0.029 C 
ATOM      8  C   UNL d   1      44.202 -16.552  36.330  0.00  0.00     0.002 C 
ATOM      9  C   UNL d   1      43.288 -15.458  36.375  0.00  0.00     0.002 C 
ENDBRANCH   1   7
TORSDOF 2
ENDMDL
