MODEL 1
REMARK VINA RESULT:      18.2      0.000      0.000
REMARK  2 active torsions:
REMARK  status: ('A' for Active; 'I' for Inactive)
REMARK    1  A    between atoms: C_12  and  N_1 
REMARK    2  A    between atoms: N_6  and  C_13 
ROOT
ATOM      1  N   UNL d   1      46.145 -17.648  43.654  0.00  0.00    -0.242 N 
ATOM      2  C   UNL d   1      46.204 -17.920  42.813  0.00  0.00     0.263 A 
ATOM      3  C   UNL d   1      46.253 -18.260  44.135  0.00  0.00     0.263 A 
ATOM      4  C   UNL d   1      46.391 -18.977  43.708  0.00  0.00     0.039 A 
ATOM      5  C   UNL d   1      46.374 -18.842  42.951  0.00  0.00     0.039 A 
ATOM      6  C   UNL d   1      46.484 -19.405  42.415  0.00  0.00     0.049 A 
ATOM      7  C   UNL d   1      46.533 -19.749  43.952  0.00  0.00     0.049 A 
ATOM      8  C   UNL d   1      46.623 -20.160  42.636  0.00  0.00    -0.026 A 
ATOM      9  C   UNL d   1      46.646 -20.329  43.423  0.00  0.00    -0.026 A 
ATOM     10  C   UNL d   1      46.435 -19.182  43.228  0.00  0.00     0.018 A 
ATOM     11  O   UNL d   1      46.239 -18.228  44.955  0.00  0.00    -0.267 OA
ATOM     12  O   UNL d   1      46.147 -17.580  42.185  0.00  0.00    -0.267 OA
ENDROOT
BRANCH   1  13
ATOM     13  C   UNL d   1      46.001 -16.891  43.940  0.00  0.00     0.070 A 
ATOM     14  C   UNL d   1      45.513 -16.783  44.601  0.00  0.00     0.019 A 
ATOM     15  C   UNL d   1      45.363 -16.020  44.895  0.00  0.00     0.018 A 
ATOM     16  C   UNL d   1      45.709 -15.354  44.520  0.00  0.00     0.096 A 
ATOM     17  C   UNL d   1      46.192 -15.473  43.863  0.00  0.00     0.018 A 
ATOM     18  C   UNL d   1      46.338 -16.241  43.573  0.00  0.00     0.019 A 
BRANCH  16  19
ATOM     19  N   UNL d   1      45.568 -14.597  44.801  0.00  0.00     0.037 NA
ATOM     20  O   UNL d   1      45.401 -14.942  44.079  0.00  0.00    -0.084 OA
ATOM     21  O   UNL d   1      45.354 -13.767  44.955  0.00  0.00    -0.084 OA
ENDBRANCH  16  19
ENDBRANCH   1  13
TORSDOF 2
ENDMDL
MODEL 2
REMARK VINA RESULT:      21.0      1.612      4.665
REMARK  2 active torsions:
REMARK  status: ('A' for Active; 'I' for Inactive)
REMARK    1  A    between atoms: C_12  and  N_1 
REMARK    2  A    between atoms: N_6  and  C_13 
ROOT
ATOM      1  N   UNL d   1      45.449 -15.108  44.278  0.00  0.00    -0.242 N 
ATOM      2  C   UNL d   1      44.733 -14.714  44.619  0.00  0.00     0.263 A 
ATOM      3  C   UNL d   1      45.928 -14.565  43.974  0.00  0.00     0.263 A 
ATOM      4  C   UNL d   1      45.616 -13.784  44.064  0.00  0.00     0.039 A 
ATOM      5  C   UNL d   1      44.937 -13.809  44.425  0.00  0.00     0.039 A 
ATOM      6  C   UNL d   1      44.516 -13.167  44.587  0.00  0.00     0.049 A 
ATOM      7  C   UNL d   1      45.900 -13.045  43.844  0.00  0.00     0.049 A 
ATOM      8  C   UNL d   1      44.778 -12.442  44.379  0.00  0.00    -0.026 A 
ATOM      9  C   UNL d   1      45.487 -12.386  43.999  0.00  0.00    -0.026 A 
ATOM     10  C   UNL d   1      45.211 -13.508  44.251  0.00  0.00     0.018 A 
ATOM     11  O   UNL d   1      46.647 -14.716  43.608  0.00  0.00    -0.267 OA
ATOM     12  O   UNL d   1      44.149 -14.964  44.951  0.00  0.00    -0.267 OA
ENDROOT
BRANCH   1  13
ATOM     13  C   UNL d   1      45.633 -15.909  44.257  0.00  0.00     0.070 A 
ATOM     14  C   UNL d   1      45.691 -16.303  43.531  0.00  0.00     0.019 A 
ATOM     15  C   UNL d   1      45.876 -17.113  43.502  0.00  0.00     0.018 A 
ATOM     16  C   UNL d   1      46.006 -17.535  44.215  0.00  0.00     0.096 A 
ATOM     17  C   UNL d   1      45.946 -17.134  44.933  0.00  0.00     0.018 A 
ATOM     18  C   UNL d   1      45.759 -16.321  44.954  0.00  0.00     0.019 A 
BRANCH  16  19
ATOM     19  N   UNL d   1      46.189 -18.334  44.200  0.00  0.00     0.037 NA
ATOM     20  O   UNL d   1      46.289 -17.748  43.638  0.00  0.00    -0.084 OA
ATOM     21  O   UNL d   1      46.438 -19.152  44.034  0.00  0.00    -0.084 OA
ENDBRANCH  16  19
ENDBRANCH   1  13
TORSDOF 2
ENDMDL
