MODEL 1
REMARK VINA RESULT:      -8.4      0.000      0.000
REMARK  4 active torsions:
REMARK  status: ('A' for Active; 'I' for Inactive)
REMARK    1  A    between atoms: C_11  and  C_4 
REMARK    2  A    between atoms: N_10  and  C_5 
REMARK    3  A    between atoms: C_13  and  N_10 
REMARK    4  A    between atoms: C_14  and  C_13 
ROOT
ATOM      1  N   UNL d   1      51.920  34.242  53.420  0.00  0.00    -0.195 N 
ATOM      2  C   UNL d   1      52.517  33.730  53.670  0.00  0.00     0.167 A 
ATOM      3  N   UNL d   1      52.121  34.997  53.662  0.00  0.00    -0.163 NA
ATOM      4  C   UNL d   1      53.085  34.170  54.066  0.00  0.00     0.055 A 
ATOM      5  C   UNL d   1      51.273  33.949  53.005  0.00  0.00     0.167 A 
ATOM      6  C   UNL d   1      52.843  34.953  54.062  0.00  0.00     0.104 A 
ATOM      7  N   UNL d   1      52.467  32.926  53.504  0.00  0.00    -0.227 NA
ATOM      8  C   UNL d   1      51.219  33.138  52.836  0.00  0.00     0.058 A 
ATOM      9  C   UNL d   1      51.816  32.627  53.086  0.00  0.00     0.086 A 
ATOM     10  C   UNL d   1      53.250  35.586  54.400  0.00  0.00     0.023 C 
ATOM     11  C   UNL d   1      51.772  31.812  52.922  0.00  0.00     0.021 C 
ENDROOT
BRANCH   5  12
ATOM     12  N   UNL d   1      50.676  34.460  52.755  0.00  0.00    -0.224 NA
BRANCH  12  13
ATOM     13  C   UNL d   1      49.939  34.162  52.547  0.00  0.00     0.120 C 
BRANCH  13  14
ATOM     14  C   UNL d   1      49.321  34.678  52.364  0.00  0.00     0.101 A 
ATOM     15  N   UNL d   1      49.021  35.184  52.949  0.00  0.00    -0.242 NA
ATOM     16  C   UNL d   1      48.400  35.703  52.765  0.00  0.00     0.099 A 
ATOM     17  C   UNL d   1      48.084  35.711  51.998  0.00  0.00     0.021 A 
ATOM     18  C   UNL d   1      48.384  35.207  51.422  0.00  0.00     0.003 A 
ATOM     19  C   UNL d   1      49.004  34.689  51.605  0.00  0.00     0.021 A 
ENDBRANCH  13  14
ENDBRANCH  12  13
ENDBRANCH   5  12
BRANCH   4  20
ATOM     20  C   UNL d   1      53.796  33.964  54.432  0.00  0.00     0.004 A 
ATOM     21  C   UNL d   1      53.809  33.803  55.246  0.00  0.00     0.000 A 
ATOM     22  C   UNL d   1      54.520  33.596  55.612  0.00  0.00     0.000 A 
ATOM     23  C   UNL d   1      55.215  33.549  55.172  0.00  0.00     0.000 A 
ATOM     24  C   UNL d   1      55.200  33.711  54.356  0.00  0.00     0.000 A 
ATOM     25  C   UNL d   1      54.492  33.917  53.992  0.00  0.00     0.000 A 
ENDBRANCH   4  20
TORSDOF 4
ENDMDL
MODEL 2
REMARK VINA RESULT:      -7.8      2.117      3.523
REMARK  4 active torsions:
REMARK  status: ('A' for Active; 'I' for Inactive)
REMARK    1  A    between atoms: C_11  and  C_4 
REMARK    2  A    between atoms: N_10  and  C_5 
REMARK    3  A    between atoms: C_13  and  N_10 
REMARK    4  A    between atoms: C_14  and  C_13 
ROOT
ATOM      1  N   UNL d   1      52.901  31.852  53.264  0.00  0.00    -0.195 N 
ATOM      2  C   UNL d   1      53.311  31.391  53.812  0.00  0.00     0.167 A 
ATOM      3  N   UNL d   1      52.475  31.347  52.782  0.00  0.00    -0.163 NA
ATOM      4  C   UNL d   1      53.138  30.602  53.667  0.00  0.00     0.055 A 
ATOM      5  C   UNL d   1      52.971  32.671  53.280  0.00  0.00     0.167 A 
ATOM      6  C   UNL d   1      52.622  30.572  53.031  0.00  0.00     0.104 A 
ATOM      7  N   UNL d   1      53.791  31.750  54.375  0.00  0.00    -0.227 NA
ATOM      8  C   UNL d   1      53.455  33.037  53.846  0.00  0.00     0.058 A 
ATOM      9  C   UNL d   1      53.865  32.576  54.394  0.00  0.00     0.086 A 
ATOM     10  C   UNL d   1      52.305  29.887  52.698  0.00  0.00     0.023 C 
ATOM     11  C   UNL d   1      54.353  32.932  54.967  0.00  0.00     0.021 C 
ENDROOT
BRANCH   5  12
ATOM     12  N   UNL d   1      52.561  33.132  52.732  0.00  0.00    -0.224 NA
BRANCH  12  13
ATOM     13  C   UNL d   1      52.180  33.819  52.975  0.00  0.00     0.120 C 
BRANCH  13  14
ATOM     14  C   UNL d   1      51.480  34.055  52.608  0.00  0.00     0.101 A 
ATOM     15  N   UNL d   1      51.456  34.140  51.783  0.00  0.00    -0.242 NA
ATOM     16  C   UNL d   1      50.752  34.377  51.414  0.00  0.00     0.099 A 
ATOM     17  C   UNL d   1      50.077  34.528  51.872  0.00  0.00     0.021 A 
ATOM     18  C   UNL d   1      50.105  34.443  52.690  0.00  0.00     0.003 A 
ATOM     19  C   UNL d   1      50.808  34.206  53.059  0.00  0.00     0.021 A 
ENDBRANCH  13  14
ENDBRANCH  12  13
ENDBRANCH   5  12
BRANCH   4  20
ATOM     20  C   UNL d   1      53.382  29.902  54.029  0.00  0.00     0.004 A 
ATOM     21  C   UNL d   1      52.969  29.614  54.689  0.00  0.00     0.000 A 
ATOM     22  C   UNL d   1      53.213  28.913  55.053  0.00  0.00     0.000 A 
ATOM     23  C   UNL d   1      53.864  28.500  54.761  0.00  0.00     0.000 A 
ATOM     24  C   UNL d   1      54.276  28.790  54.100  0.00  0.00     0.000 A 
ATOM     25  C   UNL d   1      54.033  29.488  53.739  0.00  0.00     0.000 A 
ENDBRANCH   4  20
TORSDOF 4
ENDMDL
MODEL 3
REMARK VINA RESULT:      -6.4      2.108      4.566
REMARK  4 active torsions:
REMARK  status: ('A' for Active; 'I' for Inactive)
REMARK    1  A    between atoms: C_11  and  C_4 
REMARK    2  A    between atoms: N_10  and  C_5 
REMARK    3  A    between atoms: C_13  and  N_10 
REMARK    4  A    between atoms: C_14  and  C_13 
ROOT
ATOM      1  N   UNL d   1      53.391  32.378  53.894  0.00  0.00    -0.195 N 
ATOM      2  C   UNL d   1      53.032  33.117  53.813  0.00  0.00     0.167 A 
ATOM      3  N   UNL d   1      54.048  32.471  54.372  0.00  0.00    -0.163 NA
ATOM      4  C   UNL d   1      53.469  33.664  54.240  0.00  0.00     0.055 A 
ATOM      5  C   UNL d   1      53.068  31.720  53.521  0.00  0.00     0.167 A 
ATOM      6  C   UNL d   1      54.097  33.268  54.587  0.00  0.00     0.104 A 
ATOM      7  N   UNL d   1      52.351  33.196  53.358  0.00  0.00    -0.227 NA
ATOM      8  C   UNL d   1      52.382  31.796  53.061  0.00  0.00     0.058 A 
ATOM      9  C   UNL d   1      52.023  32.535  52.980  0.00  0.00     0.086 A 
ATOM     10  C   UNL d   1      54.677  33.606  55.066  0.00  0.00     0.023 C 
ATOM     11  C   UNL d   1      51.334  32.623  52.521  0.00  0.00     0.021 C 
ENDROOT
BRANCH   5  12
ATOM     12  N   UNL d   1      53.427  30.981  53.602  0.00  0.00    -0.224 NA
BRANCH  12  13
ATOM     13  C   UNL d   1      52.970  30.297  53.583  0.00  0.00     0.120 C 
BRANCH  13  14
ATOM     14  C   UNL d   1      53.196  29.637  54.022  0.00  0.00     0.101 A 
ATOM     15  N   UNL d   1      52.837  29.487  54.755  0.00  0.00    -0.242 NA
ATOM     16  C   UNL d   1      53.064  28.823  55.197  0.00  0.00     0.099 A 
ATOM     17  C   UNL d   1      53.649  28.314  54.903  0.00  0.00     0.021 A 
ATOM     18  C   UNL d   1      54.003  28.466  54.177  0.00  0.00     0.003 A 
ATOM     19  C   UNL d   1      53.776  29.129  53.735  0.00  0.00     0.021 A 
ENDBRANCH  13  14
ENDBRANCH  12  13
ENDBRANCH   5  12
BRANCH   4  20
ATOM     20  C   UNL d   1      53.380  34.475  54.363  0.00  0.00     0.004 A 
ATOM     21  C   UNL d   1      53.027  34.751  55.061  0.00  0.00     0.000 A 
ATOM     22  C   UNL d   1      52.937  35.563  55.184  0.00  0.00     0.000 A 
ATOM     23  C   UNL d   1      53.198  36.100  54.614  0.00  0.00     0.000 A 
ATOM     24  C   UNL d   1      53.552  35.821  53.915  0.00  0.00     0.000 A 
ATOM     25  C   UNL d   1      53.640  35.013  53.794  0.00  0.00     0.000 A 
ENDBRANCH   4  20
TORSDOF 4
ENDMDL
MODEL 4
REMARK VINA RESULT:      -6.1      1.015      1.969
REMARK  4 active torsions:
REMARK  status: ('A' for Active; 'I' for Inactive)
REMARK    1  A    between atoms: C_11  and  C_4 
REMARK    2  A    between atoms: N_10  and  C_5 
REMARK    3  A    between atoms: C_13  and  N_10 
REMARK    4  A    between atoms: C_14  and  C_13 
ROOT
ATOM      1  N   UNL d   1      51.614  33.664  53.041  0.00  0.00    -0.195 N 
ATOM      2  C   UNL d   1      52.297  33.751  53.494  0.00  0.00     0.167 A 
ATOM      3  N   UNL d   1      51.623  32.914  52.715  0.00  0.00    -0.163 NA
ATOM      4  C   UNL d   1      52.728  33.053  53.448  0.00  0.00     0.055 A 
ATOM      5  C   UNL d   1      51.074  34.283  52.987  0.00  0.00     0.167 A 
ATOM      6  C   UNL d   1      52.313  32.535  52.967  0.00  0.00     0.104 A 
ATOM      7  N   UNL d   1      52.441  34.456  53.893  0.00  0.00    -0.227 NA
ATOM      8  C   UNL d   1      51.216  34.995  53.388  0.00  0.00     0.058 A 
ATOM      9  C   UNL d   1      51.899  35.082  53.841  0.00  0.00     0.086 A 
ATOM     10  C   UNL d   1      52.546  31.769  52.769  0.00  0.00     0.023 C 
ATOM     11  C   UNL d   1      52.052  35.792  54.247  0.00  0.00     0.021 C 
ENDROOT
BRANCH   5  12
ATOM     12  N   UNL d   1      50.390  34.197  52.533  0.00  0.00    -0.224 NA
BRANCH  12  13
ATOM     13  C   UNL d   1      49.791  34.758  52.580  0.00  0.00     0.120 C 
BRANCH  13  14
ATOM     14  C   UNL d   1      49.204  34.786  52.001  0.00  0.00     0.101 A 
ATOM     15  N   UNL d   1      49.346  34.453  51.255  0.00  0.00    -0.242 NA
ATOM     16  C   UNL d   1      48.756  34.480  50.673  0.00  0.00     0.099 A 
ATOM     17  C   UNL d   1      48.028  34.841  50.841  0.00  0.00     0.021 A 
ATOM     18  C   UNL d   1      47.891  35.170  51.582  0.00  0.00     0.003 A 
ATOM     19  C   UNL d   1      48.481  35.142  52.164  0.00  0.00     0.021 A 
ENDBRANCH  13  14
ENDBRANCH  12  13
ENDBRANCH   5  12
BRANCH   4  20
ATOM     20  C   UNL d   1      53.446  32.818  53.780  0.00  0.00     0.004 A 
ATOM     21  C   UNL d   1      54.152  32.938  53.362  0.00  0.00     0.000 A 
ATOM     22  C   UNL d   1      54.871  32.703  53.694  0.00  0.00     0.000 A 
ATOM     23  C   UNL d   1      54.888  32.349  54.438  0.00  0.00     0.000 A 
ATOM     24  C   UNL d   1      54.179  32.229  54.855  0.00  0.00     0.000 A 
ATOM     25  C   UNL d   1      53.464  32.464  54.524  0.00  0.00     0.000 A 
ENDBRANCH   4  20
TORSDOF 4
ENDMDL
