MODEL 1
REMARK VINA RESULT:      -3.6      0.000      0.000
REMARK  4 active torsions:
REMARK  status: ('A' for Active; 'I' for Inactive)
REMARK    1  A    between atoms: N_7  and  S_1 
REMARK    2  A    between atoms: C_11  and  S_1 
REMARK    3  A    between atoms: C_14  and  N_7 
REMARK    4  A    between atoms: C_13  and  C_14 
ROOT
ATOM      1  N   UNL d   1      33.091  21.711 -21.729  0.00  0.00    -0.304 N 
ATOM      2  C   UNL d   1      32.947  21.564 -20.925  0.00  0.00     0.064 A 
ATOM      3  C   UNL d   1      33.115  20.981 -22.120  0.00  0.00     0.064 A 
ATOM      4  C   UNL d   1      32.987  20.389 -21.560  0.00  0.00     0.018 A 
ATOM      5  C   UNL d   1      32.884  20.749 -20.829  0.00  0.00     0.019 A 
ATOM      6  C   UNL d   1      33.238  20.787 -22.911  0.00  0.00     0.018 A 
ATOM      7  C   UNL d   1      32.981  19.593 -21.794  0.00  0.00     0.003 A 
ATOM      8  C   UNL d   1      33.103  19.399 -22.585  0.00  0.00     0.020 A 
ATOM      9  C   UNL d   1      33.232  19.997 -23.144  0.00  0.00     0.003 A 
ATOM     10  C   UNL d   1      33.191  22.446 -22.075  0.00  0.00     0.099 C 
ATOM     11  C   UNL d   1      32.881  22.139 -20.338  0.00  0.00     0.019 C 
ENDROOT
BRANCH   8  12
ATOM     12  C   UNL d   1      33.096  18.604 -22.813  0.00  0.00     0.112 C 
BRANCH  12  13
ATOM     13  N   UNL d   1      32.547  18.344 -23.379  0.00  0.00    -0.157 NA
BRANCH  13  14
ATOM     14  S   UNL d   1      32.466  17.539 -23.537  0.00  0.00     0.285 S 
ATOM     15  O   UNL d   1      32.593  16.729 -23.623  0.00  0.00    -0.198 OA
ATOM     16  O   UNL d   1      33.240  17.624 -23.249  0.00  0.00    -0.198 OA
BRANCH  14  17
ATOM     17  C   UNL d   1      31.756  17.244 -23.837  0.00  0.00     0.105 A 
ATOM     18  C   UNL d   1      31.390  16.621 -23.456  0.00  0.00     0.013 A 
ATOM     19  C   UNL d   1      30.678  16.324 -23.754  0.00  0.00     0.001 A 
ATOM     20  C   UNL d   1      30.343  16.659 -24.435  0.00  0.00     0.000 A 
ATOM     21  C   UNL d   1      30.722  17.287 -24.810  0.00  0.00     0.001 A 
ATOM     22  C   UNL d   1      31.427  17.580 -24.514  0.00  0.00     0.013 A 
ENDBRANCH  14  17
ENDBRANCH  13  14
ENDBRANCH  12  13
ENDBRANCH   8  12
TORSDOF 4
ENDMDL
MODEL 2
REMARK VINA RESULT:      -2.7      1.948      5.270
REMARK  4 active torsions:
REMARK  status: ('A' for Active; 'I' for Inactive)
REMARK    1  A    between atoms: N_7  and  S_1 
REMARK    2  A    between atoms: C_11  and  S_1 
REMARK    3  A    between atoms: C_14  and  N_7 
REMARK    4  A    between atoms: C_13  and  C_14 
ROOT
ATOM      1  N   UNL d   1      28.376  15.634 -24.354  0.00  0.00    -0.304 N 
ATOM      2  C   UNL d   1      28.038  15.677 -23.598  0.00  0.00     0.064 A 
ATOM      3  C   UNL d   1      29.183  15.809 -24.281  0.00  0.00     0.064 A 
ATOM      4  C   UNL d   1      29.339  15.958 -23.485  0.00  0.00     0.018 A 
ATOM      5  C   UNL d   1      28.635  15.877 -23.068  0.00  0.00     0.019 A 
ATOM      6  C   UNL d   1      29.788  15.850 -24.839  0.00  0.00     0.018 A 
ATOM      7  C   UNL d   1      30.109  16.150 -23.243  0.00  0.00     0.003 A 
ATOM      8  C   UNL d   1      30.713  16.191 -23.801  0.00  0.00     0.020 A 
ATOM      9  C   UNL d   1      30.553  16.040 -24.600  0.00  0.00     0.003 A 
ATOM     10  C   UNL d   1      27.985  15.453 -25.050  0.00  0.00     0.099 C 
ATOM     11  C   UNL d   1      27.243  15.542 -23.421  0.00  0.00     0.019 C 
ENDROOT
BRANCH   8  12
ATOM     12  C   UNL d   1      31.480  16.383 -23.554  0.00  0.00     0.112 C 
BRANCH  12  13
ATOM     13  N   UNL d   1      31.808  17.115 -23.767  0.00  0.00    -0.157 NA
BRANCH  13  14
ATOM     14  S   UNL d   1      32.519  17.362 -23.432  0.00  0.00     0.285 S 
ATOM     15  O   UNL d   1      33.241  17.399 -23.036  0.00  0.00    -0.198 OA
ATOM     16  O   UNL d   1      32.466  16.554 -23.250  0.00  0.00    -0.198 OA
BRANCH  14  17
ATOM     17  C   UNL d   1      32.760  18.148 -23.504  0.00  0.00     0.105 A 
ATOM     18  C   UNL d   1      32.864  18.469 -24.248  0.00  0.00     0.013 A 
ATOM     19  C   UNL d   1      33.106  19.257 -24.321  0.00  0.00     0.001 A 
ATOM     20  C   UNL d   1      33.241  19.712 -23.642  0.00  0.00     0.000 A 
ATOM     21  C   UNL d   1      33.133  19.377 -22.897  0.00  0.00     0.001 A 
ATOM     22  C   UNL d   1      32.893  18.597 -22.826  0.00  0.00     0.013 A 
ENDBRANCH  14  17
ENDBRANCH  13  14
ENDBRANCH  12  13
ENDBRANCH   8  12
TORSDOF 4
ENDMDL
MODEL 3
REMARK VINA RESULT:      -2.1      1.682      4.790
REMARK  4 active torsions:
REMARK  status: ('A' for Active; 'I' for Inactive)
REMARK    1  A    between atoms: N_7  and  S_1 
REMARK    2  A    between atoms: C_11  and  S_1 
REMARK    3  A    between atoms: C_14  and  N_7 
REMARK    4  A    between atoms: C_13  and  C_14 
ROOT
ATOM      1  N   UNL d   1      32.180  16.773 -23.884  0.00  0.00    -0.304 N 
ATOM      2  C   UNL d   1      31.633  16.906 -24.494  0.00  0.00     0.064 A 
ATOM      3  C   UNL d   1      32.482  17.508 -23.650  0.00  0.00     0.064 A 
ATOM      4  C   UNL d   1      32.124  18.089 -24.113  0.00  0.00     0.018 A 
ATOM      5  C   UNL d   1      31.604  17.717 -24.630  0.00  0.00     0.019 A 
ATOM      6  C   UNL d   1      33.036  17.715 -23.077  0.00  0.00     0.018 A 
ATOM      7  C   UNL d   1      32.321  18.887 -24.001  0.00  0.00     0.003 A 
ATOM      8  C   UNL d   1      32.875  19.094 -23.428  0.00  0.00     0.020 A 
ATOM      9  C   UNL d   1      33.233  18.507 -22.965  0.00  0.00     0.003 A 
ATOM     10  C   UNL d   1      32.385  16.046 -23.569  0.00  0.00     0.099 C 
ATOM     11  C   UNL d   1      31.202  16.322 -24.886  0.00  0.00     0.019 C 
ENDROOT
BRANCH   8  12
ATOM     12  C   UNL d   1      33.068  19.892 -23.320  0.00  0.00     0.112 C 
BRANCH  12  13
ATOM     13  N   UNL d   1      33.196  20.183 -22.554  0.00  0.00    -0.157 NA
BRANCH  13  14
ATOM     14  S   UNL d   1      33.067  20.979 -22.387  0.00  0.00     0.285 S 
ATOM     15  O   UNL d   1      32.980  21.798 -22.435  0.00  0.00    -0.198 OA
ATOM     16  O   UNL d   1      33.240  20.956 -23.199  0.00  0.00    -0.198 OA
BRANCH  14  17
ATOM     17  C   UNL d   1      32.877  21.218 -21.620  0.00  0.00     0.105 A 
ATOM     18  C   UNL d   1      33.241  20.852 -20.987  0.00  0.00     0.013 A 
ATOM     19  C   UNL d   1      33.052  21.090 -20.217  0.00  0.00     0.001 A 
ATOM     20  C   UNL d   1      32.499  21.695 -20.095  0.00  0.00     0.000 A 
ATOM     21  C   UNL d   1      32.139  22.056 -20.743  0.00  0.00     0.001 A 
ATOM     22  C   UNL d   1      32.326  21.819 -21.504  0.00  0.00     0.013 A 
ENDBRANCH  14  17
ENDBRANCH  13  14
ENDBRANCH  12  13
ENDBRANCH   8  12
TORSDOF 4
ENDMDL
MODEL 4
REMARK VINA RESULT:      -1.7      1.336      1.951
REMARK  4 active torsions:
REMARK  status: ('A' for Active; 'I' for Inactive)
REMARK    1  A    between atoms: N_7  and  S_1 
REMARK    2  A    between atoms: C_11  and  S_1 
REMARK    3  A    between atoms: C_14  and  N_7 
REMARK    4  A    between atoms: C_13  and  C_14 
ROOT
ATOM      1  N   UNL d   1      32.763  22.858 -20.605  0.00  0.00    -0.304 N 
ATOM      2  C   UNL d   1      32.722  22.290 -20.002  0.00  0.00     0.064 A 
ATOM      3  C   UNL d   1      32.885  22.459 -21.321  0.00  0.00     0.064 A 
ATOM      4  C   UNL d   1      32.919  21.651 -21.159  0.00  0.00     0.018 A 
ATOM      5  C   UNL d   1      32.819  21.550 -20.349  0.00  0.00     0.019 A 
ATOM      6  C   UNL d   1      32.969  22.732 -22.094  0.00  0.00     0.018 A 
ATOM      7  C   UNL d   1      33.038  21.110 -21.776  0.00  0.00     0.003 A 
ATOM      8  C   UNL d   1      33.122  21.383 -22.548  0.00  0.00     0.020 A 
ATOM      9  C   UNL d   1      33.088  22.196 -22.707  0.00  0.00     0.003 A 
ATOM     10  C   UNL d   1      32.695  23.668 -20.512  0.00  0.00     0.099 C 
ATOM     11  C   UNL d   1      32.604  22.450 -19.201  0.00  0.00     0.019 C 
ENDROOT
BRANCH   8  12
ATOM     12  C   UNL d   1      33.241  20.839 -23.160  0.00  0.00     0.112 C 
BRANCH  12  13
ATOM     13  N   UNL d   1      32.892  20.087 -23.114  0.00  0.00    -0.157 NA
BRANCH  13  14
ATOM     14  S   UNL d   1      32.965  19.558 -23.742  0.00  0.00     0.285 S 
ATOM     15  O   UNL d   1      33.116  19.208 -24.473  0.00  0.00    -0.198 OA
ATOM     16  O   UNL d   1      33.240  20.283 -24.039  0.00  0.00    -0.198 OA
BRANCH  14  17
ATOM     17  C   UNL d   1      32.741  18.769 -23.649  0.00  0.00     0.105 A 
ATOM     18  C   UNL d   1      33.182  18.283 -23.163  0.00  0.00     0.013 A 
ATOM     19  C   UNL d   1      32.959  17.492 -23.069  0.00  0.00     0.001 A 
ATOM     20  C   UNL d   1      32.292  17.201 -23.466  0.00  0.00     0.000 A 
ATOM     21  C   UNL d   1      31.855  17.701 -23.953  0.00  0.00     0.001 A 
ATOM     22  C   UNL d   1      32.077  18.484 -24.045  0.00  0.00     0.013 A 
ENDBRANCH  14  17
ENDBRANCH  13  14
ENDBRANCH  12  13
ENDBRANCH   8  12
TORSDOF 4
ENDMDL
MODEL 5
REMARK VINA RESULT:      -1.6      1.361      4.930
REMARK  4 active torsions:
REMARK  status: ('A' for Active; 'I' for Inactive)
REMARK    1  A    between atoms: N_7  and  S_1 
REMARK    2  A    between atoms: C_11  and  S_1 
REMARK    3  A    between atoms: C_14  and  N_7 
REMARK    4  A    between atoms: C_13  and  C_14 
ROOT
ATOM      1  N   UNL d   1      29.632  16.308 -24.141  0.00  0.00    -0.304 N 
ATOM      2  C   UNL d   1      29.075  16.784 -24.530  0.00  0.00     0.064 A 
ATOM      3  C   UNL d   1      30.341  16.734 -24.094  0.00  0.00     0.064 A 
ATOM      4  C   UNL d   1      30.220  17.468 -24.451  0.00  0.00     0.018 A 
ATOM      5  C   UNL d   1      29.443  17.496 -24.718  0.00  0.00     0.019 A 
ATOM      6  C   UNL d   1      31.075  16.544 -23.771  0.00  0.00     0.018 A 
ATOM      7  C   UNL d   1      30.840  18.018 -24.487  0.00  0.00     0.003 A 
ATOM      8  C   UNL d   1      31.573  17.827 -24.164  0.00  0.00     0.020 A 
ATOM      9  C   UNL d   1      31.691  17.089 -23.806  0.00  0.00     0.003 A 
ATOM     10  C   UNL d   1      29.506  15.552 -23.854  0.00  0.00     0.099 C 
ATOM     11  C   UNL d   1      28.295  16.571 -24.693  0.00  0.00     0.019 C 
ENDROOT
BRANCH   8  12
ATOM     12  C   UNL d   1      32.189  18.380 -24.202  0.00  0.00     0.112 C 
BRANCH  12  13
ATOM     13  N   UNL d   1      32.454  18.747 -23.507  0.00  0.00    -0.157 NA
BRANCH  13  14
ATOM     14  S   UNL d   1      32.838  19.475 -23.544  0.00  0.00     0.285 S 
ATOM     15  O   UNL d   1      33.241  20.149 -23.794  0.00  0.00    -0.198 OA
ATOM     16  O   UNL d   1      32.858  19.182 -24.321  0.00  0.00    -0.198 OA
BRANCH  14  17
ATOM     17  C   UNL d   1      32.925  19.935 -22.864  0.00  0.00     0.105 A 
ATOM     18  C   UNL d   1      33.151  20.716 -22.936  0.00  0.00     0.013 A 
ATOM     19  C   UNL d   1      33.239  21.179 -22.256  0.00  0.00     0.001 A 
ATOM     20  C   UNL d   1      33.097  20.847 -21.510  0.00  0.00     0.000 A 
ATOM     21  C   UNL d   1      32.870  20.057 -21.450  0.00  0.00     0.001 A 
ATOM     22  C   UNL d   1      32.783  19.600 -22.125  0.00  0.00     0.013 A 
ENDBRANCH  14  17
ENDBRANCH  13  14
ENDBRANCH  12  13
ENDBRANCH   8  12
TORSDOF 4
ENDMDL
