MODEL 1
REMARK VINA RESULT:      14.1      0.000      0.000
REMARK  2 active torsions:
REMARK  status: ('A' for Active; 'I' for Inactive)
REMARK    1  A    between atoms: C_6  and  C_1 
REMARK    2  A    between atoms: O_12  and  C_9 
ROOT
ATOM      1  C   UNL d   1      14.260  12.349  -1.841  0.00  0.00     0.128 A 
ATOM      2  C   UNL d   1      14.345  13.159  -1.970  0.00  0.00     0.306 A 
ATOM      3  O   UNL d   1      14.029  13.499  -2.631  0.00  0.00    -0.271 OA
ATOM      4  C   UNL d   1      13.861  11.899  -2.378  0.00  0.00     0.013 A 
ATOM      5  C   UNL d   1      13.610  13.041  -3.202  0.00  0.00     0.125 A 
ATOM      6  C   UNL d   1      13.525  12.231  -3.074  0.00  0.00     0.025 A 
ATOM      7  O   UNL d   1      14.743  13.613  -1.434  0.00  0.00    -0.259 OA
ATOM      8  C   UNL d   1      13.283  13.379  -3.883  0.00  0.00     0.117 A 
ATOM      9  C   UNL d   1      13.115  11.780  -3.630  0.00  0.00     0.002 A 
ATOM     10  C   UNL d   1      12.785  12.112  -4.313  0.00  0.00     0.002 A 
ATOM     11  C   UNL d   1      12.870  12.923  -4.441  0.00  0.00     0.026 A 
ENDROOT
BRANCH   1  12
ATOM     12  C   UNL d   1      14.572  11.983  -1.176  0.00  0.00     0.216 C 
ATOM     13  O   UNL d   1      14.096  11.845  -0.490  0.00  0.00    -0.644 OA
ATOM     14  O   UNL d   1      15.342  11.779  -1.239  0.00  0.00    -0.644 OA
ENDBRANCH   1  12
BRANCH   8  15
ATOM     15  O   UNL d   1      13.367  14.181  -4.010  0.00  0.00    -0.326 OA
ATOM     16  C   UNL d   1      12.878  14.565  -4.527  0.00  0.00     0.181 C 
ENDBRANCH   8  15
TORSDOF 2
ENDMDL
