MODEL 1
REMARK VINA RESULT:      53.1      0.000      0.000
REMARK  4 active torsions:
REMARK  status: ('A' for Active; 'I' for Inactive)
REMARK    1  A    between atoms: C_8  and  C_1 
REMARK    2  A    between atoms: C_12  and  C_3 
REMARK    3  A    between atoms: N_10  and  C_8 
REMARK    4  A    between atoms: C_25  and  C_13 
ROOT
ATOM      1  C   UNL d   1      46.296 -18.350  42.813  0.00  0.00     0.079 A 
ATOM      2  C   UNL d   1      45.937 -16.982  42.623  0.00  0.00     0.062 A 
ATOM      3  C   UNL d   1      45.980 -16.076  43.722  0.00  0.00     0.064 A 
ATOM      4  C   UNL d   1      46.191 -17.592  43.116  0.00  0.00     0.108 A 
ATOM      5  C   UNL d   1      45.831 -16.223  42.926  0.00  0.00     0.199 A 
ATOM      6  O   UNL d   1      46.339 -17.444  43.912  0.00  0.00    -0.305 OA
ATOM      7  C   UNL d   1      46.234 -16.687  44.215  0.00  0.00     0.126 A 
ATOM      8  C   UNL d   1      46.148 -18.501  42.013  0.00  0.00     0.199 A 
ATOM      9  C   UNL d   1      45.788 -17.129  41.826  0.00  0.00     0.008 A 
ATOM     10  C   UNL d   1      45.894 -17.890  41.520  0.00  0.00     0.039 A 
ATOM     11  O   UNL d   1      45.577 -15.612  42.432  0.00  0.00    -0.286 OA
ATOM     12  O   UNL d   1      46.251 -19.250  41.709  0.00  0.00    -0.286 OA
ENDROOT
BRANCH   3  13
ATOM     13  C   UNL d   1      45.874 -15.317  44.025  0.00  0.00     0.007 A 
ATOM     14  C   UNL d   1      45.211 -14.863  43.800  0.00  0.00     0.027 A 
ATOM     15  C   UNL d   1      45.106 -14.105  44.103  0.00  0.00     0.123 A 
ATOM     16  O   UNL d   1      44.449 -13.662  43.878  0.00  0.00    -0.301 OA
ATOM     17  C   UNL d   1      45.658 -13.794  44.631  0.00  0.00     0.123 A 
ATOM     18  C   UNL d   1      44.339 -12.897  44.181  0.00  0.00     0.149 A 
ATOM     19  C   UNL d   1      44.899 -12.586  44.714  0.00  0.00     0.149 A 
ATOM     20  O   UNL d   1      45.552 -13.035  44.933  0.00  0.00    -0.301 OA
ATOM     21  C   UNL d   1      46.319 -14.245  44.855  0.00  0.00     0.027 A 
ATOM     22  C   UNL d   1      46.424 -15.002  44.553  0.00  0.00     0.002 A 
ENDBRANCH   3  13
BRANCH   1  23
ATOM     23  C   UNL d   1      46.550 -18.961  43.306  0.00  0.00     0.085 C 
BRANCH  23  24
ATOM     24  N   UNL d   1      46.000 -19.414  43.719  0.00  0.00    -0.304 N 
ATOM     25  C   UNL d   1      46.046 -19.480  44.540  0.00  0.00     0.064 A 
ATOM     26  C   UNL d   1      46.646 -19.092  44.948  0.00  0.00     0.019 C 
ATOM     27  C   UNL d   1      45.496 -19.933  44.944  0.00  0.00     0.018 A 
ATOM     28  C   UNL d   1      44.890 -20.326  44.531  0.00  0.00     0.003 A 
ATOM     29  C   UNL d   1      44.847 -20.258  43.715  0.00  0.00     0.019 A 
ATOM     30  C   UNL d   1      45.397 -19.804  43.302  0.00  0.00     0.080 A 
ENDBRANCH  23  24
ENDBRANCH   1  23
BRANCH  10  31
ATOM     31  C   UNL d   1      45.745 -18.043  40.717  0.00  0.00     0.003 C 
ATOM     32  C   UNL d   1      46.369 -18.238  40.214  0.00  0.00     0.000 C 
ENDBRANCH  10  31
TORSDOF 4
ENDMDL
