MODEL 1
REMARK VINA RESULT:      -3.2      0.000      0.000
REMARK  3 active torsions:
REMARK  status: ('A' for Active; 'I' for Inactive)
REMARK    1  A    between atoms: N_4  and  C_1 
REMARK       I    between atoms: C_8  and  N_4 
REMARK    2  A    between atoms: C_16  and  C_8 
REMARK       I    between atoms: C_9  and  N_10 
REMARK    3  A    between atoms: N_10  and  C_11 
ROOT
ATOM      1  C   UNL d   1      33.200  18.938 -22.989  0.00  0.00     0.197 A 
ATOM      2  N   UNL d   1      33.241  18.826 -22.200  0.00  0.00    -0.221 NA
ATOM      3  S   UNL d   1      33.135  19.709 -23.163  0.00  0.00    -0.047 SA
ATOM      4  C   UNL d   1      33.131  20.120 -22.480  0.00  0.00     0.051 A 
ATOM      5  C   UNL d   1      33.198  19.564 -21.874  0.00  0.00     0.090 A 
ATOM      6  C   UNL d   1      33.078  20.915 -22.293  0.00  0.00     0.027 A 
ATOM      7  C   UNL d   1      33.090  21.168 -21.515  0.00  0.00     0.085 A 
ATOM      8  C   UNL d   1      33.212  19.801 -21.077  0.00  0.00     0.021 A 
ATOM      9  C   UNL d   1      33.157  20.612 -20.909  0.00  0.00     0.021 A 
ENDROOT
BRANCH   1  10
ATOM     10  N   UNL d   1      33.226  18.311 -23.534  0.00  0.00    -0.183 NA
ATOM     11  C   UNL d   1      32.542  17.934 -23.815  0.00  0.00     0.281 C 
ATOM     12  O   UNL d   1      31.805  18.199 -23.536  0.00  0.00    -0.265 OA
BRANCH  11  13
ATOM     13  C   UNL d   1      32.590  17.330 -24.341  0.00  0.00     0.063 C 
ATOM     14  C   UNL d   1      31.928  16.855 -24.507  0.00  0.00     0.005 C 
ENDBRANCH  11  13
ENDBRANCH   1  10
BRANCH   7  15
ATOM     15  N   UNL d   1      33.036  21.985 -21.309  0.00  0.00    -0.208 NA
ATOM     16  C   UNL d   1      32.322  22.271 -21.029  0.00  0.00     0.279 C 
ATOM     17  O   UNL d   1      31.663  21.771 -20.947  0.00  0.00    -0.265 OA
ATOM     18  C   UNL d   1      32.234  23.069 -20.817  0.00  0.00     0.068 C 
ENDBRANCH   7  15
TORSDOF 3
ENDMDL
MODEL 2
REMARK VINA RESULT:      -2.5      2.632      5.553
REMARK  3 active torsions:
REMARK  status: ('A' for Active; 'I' for Inactive)
REMARK    1  A    between atoms: N_4  and  C_1 
REMARK       I    between atoms: C_8  and  N_4 
REMARK    2  A    between atoms: C_16  and  C_8 
REMARK       I    between atoms: C_9  and  N_10 
REMARK    3  A    between atoms: N_10  and  C_11 
ROOT
ATOM      1  C   UNL d   1      32.894  23.287 -18.805  0.00  0.00     0.197 A 
ATOM      2  N   UNL d   1      32.450  23.643 -19.365  0.00  0.00    -0.221 NA
ATOM      3  S   UNL d   1      33.227  22.625 -19.086  0.00  0.00    -0.047 SA
ATOM      4  C   UNL d   1      33.003  22.536 -19.846  0.00  0.00     0.051 A 
ATOM      5  C   UNL d   1      32.514  23.176 -20.022  0.00  0.00     0.090 A 
ATOM      6  C   UNL d   1      33.158  21.977 -20.424  0.00  0.00     0.027 A 
ATOM      7  C   UNL d   1      32.835  22.044 -21.173  0.00  0.00     0.085 A 
ATOM      8  C   UNL d   1      32.176  23.262 -20.777  0.00  0.00     0.021 A 
ATOM      9  C   UNL d   1      32.345  22.684 -21.349  0.00  0.00     0.021 A 
ENDROOT
BRANCH   1  10
ATOM     10  N   UNL d   1      32.978  23.593 -18.037  0.00  0.00    -0.183 NA
ATOM     11  C   UNL d   1      32.771  23.162 -17.358  0.00  0.00     0.281 C 
ATOM     12  O   UNL d   1      32.468  22.395 -17.460  0.00  0.00    -0.265 OA
BRANCH  11  13
ATOM     13  C   UNL d   1      32.860  23.476 -16.626  0.00  0.00     0.063 C 
ATOM     14  C   UNL d   1      33.179  23.026 -16.004  0.00  0.00     0.005 C 
ENDBRANCH  11  13
ENDBRANCH   1  10
BRANCH   7  15
ATOM     15  N   UNL d   1      32.986  21.474 -21.778  0.00  0.00    -0.208 NA
ATOM     16  C   UNL d   1      32.668  20.724 -21.697  0.00  0.00     0.279 C 
ATOM     17  O   UNL d   1      32.207  20.524 -21.035  0.00  0.00    -0.265 OA
ATOM     18  C   UNL d   1      32.798  20.140 -22.273  0.00  0.00     0.068 C 
ENDBRANCH   7  15
TORSDOF 3
ENDMDL
MODEL 3
REMARK VINA RESULT:      -2.2      1.424      4.690
REMARK  3 active torsions:
REMARK  status: ('A' for Active; 'I' for Inactive)
REMARK    1  A    between atoms: N_4  and  C_1 
REMARK       I    between atoms: C_8  and  N_4 
REMARK    2  A    between atoms: C_16  and  C_8 
REMARK       I    between atoms: C_9  and  N_10 
REMARK    3  A    between atoms: N_10  and  C_11 
ROOT
ATOM      1  C   UNL d   1      32.440  22.307 -20.754  0.00  0.00     0.197 A 
ATOM      2  N   UNL d   1      32.740  22.418 -21.485  0.00  0.00    -0.221 NA
ATOM      3  S   UNL d   1      32.377  21.535 -20.587  0.00  0.00    -0.047 SA
ATOM      4  C   UNL d   1      32.640  21.121 -21.216  0.00  0.00     0.051 A 
ATOM      5  C   UNL d   1      32.868  21.677 -21.781  0.00  0.00     0.090 A 
ATOM      6  C   UNL d   1      32.715  20.323 -21.383  0.00  0.00     0.027 A 
ATOM      7  C   UNL d   1      33.012  20.068 -22.101  0.00  0.00     0.085 A 
ATOM      8  C   UNL d   1      33.173  21.438 -22.517  0.00  0.00     0.021 A 
ATOM      9  C   UNL d   1      33.241  20.624 -22.666  0.00  0.00     0.021 A 
ENDROOT
BRANCH   1  10
ATOM     10  N   UNL d   1      32.229  22.938 -20.254  0.00  0.00    -0.183 NA
ATOM     11  C   UNL d   1      32.618  23.088 -19.536  0.00  0.00     0.281 C 
ATOM     12  O   UNL d   1      33.241  22.585 -19.314  0.00  0.00    -0.265 OA
BRANCH  11  13
ATOM     13  C   UNL d   1      32.398  23.702 -19.069  0.00  0.00     0.063 C 
ATOM     14  C   UNL d   1      32.341  23.613 -18.245  0.00  0.00     0.005 C 
ENDBRANCH  11  13
ENDBRANCH   1  10
BRANCH   7  15
ATOM     15  N   UNL d   1      33.095  19.249 -22.286  0.00  0.00    -0.208 NA
ATOM     16  C   UNL d   1      32.806  18.979 -23.003  0.00  0.00     0.279 C 
ATOM     17  O   UNL d   1      32.440  19.498 -23.540  0.00  0.00    -0.265 OA
ATOM     18  C   UNL d   1      32.871  18.178 -23.217  0.00  0.00     0.068 C 
ENDBRANCH   7  15
TORSDOF 3
ENDMDL
MODEL 4
REMARK VINA RESULT:      -0.8      3.421      5.239
REMARK  3 active torsions:
REMARK  status: ('A' for Active; 'I' for Inactive)
REMARK    1  A    between atoms: N_4  and  C_1 
REMARK       I    between atoms: C_8  and  N_4 
REMARK    2  A    between atoms: C_16  and  C_8 
REMARK       I    between atoms: C_9  and  N_10 
REMARK    3  A    between atoms: N_10  and  C_11 
ROOT
ATOM      1  C   UNL d   1      28.958  16.064 -24.175  0.00  0.00     0.197 A 
ATOM      2  N   UNL d   1      29.044  16.731 -24.606  0.00  0.00    -0.221 NA
ATOM      3  S   UNL d   1      29.638  15.868 -23.818  0.00  0.00    -0.047 SA
ATOM      4  C   UNL d   1      30.189  16.410 -24.014  0.00  0.00     0.051 A 
ATOM      5  C   UNL d   1      29.815  16.953 -24.509  0.00  0.00     0.090 A 
ATOM      6  C   UNL d   1      30.980  16.512 -23.827  0.00  0.00     0.027 A 
ATOM      7  C   UNL d   1      31.405  17.145 -24.125  0.00  0.00     0.085 A 
ATOM      8  C   UNL d   1      30.230  17.602 -24.822  0.00  0.00     0.021 A 
ATOM      9  C   UNL d   1      31.031  17.688 -24.621  0.00  0.00     0.021 A 
ENDROOT
BRANCH   1  10
ATOM     10  N   UNL d   1      28.238  15.652 -24.124  0.00  0.00    -0.183 NA
ATOM     11  C   UNL d   1      27.630  15.875 -23.605  0.00  0.00     0.281 C 
ATOM     12  O   UNL d   1      27.753  16.538 -23.119  0.00  0.00    -0.265 OA
BRANCH  11  13
ATOM     13  C   UNL d   1      26.943  15.462 -23.572  0.00  0.00     0.063 C 
ATOM     14  C   UNL d   1      26.247  15.814 -23.284  0.00  0.00     0.005 C 
ENDBRANCH  11  13
ENDBRANCH   1  10
BRANCH   7  15
ATOM     15  N   UNL d   1      32.221  17.262 -23.941  0.00  0.00    -0.208 NA
ATOM     16  C   UNL d   1      32.447  17.972 -23.602  0.00  0.00     0.279 C 
ATOM     17  O   UNL d   1      31.888  18.567 -23.441  0.00  0.00    -0.265 OA
ATOM     18  C   UNL d   1      33.241  18.121 -23.408  0.00  0.00     0.068 C 
ENDBRANCH   7  15
TORSDOF 3
ENDMDL
MODEL 5
REMARK VINA RESULT:      -0.4      3.586      5.380
REMARK  3 active torsions:
REMARK  status: ('A' for Active; 'I' for Inactive)
REMARK    1  A    between atoms: N_4  and  C_1 
REMARK       I    between atoms: C_8  and  N_4 
REMARK    2  A    between atoms: C_16  and  C_8 
REMARK       I    between atoms: C_9  and  N_10 
REMARK    3  A    between atoms: N_10  and  C_11 
ROOT
ATOM      1  C   UNL d   1      32.338  23.253 -19.178  0.00  0.00     0.197 A 
ATOM      2  N   UNL d   1      32.777  22.628 -19.409  0.00  0.00    -0.221 NA
ATOM      3  S   UNL d   1      32.135  23.702 -19.799  0.00  0.00    -0.047 SA
ATOM      4  C   UNL d   1      32.443  23.373 -20.457  0.00  0.00     0.051 A 
ATOM      5  C   UNL d   1      32.847  22.697 -20.211  0.00  0.00     0.090 A 
ATOM      6  C   UNL d   1      32.430  23.569 -21.252  0.00  0.00     0.027 A 
ATOM      7  C   UNL d   1      32.811  23.104 -21.807  0.00  0.00     0.085 A 
ATOM      8  C   UNL d   1      33.241  22.212 -20.760  0.00  0.00     0.021 A 
ATOM      9  C   UNL d   1      33.215  22.428 -21.561  0.00  0.00     0.021 A 
ENDROOT
BRANCH   1  10
ATOM     10  N   UNL d   1      32.134  23.390 -18.383  0.00  0.00    -0.183 NA
ATOM     11  C   UNL d   1      32.568  23.075 -17.750  0.00  0.00     0.281 C 
ATOM     12  O   UNL d   1      33.231  22.604 -17.924  0.00  0.00    -0.265 OA
BRANCH  11  13
ATOM     13  C   UNL d   1      32.354  23.220 -16.990  0.00  0.00     0.063 C 
ATOM     14  C   UNL d   1      32.763  22.869 -16.357  0.00  0.00     0.005 C 
ENDBRANCH  11  13
ENDBRANCH   1  10
BRANCH   7  15
ATOM     15  N   UNL d   1      32.806  23.294 -22.629  0.00  0.00    -0.208 NA
ATOM     16  C   UNL d   1      32.873  22.684 -23.172  0.00  0.00     0.279 C 
ATOM     17  O   UNL d   1      32.944  21.895 -22.921  0.00  0.00    -0.265 OA
ATOM     18  C   UNL d   1      32.871  22.836 -23.989  0.00  0.00     0.068 C 
ENDBRANCH   7  15
TORSDOF 3
ENDMDL
