MODEL 1
REMARK VINA RESULT:      25.6      0.000      0.000
REMARK  2 active torsions:
REMARK  status: ('A' for Active; 'I' for Inactive)
REMARK    1  A    between atoms: N_14  and  C_4 
REMARK    2  A    between atoms: C_9  and  C_5 
ROOT
ATOM      1  C   UNL d   1      58.843  49.707  50.563  0.00  0.00     0.060 A 
ATOM      2  C   UNL d   1      58.519  49.707  49.805  0.00  0.00     0.197 A 
ATOM      3  C   UNL d   1      58.358  49.707  51.232  0.00  0.00     0.043 A 
ATOM      4  C   UNL d   1      59.666  49.707  50.672  0.00  0.00     0.090 A 
ATOM      5  C   UNL d   1      59.990  49.707  51.432  0.00  0.00     0.082 A 
ATOM      6  C   UNL d   1      57.537  49.707  51.161  0.00  0.00     0.196 A 
ATOM      7  C   UNL d   1      57.697  49.707  49.733  0.00  0.00     0.042 A 
ATOM      8  C   UNL d   1      57.212  49.707  50.402  0.00  0.00     0.042 A 
ATOM      9  C   UNL d   1      58.701  49.707  52.004  0.00  0.00     0.004 A 
ATOM     10  C   UNL d   1      59.541  49.707  52.052  0.00  0.00     0.008 A 
ATOM     11  O   UNL d   1      59.018  49.707  49.156  0.00  0.00    -0.286 OA
ATOM     12  O   UNL d   1      57.057  49.708  51.862  0.00  0.00    -0.287 OA
ATOM     13  C   UNL d   1      57.350  49.707  48.958  0.00  0.00     0.003 A 
ATOM     14  C   UNL d   1      56.367  49.707  50.313  0.00  0.00     0.003 A 
ATOM     15  C   UNL d   1      56.043  49.707  49.555  0.00  0.00     0.000 A 
ATOM     16  C   UNL d   1      56.528  49.707  48.886  0.00  0.00     0.000 A 
ENDROOT
BRANCH   5  17
ATOM     17  C   UNL d   1      60.795  49.707  51.578  0.00  0.00     0.212 C 
ATOM     18  O   UNL d   1      61.099  49.707  52.350  0.00  0.00    -0.644 OA
ATOM     19  O   UNL d   1      61.348  49.707  50.967  0.00  0.00    -0.644 OA
ENDBRANCH   5  17
BRANCH   4  20
ATOM     20  N   UNL d   1      60.188  49.707  50.003  0.00  0.00    -0.242 NA
ATOM     21  C   UNL d   1      60.747  49.126  49.899  0.00  0.00     0.119 C 
ENDBRANCH   4  20
TORSDOF 2
ENDMDL
MODEL 2
REMARK VINA RESULT:      28.5      1.206      3.809
REMARK  2 active torsions:
REMARK  status: ('A' for Active; 'I' for Inactive)
REMARK    1  A    between atoms: N_14  and  C_4 
REMARK    2  A    between atoms: C_9  and  C_5 
ROOT
ATOM      1  C   UNL d   1      58.562  49.696  50.796  0.00  0.00     0.060 A 
ATOM      2  C   UNL d   1      58.897  49.699  51.549  0.00  0.00     0.197 A 
ATOM      3  C   UNL d   1      59.037  49.694  50.120  0.00  0.00     0.043 A 
ATOM      4  C   UNL d   1      57.737  49.696  50.699  0.00  0.00     0.090 A 
ATOM      5  C   UNL d   1      57.402  49.693  49.944  0.00  0.00     0.082 A 
ATOM      6  C   UNL d   1      59.859  49.694  50.179  0.00  0.00     0.196 A 
ATOM      7  C   UNL d   1      59.720  49.700  51.609  0.00  0.00     0.042 A 
ATOM      8  C   UNL d   1      60.195  49.697  50.933  0.00  0.00     0.042 A 
ATOM      9  C   UNL d   1      58.683  49.691  49.353  0.00  0.00     0.004 A 
ATOM     10  C   UNL d   1      57.842  49.690  49.317  0.00  0.00     0.008 A 
ATOM     11  O   UNL d   1      58.408  49.702  52.206  0.00  0.00    -0.286 OA
ATOM     12  O   UNL d   1      60.329  49.692  49.471  0.00  0.00    -0.287 OA
ATOM     13  C   UNL d   1      60.079  49.703  52.379  0.00  0.00     0.003 A 
ATOM     14  C   UNL d   1      61.041  49.698  51.009  0.00  0.00     0.003 A 
ATOM     15  C   UNL d   1      61.377  49.701  51.763  0.00  0.00     0.000 A 
ATOM     16  C   UNL d   1      60.902  49.703  52.439  0.00  0.00     0.000 A 
ENDROOT
BRANCH   5  17
ATOM     17  C   UNL d   1      56.596  49.692  49.810  0.00  0.00     0.212 C 
ATOM     18  O   UNL d   1      56.280  49.697  49.043  0.00  0.00    -0.644 OA
ATOM     19  O   UNL d   1      56.052  49.686  50.429  0.00  0.00    -0.644 OA
ENDBRANCH   5  17
BRANCH   4  20
ATOM     20  N   UNL d   1      57.225  49.698  51.376  0.00  0.00    -0.242 NA
ATOM     21  C   UNL d   1      56.540  49.261  51.393  0.00  0.00     0.119 C 
ENDBRANCH   4  20
TORSDOF 2
ENDMDL
