MODEL 1
REMARK VINA RESULT:      17.9      0.000      0.000
REMARK  4 active torsions:
REMARK  status: ('A' for Active; 'I' for Inactive)
REMARK    1  A    between atoms: N_3  and  S_1 
REMARK    2  A    between atoms: C_5  and  S_1 
REMARK    3  A    between atoms: C_2  and  N_3 
REMARK    4  A    between atoms: O_18  and  C_11 
ROOT
ATOM      1  C   UNL d   1      46.194 -17.867  44.008  0.00  0.00     0.113 A 
ATOM      2  C   UNL d   1      46.304 -18.688  44.109  0.00  0.00     0.100 A 
ATOM      3  C   UNL d   1      46.295 -17.510  43.282  0.00  0.00     0.046 A 
ATOM      4  C   UNL d   1      46.515 -19.151  43.485  0.00  0.00     0.021 A 
ATOM      5  N   UNL d   1      46.194 -19.025  44.855  0.00  0.00    -0.242 NA
ATOM      6  C   UNL d   1      46.514 -17.993  42.642  0.00  0.00     0.096 A 
ATOM      7  C   UNL d   1      46.624 -18.813  42.743  0.00  0.00     0.026 A 
ATOM      8  C   UNL d   1      46.623 -19.959  43.585  0.00  0.00     0.003 A 
ATOM      9  C   UNL d   1      46.303 -19.832  44.955  0.00  0.00     0.099 A 
ATOM     10  C   UNL d   1      46.524 -20.329  44.312  0.00  0.00     0.021 A 
ENDROOT
BRANCH   1  11
ATOM     11  N   UNL d   1      45.968 -17.363  44.669  0.00  0.00    -0.157 NA
BRANCH  11  12
ATOM     12  S   UNL d   1      45.842 -16.546  44.564  0.00  0.00     0.285 S 
ATOM     13  O   UNL d   1      45.070 -16.705  44.251  0.00  0.00    -0.198 OA
ATOM     14  O   UNL d   1      46.588 -16.392  44.866  0.00  0.00    -0.198 OA
BRANCH  12  15
ATOM     15  C   UNL d   1      45.716 -15.732  44.460  0.00  0.00     0.105 A 
ATOM     16  C   UNL d   1      46.311 -15.254  44.153  0.00  0.00     0.013 A 
ATOM     17  C   UNL d   1      46.187 -14.445  44.049  0.00  0.00     0.001 A 
ATOM     18  C   UNL d   1      45.464 -14.096  44.250  0.00  0.00     0.000 A 
ATOM     19  C   UNL d   1      44.870 -14.583  44.558  0.00  0.00     0.001 A 
ATOM     20  C   UNL d   1      45.340 -13.292  44.147  0.00  0.00     0.000 C 
ATOM     21  C   UNL d   1      44.995 -15.392  44.661  0.00  0.00     0.013 A 
ENDBRANCH  12  15
ENDBRANCH  11  12
ENDBRANCH   1  11
BRANCH   6  22
ATOM     22  O   UNL d   1      46.621 -17.621  41.878  0.00  0.00    -0.328 OA
ATOM     23  C   UNL d   1      46.646 -18.071  41.176  0.00  0.00     0.181 C 
ENDBRANCH   6  22
TORSDOF 4
ENDMDL
