MODEL 1
REMARK VINA RESULT:      -0.7      0.000      0.000
REMARK  7 active torsions:
REMARK  status: ('A' for Active; 'I' for Inactive)
REMARK    1  A    between atoms: C_8  and  C_1 
REMARK    2  A    between atoms: N_7  and  C_2 
REMARK    3  A    between atoms: C_5  and  N_7 
REMARK    4  A    between atoms: N_9  and  C_5 
REMARK    5  A    between atoms: O_12  and  C_8 
REMARK    6  A    between atoms: C_13  and  N_9 
REMARK    7  A    between atoms: C_16  and  O_12 
ROOT
ATOM      1  C   UNL d   1      30.659  17.092 -24.568  0.00  0.00     0.162 A 
ATOM      2  C   UNL d   1      31.408  17.414 -24.501  0.00  0.00     0.108 A 
ATOM      3  N   UNL d   1      30.735  16.302 -24.794  0.00  0.00    -0.239 NA
ATOM      4  C   UNL d   1      31.956  16.831 -24.683  0.00  0.00     0.037 A 
ATOM      5  C   UNL d   1      31.545  16.141 -24.866  0.00  0.00     0.083 A 
ATOM      6  C   UNL d   1      32.780  16.837 -24.708  0.00  0.00     0.003 A 
ATOM      7  C   UNL d   1      31.956  15.453 -25.074  0.00  0.00     0.019 A 
ATOM      8  C   UNL d   1      33.197  16.157 -24.914  0.00  0.00     0.000 A 
ATOM      9  C   UNL d   1      32.777  15.463 -25.097  0.00  0.00     0.002 A 
ENDROOT
BRANCH   2  10
ATOM     10  N   UNL d   1      31.589  18.201 -24.284  0.00  0.00    -0.216 NA
BRANCH  10  11
ATOM     11  C   UNL d   1      32.262  18.352 -23.827  0.00  0.00     0.221 C 
ATOM     12  S   UNL d   1      33.007  18.427 -24.183  0.00  0.00    -0.037 SA
BRANCH  11  13
ATOM     13  N   UNL d   1      32.184  18.428 -23.006  0.00  0.00    -0.217 NA
BRANCH  13  14
ATOM     14  C   UNL d   1      32.437  19.122 -22.637  0.00  0.00     0.084 A 
ATOM     15  C   UNL d   1      32.149  19.851 -22.890  0.00  0.00     0.019 A 
ATOM     16  C   UNL d   1      32.400  20.554 -22.524  0.00  0.00     0.002 A 
ATOM     17  C   UNL d   1      32.943  20.513 -21.899  0.00  0.00     0.000 A 
ATOM     18  C   UNL d   1      33.236  19.784 -21.640  0.00  0.00     0.002 A 
ATOM     19  C   UNL d   1      32.980  19.095 -22.011  0.00  0.00     0.019 A 
ENDBRANCH  13  14
ENDBRANCH  11  13
ENDBRANCH  10  11
ENDBRANCH   2  10
BRANCH   1  20
ATOM     20  C   UNL d   1      29.945  17.488 -24.433  0.00  0.00     0.320 C 
ATOM     21  O   UNL d   1      29.717  18.104 -24.938  0.00  0.00    -0.257 OA
BRANCH  20  22
ATOM     22  O   UNL d   1      29.457  17.280 -23.807  0.00  0.00    -0.270 OA
BRANCH  22  23
ATOM     23  C   UNL d   1      28.644  17.193 -23.935  0.00  0.00     0.126 C 
ATOM     24  C   UNL d   1      28.134  17.140 -23.295  0.00  0.00     0.029 C 
ENDBRANCH  22  23
ENDBRANCH  20  22
ENDBRANCH   1  20
TORSDOF 7
ENDMDL
MODEL 2
REMARK VINA RESULT:       1.7      2.440      4.085
REMARK  7 active torsions:
REMARK  status: ('A' for Active; 'I' for Inactive)
REMARK    1  A    between atoms: C_8  and  C_1 
REMARK    2  A    between atoms: N_7  and  C_2 
REMARK    3  A    between atoms: C_5  and  N_7 
REMARK    4  A    between atoms: N_9  and  C_5 
REMARK    5  A    between atoms: O_12  and  C_8 
REMARK    6  A    between atoms: C_13  and  N_9 
REMARK    7  A    between atoms: C_16  and  O_12 
ROOT
ATOM      1  C   UNL d   1      32.820  19.646 -23.277  0.00  0.00     0.162 A 
ATOM      2  C   UNL d   1      33.047  20.383 -23.004  0.00  0.00     0.108 A 
ATOM      3  N   UNL d   1      32.683  19.702 -24.090  0.00  0.00    -0.239 NA
ATOM      4  C   UNL d   1      33.054  20.902 -23.640  0.00  0.00     0.037 A 
ATOM      5  C   UNL d   1      32.829  20.486 -24.314  0.00  0.00     0.083 A 
ATOM      6  C   UNL d   1      33.236  21.705 -23.694  0.00  0.00     0.003 A 
ATOM      7  C   UNL d   1      32.785  20.869 -25.046  0.00  0.00     0.019 A 
ATOM      8  C   UNL d   1      33.195  22.095 -24.420  0.00  0.00     0.000 A 
ATOM      9  C   UNL d   1      32.967  21.668 -25.097  0.00  0.00     0.002 A 
ENDROOT
BRANCH   2  10
ATOM     10  N   UNL d   1      33.240  20.578 -22.215  0.00  0.00    -0.216 NA
BRANCH  10  11
ATOM     11  C   UNL d   1      32.915  21.258 -21.872  0.00  0.00     0.221 C 
ATOM     12  S   UNL d   1      33.192  22.011 -22.080  0.00  0.00    -0.037 SA
BRANCH  11  13
ATOM     13  N   UNL d   1      32.306  21.177 -21.316  0.00  0.00    -0.217 NA
BRANCH  13  14
ATOM     14  C   UNL d   1      32.374  21.550 -20.583  0.00  0.00     0.084 A 
ATOM     15  C   UNL d   1      31.943  22.234 -20.428  0.00  0.00     0.019 A 
ATOM     16  C   UNL d   1      32.006  22.615 -19.692  0.00  0.00     0.002 A 
ATOM     17  C   UNL d   1      32.510  22.299 -19.115  0.00  0.00     0.000 A 
ATOM     18  C   UNL d   1      32.946  21.611 -19.264  0.00  0.00     0.002 A 
ATOM     19  C   UNL d   1      32.874  21.244 -19.997  0.00  0.00     0.019 A 
ENDBRANCH  13  14
ENDBRANCH  11  13
ENDBRANCH  10  11
ENDBRANCH   2  10
BRANCH   1  20
ATOM     20  C   UNL d   1      32.740  18.961 -22.821  0.00  0.00     0.320 C 
ATOM     21  O   UNL d   1      33.220  18.855 -22.155  0.00  0.00    -0.257 OA
BRANCH  20  22
ATOM     22  O   UNL d   1      32.193  18.382 -23.019  0.00  0.00    -0.270 OA
BRANCH  22  23
ATOM     23  C   UNL d   1      32.375  17.586 -22.883  0.00  0.00     0.126 C 
ATOM     24  C   UNL d   1      32.063  17.008 -23.373  0.00  0.00     0.029 C 
ENDBRANCH  22  23
ENDBRANCH  20  22
ENDBRANCH   1  20
TORSDOF 7
ENDMDL
