MODEL 1
REMARK VINA RESULT:      -6.5      0.000      0.000
REMARK  4 active torsions:
REMARK  status: ('A' for Active; 'I' for Inactive)
REMARK    1  A    between atoms: N_2  and  C_1 
REMARK    2  A    between atoms: C_16  and  N_6 
REMARK    3  A    between atoms: C_14  and  C_7 
REMARK    4  A    between atoms: N_8  and  C_12 
ROOT
ATOM      1  N   UNL d   1     -47.132  13.738  22.336  0.00  0.00    -0.288 N 
ATOM      2  C   UNL d   1     -46.462  13.311  22.451  0.00  0.00     0.196 A 
ATOM      3  S   UNL d   1     -45.823  13.828  22.512  0.00  0.00    -0.092 SA
ATOM      4  C   UNL d   1     -46.942  14.531  22.320  0.00  0.00     0.268 A 
ATOM      5  C   UNL d   1     -46.134  14.593  22.429  0.00  0.00     0.093 A 
ATOM      6  O   UNL d   1     -47.474  15.178  22.212  0.00  0.00    -0.266 OA
ENDROOT
BRANCH   1   7
ATOM      7  C   UNL d   1     -47.869  13.364  22.253  0.00  0.00     0.139 A 
ATOM      8  C   UNL d   1     -48.354  13.153  22.898  0.00  0.00     0.296 A 
ATOM      9  N   UNL d   1     -49.048  12.790  22.596  0.00  0.00    -0.209 N 
ATOM     10  O   UNL d   1     -48.147  13.295  23.695  0.00  0.00    -0.264 OA
ATOM     11  N   UNL d   1     -48.992  12.779  21.780  0.00  0.00    -0.238 N 
ATOM     12  C   UNL d   1     -48.262  13.134  21.566  0.00  0.00     0.102 A 
ATOM     13  C   UNL d   1     -49.538  12.480  21.257  0.00  0.00     0.120 C 
ATOM     14  C   UNL d   1     -47.990  13.233  20.793  0.00  0.00     0.022 C 
BRANCH   9  15
ATOM     15  C   UNL d   1     -49.711  12.475  22.964  0.00  0.00     0.085 A 
ATOM     16  C   UNL d   1     -49.711  11.723  23.262  0.00  0.00     0.019 A 
ATOM     17  C   UNL d   1     -50.375  11.408  23.630  0.00  0.00     0.002 A 
ATOM     18  C   UNL d   1     -51.055  11.863  23.698  0.00  0.00     0.000 A 
ATOM     19  C   UNL d   1     -51.064  12.616  23.402  0.00  0.00     0.002 A 
ATOM     20  C   UNL d   1     -50.400  12.948  23.027  0.00  0.00     0.019 A 
ENDBRANCH   9  15
ENDBRANCH   1   7
BRANCH   2  21
ATOM     21  C   UNL d   1     -45.816  12.808  22.567  0.00  0.00    -0.001 A 
ATOM     22  C   UNL d   1     -45.175  12.823  22.035  0.00  0.00    -0.001 A 
ATOM     23  C   UNL d   1     -44.523  12.315  22.153  0.00  0.00     0.023 A 
ATOM     24  C   UNL d   1     -44.517  11.802  22.795  0.00  0.00     0.127 A 
ATOM     25  C   UNL d   1     -45.156  11.789  23.323  0.00  0.00     0.023 A 
ATOM     26  C   UNL d   1     -45.808  12.297  23.204  0.00  0.00    -0.001 A 
BRANCH  24  27
ATOM     27  N   UNL d   1     -43.873  11.312  22.897  0.00  0.00    -0.114 N 
ATOM     28  O   UNL d   1     -43.124  11.465  22.586  0.00  0.00    -0.532 OA
ATOM     29  O   UNL d   1     -43.874  10.605  23.317  0.00  0.00    -0.532 OA
ENDBRANCH  24  27
ENDBRANCH   2  21
TORSDOF 4
ENDMDL
MODEL 2
REMARK VINA RESULT:      -4.6      6.395      9.397
REMARK  4 active torsions:
REMARK  status: ('A' for Active; 'I' for Inactive)
REMARK    1  A    between atoms: N_2  and  C_1 
REMARK    2  A    between atoms: C_16  and  N_6 
REMARK    3  A    between atoms: C_14  and  C_7 
REMARK    4  A    between atoms: N_8  and  C_12 
ROOT
ATOM      1  N   UNL d   1     -39.294  14.958  20.327  0.00  0.00    -0.288 N 
ATOM      2  C   UNL d   1     -39.998  14.667  20.582  0.00  0.00     0.196 A 
ATOM      3  S   UNL d   1     -40.150  14.961  21.338  0.00  0.00    -0.092 SA
ATOM      4  C   UNL d   1     -38.981  15.440  20.904  0.00  0.00     0.268 A 
ATOM      5  C   UNL d   1     -39.505  15.446  21.532  0.00  0.00     0.093 A 
ATOM      6  O   UNL d   1     -38.249  15.861  20.872  0.00  0.00    -0.266 OA
ENDROOT
BRANCH   1   7
ATOM      7  C   UNL d   1     -38.994  14.756  19.579  0.00  0.00     0.139 A 
ATOM      8  C   UNL d   1     -39.120  15.213  18.893  0.00  0.00     0.296 A 
ATOM      9  N   UNL d   1     -38.733  14.834  18.252  0.00  0.00    -0.209 N 
ATOM     10  O   UNL d   1     -39.562  15.922  18.888  0.00  0.00    -0.264 OA
ATOM     11  N   UNL d   1     -38.376  14.156  18.538  0.00  0.00    -0.238 N 
ATOM     12  C   UNL d   1     -38.537  14.107  19.361  0.00  0.00     0.102 A 
ATOM     13  C   UNL d   1     -37.939  13.617  18.113  0.00  0.00     0.120 C 
ATOM     14  C   UNL d   1     -38.276  13.503  19.861  0.00  0.00     0.022 C 
BRANCH   9  15
ATOM     15  C   UNL d   1     -38.667  15.025  17.456  0.00  0.00     0.085 A 
ATOM     16  C   UNL d   1     -39.220  14.784  16.917  0.00  0.00     0.019 A 
ATOM     17  C   UNL d   1     -39.154  14.975  16.120  0.00  0.00     0.002 A 
ATOM     18  C   UNL d   1     -38.514  15.420  15.862  0.00  0.00     0.000 A 
ATOM     19  C   UNL d   1     -37.957  15.666  16.394  0.00  0.00     0.002 A 
ATOM     20  C   UNL d   1     -38.010  15.480  17.203  0.00  0.00     0.019 A 
ENDBRANCH   9  15
ENDBRANCH   1   7
BRANCH   2  21
ATOM     21  C   UNL d   1     -40.727  14.331  20.778  0.00  0.00    -0.001 A 
ATOM     22  C   UNL d   1     -40.757  13.647  21.253  0.00  0.00    -0.001 A 
ATOM     23  C   UNL d   1     -41.495  13.309  21.450  0.00  0.00     0.023 A 
ATOM     24  C   UNL d   1     -42.189  13.652  21.175  0.00  0.00     0.127 A 
ATOM     25  C   UNL d   1     -42.156  14.333  20.703  0.00  0.00     0.023 A 
ATOM     26  C   UNL d   1     -41.419  14.671  20.506  0.00  0.00    -0.001 A 
BRANCH  24  27
ATOM     27  N   UNL d   1     -42.900  13.310  21.377  0.00  0.00    -0.114 N 
ATOM     28  O   UNL d   1     -43.124  12.547  21.154  0.00  0.00    -0.532 OA
ATOM     29  O   UNL d   1     -43.492  13.667  21.822  0.00  0.00    -0.532 OA
ENDBRANCH  24  27
ENDBRANCH   2  21
TORSDOF 4
ENDMDL
MODEL 3
REMARK VINA RESULT:      -4.0      1.966      5.032
REMARK  4 active torsions:
REMARK  status: ('A' for Active; 'I' for Inactive)
REMARK    1  A    between atoms: N_2  and  C_1 
REMARK    2  A    between atoms: C_16  and  N_6 
REMARK    3  A    between atoms: C_14  and  C_7 
REMARK    4  A    between atoms: N_8  and  C_12 
ROOT
ATOM      1  N   UNL d   1     -48.290  12.117  22.338  0.00  0.00    -0.288 N 
ATOM      2  C   UNL d   1     -48.794  12.733  22.446  0.00  0.00     0.196 A 
ATOM      3  S   UNL d   1     -49.557  12.492  22.245  0.00  0.00    -0.092 SA
ATOM      4  C   UNL d   1     -48.711  11.473  22.068  0.00  0.00     0.268 A 
ATOM      5  C   UNL d   1     -49.495  11.699  22.009  0.00  0.00     0.093 A 
ATOM      6  O   UNL d   1     -48.405  10.709  21.881  0.00  0.00    -0.266 OA
ENDROOT
BRANCH   1   7
ATOM      7  C   UNL d   1     -47.478  12.195  22.497  0.00  0.00     0.139 A 
ATOM      8  C   UNL d   1     -46.960  12.656  22.035  0.00  0.00     0.296 A 
ATOM      9  N   UNL d   1     -46.192  12.598  22.366  0.00  0.00    -0.209 N 
ATOM     10  O   UNL d   1     -47.205  13.089  21.363  0.00  0.00    -0.264 OA
ATOM     11  N   UNL d   1     -46.236  12.109  23.020  0.00  0.00    -0.238 N 
ATOM     12  C   UNL d   1     -47.033  11.858  23.103  0.00  0.00     0.102 A 
ATOM     13  C   UNL d   1     -45.624  11.895  23.513  0.00  0.00     0.120 C 
ATOM     14  C   UNL d   1     -47.315  11.357  23.696  0.00  0.00     0.022 C 
BRANCH   9  15
ATOM     15  C   UNL d   1     -45.470  12.927  22.151  0.00  0.00     0.085 A 
ATOM     16  C   UNL d   1     -44.922  12.505  21.733  0.00  0.00     0.019 A 
ATOM     17  C   UNL d   1     -44.201  12.835  21.518  0.00  0.00     0.002 A 
ATOM     18  C   UNL d   1     -44.030  13.609  21.729  0.00  0.00     0.000 A 
ATOM     19  C   UNL d   1     -44.573  14.039  22.147  0.00  0.00     0.002 A 
ATOM     20  C   UNL d   1     -45.307  13.719  22.372  0.00  0.00     0.019 A 
ENDBRANCH   9  15
ENDBRANCH   1   7
BRANCH   2  21
ATOM     21  C   UNL d   1     -49.252  13.407  22.581  0.00  0.00    -0.001 A 
ATOM     22  C   UNL d   1     -49.446  13.913  21.947  0.00  0.00    -0.001 A 
ATOM     23  C   UNL d   1     -49.909  14.594  22.085  0.00  0.00     0.023 A 
ATOM     24  C   UNL d   1     -50.172  14.763  22.844  0.00  0.00     0.127 A 
ATOM     25  C   UNL d   1     -49.977  14.259  23.474  0.00  0.00     0.023 A 
ATOM     26  C   UNL d   1     -49.514  13.577  23.336  0.00  0.00    -0.001 A 
BRANCH  24  27
ATOM     27  N   UNL d   1     -50.623  15.432  22.962  0.00  0.00    -0.114 N 
ATOM     28  O   UNL d   1     -50.999  15.847  22.355  0.00  0.00    -0.532 OA
ATOM     29  O   UNL d   1     -50.769  15.786  23.689  0.00  0.00    -0.532 OA
ENDBRANCH  24  27
ENDBRANCH   2  21
TORSDOF 4
ENDMDL
MODEL 4
REMARK VINA RESULT:      -3.7      1.450      4.543
REMARK  4 active torsions:
REMARK  status: ('A' for Active; 'I' for Inactive)
REMARK    1  A    between atoms: N_2  and  C_1 
REMARK    2  A    between atoms: C_16  and  N_6 
REMARK    3  A    between atoms: C_14  and  C_7 
REMARK    4  A    between atoms: N_8  and  C_12 
ROOT
ATOM      1  N   UNL d   1     -46.450  13.646  22.675  0.00  0.00    -0.288 N 
ATOM      2  C   UNL d   1     -47.205  13.444  22.493  0.00  0.00     0.196 A 
ATOM      3  S   UNL d   1     -47.695  14.094  22.624  0.00  0.00    -0.092 SA
ATOM      4  C   UNL d   1     -46.435  14.421  22.925  0.00  0.00     0.268 A 
ATOM      5  C   UNL d   1     -47.202  14.704  22.895  0.00  0.00     0.093 A 
ATOM      6  O   UNL d   1     -45.758  14.862  23.171  0.00  0.00    -0.266 OA
ENDROOT
BRANCH   1   7
ATOM      7  C   UNL d   1     -45.829  13.098  22.598  0.00  0.00     0.139 A 
ATOM      8  C   UNL d   1     -45.745  12.425  23.082  0.00  0.00     0.296 A 
ATOM      9  N   UNL d   1     -45.058  12.010  22.837  0.00  0.00    -0.209 N 
ATOM     10  O   UNL d   1     -46.278  12.231  23.696  0.00  0.00    -0.264 OA
ATOM     11  N   UNL d   1     -44.725  12.421  22.213  0.00  0.00    -0.238 N 
ATOM     12  C   UNL d   1     -45.202  13.096  22.064  0.00  0.00     0.102 A 
ATOM     13  C   UNL d   1     -44.052  12.223  21.802  0.00  0.00     0.120 C 
ATOM     14  C   UNL d   1     -45.059  13.659  21.477  0.00  0.00     0.022 C 
BRANCH   9  15
ATOM     15  C   UNL d   1     -44.704  11.319  23.106  0.00  0.00     0.085 A 
ATOM     16  C   UNL d   1     -45.142  10.719  23.426  0.00  0.00     0.019 A 
ATOM     17  C   UNL d   1     -44.788  10.027  23.695  0.00  0.00     0.002 A 
ATOM     18  C   UNL d   1     -43.973   9.940  23.638  0.00  0.00     0.000 A 
ATOM     19  C   UNL d   1     -43.529  10.536  23.319  0.00  0.00     0.002 A 
ATOM     20  C   UNL d   1     -43.872  11.241  23.043  0.00  0.00     0.019 A 
ENDBRANCH   9  15
ENDBRANCH   1   7
BRANCH   2  21
ATOM     21  C   UNL d   1     -47.956  13.167  22.287  0.00  0.00    -0.001 A 
ATOM     22  C   UNL d   1     -48.443  12.812  22.863  0.00  0.00    -0.001 A 
ATOM     23  C   UNL d   1     -49.201  12.532  22.654  0.00  0.00     0.023 A 
ATOM     24  C   UNL d   1     -49.465  12.609  21.880  0.00  0.00     0.127 A 
ATOM     25  C   UNL d   1     -48.979  12.962  21.308  0.00  0.00     0.023 A 
ATOM     26  C   UNL d   1     -48.221  13.241  21.517  0.00  0.00    -0.001 A 
BRANCH  24  27
ATOM     27  N   UNL d   1     -50.207  12.331  21.691  0.00  0.00    -0.114 N 
ATOM     28  O   UNL d   1     -50.654  12.606  21.053  0.00  0.00    -0.532 OA
ATOM     29  O   UNL d   1     -50.617  11.747  22.099  0.00  0.00    -0.532 OA
ENDBRANCH  24  27
ENDBRANCH   2  21
TORSDOF 4
ENDMDL
