MODEL 1
REMARK VINA RESULT:      -5.3      0.000      0.000
REMARK  5 active torsions:
REMARK  status: ('A' for Active; 'I' for Inactive)
REMARK    1  A    between atoms: N_9  and  S_1 
REMARK    2  A    between atoms: C_11  and  S_1 
REMARK    3  A    between atoms: C_5  and  C_10 
REMARK    4  A    between atoms: C_12  and  N_9 
REMARK    5  A    between atoms: C_10  and  C_12 
ROOT
ATOM      1  C   UNL d   1     -48.288  13.817  22.530  0.00  0.00     0.041 C 
ENDROOT
BRANCH   1   2
ATOM      2  C   UNL d   1     -47.602  13.453  22.812  0.00  0.00     0.090 A 
ATOM      3  N   UNL d   1     -47.558  12.682  23.110  0.00  0.00    -0.238 NA
ATOM      4  C   UNL d   1     -46.771  12.546  23.327  0.00  0.00     0.111 A 
ATOM      5  C   UNL d   1     -46.467  11.844  23.654  0.00  0.00     0.028 C 
ATOM      6  S   UNL d   1     -46.332  13.225  23.165  0.00  0.00    -0.066 SA
ATOM      7  C   UNL d   1     -46.850  13.789  22.844  0.00  0.00     0.056 A 
ENDBRANCH   1   2
BRANCH   1   8
ATOM      8  C   UNL d   1     -48.705  14.343  23.000  0.00  0.00     0.114 C 
BRANCH   8   9
ATOM      9  N   UNL d   1     -49.456  14.618  22.750  0.00  0.00    -0.157 NA
BRANCH   9  10
ATOM     10  S   UNL d   1     -49.847  15.190  23.200  0.00  0.00     0.286 S 
ATOM     11  O   UNL d   1     -50.137  14.592  23.698  0.00  0.00    -0.198 OA
ATOM     12  O   UNL d   1     -49.559  15.789  22.704  0.00  0.00    -0.198 OA
BRANCH  10  13
ATOM     13  C   UNL d   1     -50.239  15.754  23.653  0.00  0.00     0.117 C 
ATOM     14  C   UNL d   1     -51.054  15.742  23.698  0.00  0.00     0.014 C 
ENDBRANCH  10  13
ENDBRANCH   9  10
ENDBRANCH   8   9
ENDBRANCH   1   8
TORSDOF 5
ENDMDL
MODEL 2
REMARK VINA RESULT:      -5.2      1.679      3.914
REMARK  5 active torsions:
REMARK  status: ('A' for Active; 'I' for Inactive)
REMARK    1  A    between atoms: N_9  and  S_1 
REMARK    2  A    between atoms: C_11  and  S_1 
REMARK    3  A    between atoms: C_5  and  C_10 
REMARK    4  A    between atoms: C_12  and  N_9 
REMARK    5  A    between atoms: C_10  and  C_12 
ROOT
ATOM      1  C   UNL d   1     -48.323  14.034  22.497  0.00  0.00     0.041 C 
ENDROOT
BRANCH   1   2
ATOM      2  C   UNL d   1     -49.014  14.454  22.667  0.00  0.00     0.090 A 
ATOM      3  N   UNL d   1     -49.081  15.053  23.234  0.00  0.00    -0.238 NA
ATOM      4  C   UNL d   1     -49.865  15.319  23.220  0.00  0.00     0.111 A 
ATOM      5  C   UNL d   1     -50.188  15.919  23.698  0.00  0.00     0.028 C 
ATOM      6  S   UNL d   1     -50.278  14.889  22.651  0.00  0.00    -0.066 SA
ATOM      7  C   UNL d   1     -49.748  14.351  22.307  0.00  0.00     0.056 A 
ENDBRANCH   1   2
BRANCH   1   8
ATOM      8  C   UNL d   1     -48.109  13.382  22.944  0.00  0.00     0.114 C 
BRANCH   8   9
ATOM      9  N   UNL d   1     -47.413  12.955  22.750  0.00  0.00    -0.157 NA
BRANCH   9  10
ATOM     10  S   UNL d   1     -47.186  12.318  23.223  0.00  0.00     0.286 S 
ATOM     11  O   UNL d   1     -46.578  12.782  23.547  0.00  0.00    -0.198 OA
ATOM     12  O   UNL d   1     -47.792  11.852  22.903  0.00  0.00    -0.198 OA
BRANCH  10  13
ATOM     13  C   UNL d   1     -46.953  11.688  23.698  0.00  0.00     0.117 C 
ATOM     14  C   UNL d   1     -46.202  11.378  23.621  0.00  0.00     0.014 C 
ENDBRANCH  10  13
ENDBRANCH   9  10
ENDBRANCH   8   9
ENDBRANCH   1   8
TORSDOF 5
ENDMDL
MODEL 3
REMARK VINA RESULT:      -5.1      2.159      2.443
REMARK  5 active torsions:
REMARK  status: ('A' for Active; 'I' for Inactive)
REMARK    1  A    between atoms: N_9  and  S_1 
REMARK    2  A    between atoms: C_11  and  S_1 
REMARK    3  A    between atoms: C_5  and  C_10 
REMARK    4  A    between atoms: C_12  and  N_9 
REMARK    5  A    between atoms: C_10  and  C_12 
ROOT
ATOM      1  C   UNL d   1     -47.544  12.612  23.600  0.00  0.00     0.041 C 
ENDROOT
BRANCH   1   2
ATOM      2  C   UNL d   1     -46.928  13.009  23.217  0.00  0.00     0.090 A 
ATOM      3  N   UNL d   1     -46.277  12.647  22.858  0.00  0.00    -0.238 NA
ATOM      4  C   UNL d   1     -45.802  13.248  22.546  0.00  0.00     0.111 A 
ATOM      5  C   UNL d   1     -45.086  13.143  22.134  0.00  0.00     0.028 C 
ATOM      6  S   UNL d   1     -46.154  13.974  22.710  0.00  0.00    -0.066 SA
ATOM      7  C   UNL d   1     -46.856  13.825  23.128  0.00  0.00     0.056 A 
ENDBRANCH   1   2
BRANCH   1   8
ATOM      8  C   UNL d   1     -48.271  12.518  23.235  0.00  0.00     0.114 C 
BRANCH   8   9
ATOM      9  N   UNL d   1     -48.902  12.155  23.651  0.00  0.00    -0.157 NA
BRANCH   9  10
ATOM     10  S   UNL d   1     -49.639  12.084  23.286  0.00  0.00     0.286 S 
ATOM     11  O   UNL d   1     -49.898  12.763  23.689  0.00  0.00    -0.198 OA
ATOM     12  O   UNL d   1     -49.383  11.406  22.883  0.00  0.00    -0.198 OA
BRANCH  10  13
ATOM     13  C   UNL d   1     -50.376  12.020  22.926  0.00  0.00     0.117 C 
ATOM     14  C   UNL d   1     -51.024  12.385  23.262  0.00  0.00     0.014 C 
ENDBRANCH  10  13
ENDBRANCH   9  10
ENDBRANCH   8   9
ENDBRANCH   1   8
TORSDOF 5
ENDMDL
MODEL 4
REMARK VINA RESULT:      -4.2      8.998      9.749
REMARK  5 active torsions:
REMARK  status: ('A' for Active; 'I' for Inactive)
REMARK    1  A    between atoms: N_9  and  S_1 
REMARK    2  A    between atoms: C_11  and  S_1 
REMARK    3  A    between atoms: C_5  and  C_10 
REMARK    4  A    between atoms: C_12  and  N_9 
REMARK    5  A    between atoms: C_10  and  C_12 
ROOT
ATOM      1  C   UNL d   1     -40.414  14.423  18.305  0.00  0.00     0.041 C 
ENDROOT
BRANCH   1   2
ATOM      2  C   UNL d   1     -40.578  14.956  17.696  0.00  0.00     0.090 A 
ATOM      3  N   UNL d   1     -41.314  15.053  17.331  0.00  0.00    -0.238 NA
ATOM      4  C   UNL d   1     -41.229  15.640  16.755  0.00  0.00     0.111 A 
ATOM      5  C   UNL d   1     -41.827  15.922  16.249  0.00  0.00     0.028 C 
ATOM      6  S   UNL d   1     -40.448  15.905  16.764  0.00  0.00    -0.066 SA
ATOM      7  C   UNL d   1     -40.044  15.479  17.350  0.00  0.00     0.056 A 
ENDBRANCH   1   2
BRANCH   1   8
ATOM      8  C   UNL d   1     -40.295  14.687  19.072  0.00  0.00     0.114 C 
BRANCH   8   9
ATOM      9  N   UNL d   1     -40.193  14.132  19.692  0.00  0.00    -0.157 NA
BRANCH   9  10
ATOM     10  S   UNL d   1     -40.014  14.402  20.451  0.00  0.00     0.286 S 
ATOM     11  O   UNL d   1     -39.208  14.266  20.303  0.00  0.00    -0.198 OA
ATOM     12  O   UNL d   1     -40.818  14.540  20.601  0.00  0.00    -0.198 OA
BRANCH  10  13
ATOM     13  C   UNL d   1     -39.827  14.671  21.205  0.00  0.00     0.117 C 
ATOM     14  C   UNL d   1     -39.477  14.164  21.742  0.00  0.00     0.014 C 
ENDBRANCH  10  13
ENDBRANCH   9  10
ENDBRANCH   8   9
ENDBRANCH   1   8
TORSDOF 5
ENDMDL
MODEL 5
REMARK VINA RESULT:      -4.0      8.930      9.370
REMARK  5 active torsions:
REMARK  status: ('A' for Active; 'I' for Inactive)
REMARK    1  A    between atoms: N_9  and  S_1 
REMARK    2  A    between atoms: C_11  and  S_1 
REMARK    3  A    between atoms: C_5  and  C_10 
REMARK    4  A    between atoms: C_12  and  N_9 
REMARK    5  A    between atoms: C_10  and  C_12 
ROOT
ATOM      1  C   UNL d   1     -40.489  14.643  20.489  0.00  0.00     0.041 C 
ENDROOT
BRANCH   1   2
ATOM      2  C   UNL d   1     -39.954  14.551  21.112  0.00  0.00     0.090 A 
ATOM      3  N   UNL d   1     -39.720  13.828  21.438  0.00  0.00    -0.238 NA
ATOM      4  C   UNL d   1     -39.182  13.993  22.045  0.00  0.00     0.111 A 
ATOM      5  C   UNL d   1     -38.801  13.432  22.528  0.00  0.00     0.028 C 
ATOM      6  S   UNL d   1     -39.084  14.810  22.094  0.00  0.00    -0.066 SA
ATOM      7  C   UNL d   1     -39.565  15.157  21.513  0.00  0.00     0.056 A 
ENDBRANCH   1   2
BRANCH   1   8
ATOM      8  C   UNL d   1     -40.241  14.575  19.712  0.00  0.00     0.114 C 
BRANCH   8   9
ATOM      9  N   UNL d   1     -40.789  14.691  19.088  0.00  0.00    -0.157 NA
BRANCH   9  10
ATOM     10  S   UNL d   1     -40.532  14.626  18.306  0.00  0.00     0.286 S 
ATOM     11  O   UNL d   1     -40.822  13.848  18.281  0.00  0.00    -0.198 OA
ATOM     12  O   UNL d   1     -40.241  15.402  18.328  0.00  0.00    -0.198 OA
BRANCH  10  13
ATOM     13  C   UNL d   1     -40.278  14.553  17.527  0.00  0.00     0.117 C 
ATOM     14  C   UNL d   1     -40.596  15.037  16.950  0.00  0.00     0.014 C 
ENDBRANCH  10  13
ENDBRANCH   9  10
ENDBRANCH   8   9
ENDBRANCH   1   8
TORSDOF 5
ENDMDL
MODEL 6
REMARK VINA RESULT:      -4.0      8.913      9.934
REMARK  5 active torsions:
REMARK  status: ('A' for Active; 'I' for Inactive)
REMARK    1  A    between atoms: N_9  and  S_1 
REMARK    2  A    between atoms: C_11  and  S_1 
REMARK    3  A    between atoms: C_5  and  C_10 
REMARK    4  A    between atoms: C_12  and  N_9 
REMARK    5  A    between atoms: C_10  and  C_12 
ROOT
ATOM      1  C   UNL d   1     -40.045  14.022  18.059  0.00  0.00     0.041 C 
ENDROOT
BRANCH   1   2
ATOM      2  C   UNL d   1     -39.374  13.663  17.737  0.00  0.00     0.090 A 
ATOM      3  N   UNL d   1     -39.120  12.892  17.900  0.00  0.00    -0.238 NA
ATOM      4  C   UNL d   1     -38.432  12.761  17.461  0.00  0.00     0.111 A 
ATOM      5  C   UNL d   1     -37.982  12.061  17.452  0.00  0.00     0.028 C 
ATOM      6  S   UNL d   1     -38.261  13.443  17.030  0.00  0.00    -0.066 SA
ATOM      7  C   UNL d   1     -38.849  14.004  17.202  0.00  0.00     0.056 A 
ENDBRANCH   1   2
BRANCH   1   8
ATOM      8  C   UNL d   1     -39.982  14.517  18.709  0.00  0.00     0.114 C 
BRANCH   8   9
ATOM      9  N   UNL d   1     -40.673  14.749  19.124  0.00  0.00    -0.157 NA
BRANCH   9  10
ATOM     10  S   UNL d   1     -40.614  15.317  19.720  0.00  0.00     0.286 S 
ATOM     11  O   UNL d   1     -40.469  14.713  20.273  0.00  0.00    -0.198 OA
ATOM     12  O   UNL d   1     -40.759  15.921  19.171  0.00  0.00    -0.198 OA
BRANCH  10  13
ATOM     13  C   UNL d   1     -40.554  15.876  20.320  0.00  0.00     0.117 C 
ATOM     14  C   UNL d   1     -41.136  15.922  20.892  0.00  0.00     0.014 C 
ENDBRANCH  10  13
ENDBRANCH   9  10
ENDBRANCH   8   9
ENDBRANCH   1   8
TORSDOF 5
ENDMDL
MODEL 7
REMARK VINA RESULT:      -3.8      9.412     10.774
REMARK  5 active torsions:
REMARK  status: ('A' for Active; 'I' for Inactive)
REMARK    1  A    between atoms: N_9  and  S_1 
REMARK    2  A    between atoms: C_11  and  S_1 
REMARK    3  A    between atoms: C_5  and  C_10 
REMARK    4  A    between atoms: C_12  and  N_9 
REMARK    5  A    between atoms: C_10  and  C_12 
ROOT
ATOM      1  C   UNL d   1     -40.385  14.589  18.009  0.00  0.00     0.041 C 
ENDROOT
BRANCH   1   2
ATOM      2  C   UNL d   1     -40.487  14.851  18.786  0.00  0.00     0.090 A 
ATOM      3  N   UNL d   1     -40.553  14.362  19.450  0.00  0.00    -0.238 NA
ATOM      4  C   UNL d   1     -40.647  14.853  20.109  0.00  0.00     0.111 A 
ATOM      5  C   UNL d   1     -40.736  14.602  20.898  0.00  0.00     0.028 C 
ATOM      6  S   UNL d   1     -40.639  15.637  19.857  0.00  0.00    -0.066 SA
ATOM      7  C   UNL d   1     -40.539  15.635  19.032  0.00  0.00     0.056 A 
ENDBRANCH   1   2
BRANCH   1   8
ATOM      8  C   UNL d   1     -39.639  14.562  17.671  0.00  0.00     0.114 C 
BRANCH   8   9
ATOM      9  N   UNL d   1     -39.543  14.247  16.899  0.00  0.00    -0.157 NA
BRANCH   9  10
ATOM     10  S   UNL d   1     -38.790  14.231  16.561  0.00  0.00     0.286 S 
ATOM     11  O   UNL d   1     -38.907  15.003  16.276  0.00  0.00    -0.198 OA
ATOM     12  O   UNL d   1     -38.670  13.461  16.845  0.00  0.00    -0.198 OA
BRANCH  10  13
ATOM     13  C   UNL d   1     -38.041  14.222  16.221  0.00  0.00     0.117 C 
ATOM     14  C   UNL d   1     -37.940  13.915  15.471  0.00  0.00     0.014 C 
ENDBRANCH  10  13
ENDBRANCH   9  10
ENDBRANCH   8   9
ENDBRANCH   1   8
TORSDOF 5
ENDMDL
