MODEL 1
REMARK VINA RESULT:      -5.6      0.000      0.000
REMARK  2 active torsions:
REMARK  status: ('A' for Active; 'I' for Inactive)
REMARK    1  A    between atoms: C_11  and  N_1 
REMARK    2  A    between atoms: C_15  and  C_11 
ROOT
ATOM      1  N   UNL d   1     -41.377-122.396 -52.666  0.00  0.00    -0.244 N 
ATOM      2  C   UNL d   1     -41.391-123.038 -53.189  0.00  0.00     0.246 A 
ATOM      3  C   UNL d   1     -41.685-122.777 -53.919  0.00  0.00     0.095 A 
ATOM      4  C   UNL d   1     -41.665-121.729 -53.076  0.00  0.00     0.260 A 
ATOM      5  C   UNL d   1     -41.855-121.964 -53.849  0.00  0.00     0.024 A 
ATOM      6  C   UNL d   1     -41.820-123.164 -54.629  0.00  0.00     0.034 A 
ATOM      7  C   UNL d   1     -42.157-121.552 -54.490  0.00  0.00     0.045 A 
ATOM      8  C   UNL d   1     -42.122-122.752 -55.271  0.00  0.00    -0.030 A 
ATOM      9  C   UNL d   1     -42.290-121.947 -55.202  0.00  0.00    -0.027 A 
ATOM     10  C   UNL d   1     -41.918-122.388 -54.359  0.00  0.00     0.014 A 
ATOM     11  O   UNL d   1     -41.152-123.816 -53.015  0.00  0.00    -0.271 OA
ATOM     12  O   UNL d   1     -41.748-120.963 -52.769  0.00  0.00    -0.267 OA
ATOM     13  C   UNL d   1     -41.455-123.563 -53.779  0.00  0.00     0.014 C 
ENDROOT
BRANCH   1  14
ATOM     14  C   UNL d   1     -41.123-122.414 -51.883  0.00  0.00     0.086 C 
BRANCH  14  15
ATOM     15  C   UNL d   1     -41.660-122.577 -51.284  0.00  0.00     0.018 A 
ATOM     16  C   UNL d   1     -42.138-121.982 -50.991  0.00  0.00     0.002 A 
ATOM     17  C   UNL d   1     -42.676-122.144 -50.393  0.00  0.00     0.000 A 
ATOM     18  C   UNL d   1     -42.734-122.912 -50.084  0.00  0.00     0.000 A 
ATOM     19  C   UNL d   1     -42.250-123.510 -50.382  0.00  0.00     0.000 A 
ATOM     20  C   UNL d   1     -41.715-123.339 -50.981  0.00  0.00     0.002 A 
ENDBRANCH  14  15
ENDBRANCH   1  14
TORSDOF 2
ENDMDL
MODEL 2
REMARK VINA RESULT:      -4.8      0.561      3.350
REMARK  2 active torsions:
REMARK  status: ('A' for Active; 'I' for Inactive)
REMARK    1  A    between atoms: C_11  and  N_1 
REMARK    2  A    between atoms: C_15  and  C_11 
ROOT
ATOM      1  N   UNL d   1     -41.390-122.361 -52.461  0.00  0.00    -0.244 N 
ATOM      2  C   UNL d   1     -41.395-123.107 -52.102  0.00  0.00     0.246 A 
ATOM      3  C   UNL d   1     -41.708-123.029 -51.338  0.00  0.00     0.095 A 
ATOM      4  C   UNL d   1     -41.703-121.814 -51.915  0.00  0.00     0.260 A 
ATOM      5  C   UNL d   1     -41.899-122.227 -51.222  0.00  0.00     0.024 A 
ATOM      6  C   UNL d   1     -41.843-123.574 -50.740  0.00  0.00     0.034 A 
ATOM      7  C   UNL d   1     -42.222-121.981 -50.509  0.00  0.00     0.045 A 
ATOM      8  C   UNL d   1     -42.166-123.328 -50.026  0.00  0.00    -0.030 A 
ATOM      9  C   UNL d   1     -42.356-122.534 -49.911  0.00  0.00    -0.027 A 
ATOM     10  C   UNL d   1     -41.958-122.758 -50.825  0.00  0.00     0.014 A 
ATOM     11  O   UNL d   1     -41.131-123.817 -52.446  0.00  0.00    -0.271 OA
ATOM     12  O   UNL d   1     -41.803-121.000 -52.038  0.00  0.00    -0.267 OA
ATOM     13  C   UNL d   1     -41.453-123.756 -51.651  0.00  0.00     0.014 C 
ENDROOT
BRANCH   1  14
ATOM     14  C   UNL d   1     -41.123-122.192 -53.222  0.00  0.00     0.086 C 
BRANCH  14  15
ATOM     15  C   UNL d   1     -41.640-122.251 -53.858  0.00  0.00     0.018 A 
ATOM     16  C   UNL d   1     -41.662-122.935 -54.304  0.00  0.00     0.002 A 
ATOM     17  C   UNL d   1     -42.177-122.995 -54.939  0.00  0.00     0.000 A 
ATOM     18  C   UNL d   1     -42.677-122.359 -55.128  0.00  0.00     0.000 A 
ATOM     19  C   UNL d   1     -42.652-121.671 -54.675  0.00  0.00     0.000 A 
ATOM     20  C   UNL d   1     -42.133-121.619 -54.042  0.00  0.00     0.002 A 
ENDBRANCH  14  15
ENDBRANCH   1  14
TORSDOF 2
ENDMDL
MODEL 3
REMARK VINA RESULT:      -4.1      0.875      3.255
REMARK  2 active torsions:
REMARK  status: ('A' for Active; 'I' for Inactive)
REMARK    1  A    between atoms: C_11  and  N_1 
REMARK    2  A    between atoms: C_15  and  C_11 
ROOT
ATOM      1  N   UNL d   1     -41.152-122.323 -53.543  0.00  0.00    -0.244 N 
ATOM      2  C   UNL d   1     -41.154-123.113 -53.295  0.00  0.00     0.246 A 
ATOM      3  C   UNL d   1     -41.188-123.129 -52.466  0.00  0.00     0.095 A 
ATOM      4  C   UNL d   1     -41.186-121.843 -52.862  0.00  0.00     0.260 A 
ATOM      5  C   UNL d   1     -41.207-122.341 -52.197  0.00  0.00     0.024 A 
ATOM      6  C   UNL d   1     -41.203-123.747 -51.928  0.00  0.00     0.034 A 
ATOM      7  C   UNL d   1     -41.242-122.183 -51.394  0.00  0.00     0.045 A 
ATOM      8  C   UNL d   1     -41.238-123.589 -51.123  0.00  0.00    -0.030 A 
ATOM      9  C   UNL d   1     -41.257-122.808 -50.856  0.00  0.00    -0.027 A 
ATOM     10  C   UNL d   1     -41.214-122.921 -51.871  0.00  0.00     0.014 A 
ATOM     11  O   UNL d   1     -41.126-123.781 -53.791  0.00  0.00    -0.271 OA
ATOM     12  O   UNL d   1     -41.196-121.014 -52.846  0.00  0.00    -0.267 OA
ATOM     13  C   UNL d   1     -41.161-123.817 -52.932  0.00  0.00     0.014 C 
ENDROOT
BRANCH   1  14
ATOM     14  C   UNL d   1     -41.123-122.060 -54.323  0.00  0.00     0.086 C 
BRANCH  14  15
ATOM     15  C   UNL d   1     -41.812-122.029 -54.769  0.00  0.00     0.018 A 
ATOM     16  C   UNL d   1     -42.455-121.604 -54.499  0.00  0.00     0.002 A 
ATOM     17  C   UNL d   1     -43.144-121.573 -54.944  0.00  0.00     0.000 A 
ATOM     18  C   UNL d   1     -43.187-121.975 -55.669  0.00  0.00     0.000 A 
ATOM     19  C   UNL d   1     -42.535-122.403 -55.939  0.00  0.00     0.000 A 
ATOM     20  C   UNL d   1     -41.850-122.429 -55.487  0.00  0.00     0.002 A 
ENDBRANCH  14  15
ENDBRANCH   1  14
TORSDOF 2
ENDMDL
MODEL 4
REMARK VINA RESULT:      -2.9      0.683      3.542
REMARK  2 active torsions:
REMARK  status: ('A' for Active; 'I' for Inactive)
REMARK    1  A    between atoms: C_11  and  N_1 
REMARK    2  A    between atoms: C_15  and  C_11 
ROOT
ATOM      1  N   UNL d   1     -41.220-122.354 -52.993  0.00  0.00    -0.244 N 
ATOM      2  C   UNL d   1     -41.330-121.897 -52.312  0.00  0.00     0.246 A 
ATOM      3  C   UNL d   1     -41.404-122.407 -51.662  0.00  0.00     0.095 A 
ATOM      4  C   UNL d   1     -41.224-123.156 -52.765  0.00  0.00     0.260 A 
ATOM      5  C   UNL d   1     -41.338-123.188 -51.943  0.00  0.00     0.024 A 
ATOM      6  C   UNL d   1     -41.520-122.267 -50.862  0.00  0.00     0.034 A 
ATOM      7  C   UNL d   1     -41.390-123.818 -51.420  0.00  0.00     0.045 A 
ATOM      8  C   UNL d   1     -41.572-122.897 -50.339  0.00  0.00    -0.030 A 
ATOM      9  C   UNL d   1     -41.507-123.671 -50.617  0.00  0.00    -0.027 A 
ATOM     10  C   UNL d   1     -41.432-122.944 -51.331  0.00  0.00     0.014 A 
ATOM     11  O   UNL d   1     -41.363-121.066 -52.280  0.00  0.00    -0.271 OA
ATOM     12  O   UNL d   1     -41.132-123.810 -53.267  0.00  0.00    -0.267 OA
ATOM     13  C   UNL d   1     -41.441-121.579 -51.594  0.00  0.00     0.014 C 
ENDROOT
BRANCH   1  14
ATOM     14  C   UNL d   1     -41.122-122.066 -53.759  0.00  0.00     0.086 C 
BRANCH  14  15
ATOM     15  C   UNL d   1     -41.736-122.134 -54.301  0.00  0.00     0.018 A 
ATOM     16  C   UNL d   1     -41.747-122.757 -54.829  0.00  0.00     0.002 A 
ATOM     17  C   UNL d   1     -42.359-122.826 -55.371  0.00  0.00     0.000 A 
ATOM     18  C   UNL d   1     -42.968-122.262 -55.382  0.00  0.00     0.000 A 
ATOM     19  C   UNL d   1     -42.953-121.634 -54.847  0.00  0.00     0.000 A 
ATOM     20  C   UNL d   1     -42.337-121.573 -54.309  0.00  0.00     0.002 A 
ENDBRANCH  14  15
ENDBRANCH   1  14
TORSDOF 2
ENDMDL
