MODEL 1
REMARK VINA RESULT:      26.1      0.000      0.000
REMARK  8 active torsions:
REMARK  status: ('A' for Active; 'I' for Inactive)
REMARK    1  A    between atoms: C_2  and  C_8 
REMARK    2  A    between atoms: O_17  and  C_2 
REMARK    3  A    between atoms: C_15  and  C_3 
REMARK    4  A    between atoms: C_20  and  C_4 
REMARK    5  A    between atoms: C_5  and  C_16 
REMARK       I    between atoms: N_9  and  C_5 
REMARK    6  A    between atoms: C_14  and  N_9 
REMARK    7  A    between atoms: C_16  and  C_15 
REMARK    8  A    between atoms: C_21  and  O_17 
ROOT
ATOM      1  C   UNL d   1      13.087  12.468  -4.663  0.00  0.00     0.279 C 
ATOM      2  N   UNL d   1      13.138  11.780  -4.224  0.00  0.00    -0.208 NA
ATOM      3  O   UNL d   1      12.873  12.436  -5.465  0.00  0.00    -0.265 OA
ENDROOT
BRANCH   2   4
ATOM      4  C   UNL d   1      13.351  11.813  -3.426  0.00  0.00     0.085 A 
ATOM      5  C   UNL d   1      14.147  11.845  -3.217  0.00  0.00     0.019 A 
ATOM      6  C   UNL d   1      14.357  11.877  -2.423  0.00  0.00     0.007 A 
ATOM      7  C   UNL d   1      13.772  11.877  -1.841  0.00  0.00     0.064 A 
ATOM      8  C   UNL d   1      12.977  11.844  -2.050  0.00  0.00     0.007 A 
ATOM      9  C   UNL d   1      12.769  11.812  -2.856  0.00  0.00     0.019 A 
BRANCH   7  10
ATOM     10  C   UNL d   1      13.987  11.909  -1.040  0.00  0.00     0.300 C 
ATOM     11  O   UNL d   1      13.419  11.779  -0.459  0.00  0.00    -0.259 OA
BRANCH  10  12
ATOM     12  O   UNL d   1      14.761  12.071  -0.831  0.00  0.00    -0.271 OA
BRANCH  12  13
ATOM     13  C   UNL d   1      14.984  12.841  -0.635  0.00  0.00     0.126 C 
ATOM     14  C   UNL d   1      15.725  12.982  -0.295  0.00  0.00     0.029 C 
ENDBRANCH  12  13
ENDBRANCH  10  12
ENDBRANCH   7  10
ENDBRANCH   2   4
BRANCH   1  15
ATOM     15  C   UNL d   1      13.247  13.197  -4.309  0.00  0.00     0.065 C 
BRANCH  15  16
ATOM     16  C   UNL d   1      13.188  13.893  -4.749  0.00  0.00     0.030 C 
BRANCH  16  17
ATOM     17  C   UNL d   1      13.549  14.581  -4.481  0.00  0.00     0.100 A 
ATOM     18  O   UNL d   1      13.698  14.786  -3.688  0.00  0.00    -0.307 OA
ATOM     19  C   UNL d   1      14.065  15.516  -3.677  0.00  0.00     0.100 A 
ATOM     20  C   UNL d   1      14.150  15.776  -4.456  0.00  0.00     0.027 A 
ATOM     21  C   UNL d   1      13.831  15.196  -4.948  0.00  0.00     0.027 A 
BRANCH  19  22
ATOM     22  C   UNL d   1      14.306  15.919  -3.002  0.00  0.00     0.025 C 
ATOM     23  C   UNL d   1      14.916  16.477  -3.050  0.00  0.00     0.002 C 
ENDBRANCH  19  22
ENDBRANCH  16  17
ENDBRANCH  15  16
ENDBRANCH   1  15
TORSDOF 8
ENDMDL
MODEL 2
REMARK VINA RESULT:      27.9      0.976      3.726
REMARK  8 active torsions:
REMARK  status: ('A' for Active; 'I' for Inactive)
REMARK    1  A    between atoms: C_2  and  C_8 
REMARK    2  A    between atoms: O_17  and  C_2 
REMARK    3  A    between atoms: C_15  and  C_3 
REMARK    4  A    between atoms: C_20  and  C_4 
REMARK    5  A    between atoms: C_5  and  C_16 
REMARK       I    between atoms: N_9  and  C_5 
REMARK    6  A    between atoms: C_14  and  N_9 
REMARK    7  A    between atoms: C_16  and  C_15 
REMARK    8  A    between atoms: C_21  and  O_17 
ROOT
ATOM      1  C   UNL d   1      13.122  12.492  -4.257  0.00  0.00     0.279 C 
ATOM      2  N   UNL d   1      13.063  13.200  -4.660  0.00  0.00    -0.208 NA
ATOM      3  O   UNL d   1      12.789  11.801  -4.576  0.00  0.00    -0.265 OA
ENDROOT
BRANCH   2   4
ATOM      4  C   UNL d   1      13.396  13.887  -4.343  0.00  0.00     0.085 A 
ATOM      5  C   UNL d   1      14.212  13.989  -4.357  0.00  0.00     0.019 A 
ATOM      6  C   UNL d   1      14.542  14.673  -4.041  0.00  0.00     0.007 A 
ATOM      7  C   UNL d   1      14.053  15.251  -3.712  0.00  0.00     0.064 A 
ATOM      8  C   UNL d   1      13.238  15.150  -3.697  0.00  0.00     0.007 A 
ATOM      9  C   UNL d   1      12.909  14.455  -4.019  0.00  0.00     0.019 A 
BRANCH   7  10
ATOM     10  C   UNL d   1      14.388  15.941  -3.393  0.00  0.00     0.300 C 
ATOM     11  O   UNL d   1      14.834  16.439  -3.873  0.00  0.00    -0.259 OA
BRANCH  10  12
ATOM     12  O   UNL d   1      14.275  16.124  -2.603  0.00  0.00    -0.271 OA
BRANCH  12  13
ATOM     13  C   UNL d   1      14.924  16.258  -2.112  0.00  0.00     0.126 C 
ATOM     14  C   UNL d   1      14.888  16.845  -1.531  0.00  0.00     0.029 C 
ENDBRANCH  12  13
ENDBRANCH  10  12
ENDBRANCH   7  10
ENDBRANCH   2   4
BRANCH   1  15
ATOM     15  C   UNL d   1      13.515  12.461  -3.531  0.00  0.00     0.065 C 
BRANCH  15  16
ATOM     16  C   UNL d   1      13.477  11.779  -3.067  0.00  0.00     0.030 C 
BRANCH  16  17
ATOM     17  C   UNL d   1      13.670  11.812  -2.269  0.00  0.00     0.100 A 
ATOM     18  O   UNL d   1      14.436  11.851  -1.946  0.00  0.00    -0.307 OA
ATOM     19  C   UNL d   1      14.371  11.875  -1.132  0.00  0.00     0.100 A 
ATOM     20  C   UNL d   1      13.569  11.851  -0.936  0.00  0.00     0.027 A 
ATOM     21  C   UNL d   1      13.141  11.813  -1.640  0.00  0.00     0.027 A 
BRANCH  19  22
ATOM     22  C   UNL d   1      14.999  11.915  -0.604  0.00  0.00     0.025 C 
ATOM     23  C   UNL d   1      15.206  12.641  -0.264  0.00  0.00     0.002 C 
ENDBRANCH  19  22
ENDBRANCH  16  17
ENDBRANCH  15  16
ENDBRANCH   1  15
TORSDOF 8
ENDMDL
MODEL 3
REMARK VINA RESULT:      28.6      1.735      4.307
REMARK  8 active torsions:
REMARK  status: ('A' for Active; 'I' for Inactive)
REMARK    1  A    between atoms: C_2  and  C_8 
REMARK    2  A    between atoms: O_17  and  C_2 
REMARK    3  A    between atoms: C_15  and  C_3 
REMARK    4  A    between atoms: C_20  and  C_4 
REMARK    5  A    between atoms: C_5  and  C_16 
REMARK       I    between atoms: N_9  and  C_5 
REMARK    6  A    between atoms: C_14  and  N_9 
REMARK    7  A    between atoms: C_16  and  C_15 
REMARK    8  A    between atoms: C_21  and  O_17 
ROOT
ATOM      1  C   UNL d   1      15.008  12.517  -0.375  0.00  0.00     0.279 C 
ATOM      2  N   UNL d   1      15.396  13.185  -0.108  0.00  0.00    -0.208 NA
ATOM      3  O   UNL d   1      15.148  11.782  -0.015  0.00  0.00    -0.265 OA
ENDROOT
BRANCH   2   4
ATOM      4  C   UNL d   1      15.256  13.917  -0.467  0.00  0.00     0.085 A 
ATOM      5  C   UNL d   1      14.728  13.968  -1.096  0.00  0.00     0.019 A 
ATOM      6  C   UNL d   1      14.590  14.696  -1.452  0.00  0.00     0.007 A 
ATOM      7  C   UNL d   1      14.980  15.370  -1.178  0.00  0.00     0.064 A 
ATOM      8  C   UNL d   1      15.508  15.319  -0.549  0.00  0.00     0.007 A 
ATOM      9  C   UNL d   1      15.645  14.579  -0.192  0.00  0.00     0.019 A 
BRANCH   7  10
ATOM     10  C   UNL d   1      14.839  16.104  -1.539  0.00  0.00     0.300 C 
ATOM     11  O   UNL d   1      14.321  16.639  -1.189  0.00  0.00    -0.259 OA
BRANCH  10  12
ATOM     12  O   UNL d   1      15.216  16.294  -2.240  0.00  0.00    -0.271 OA
BRANCH  12  13
ATOM     13  C   UNL d   1      14.781  16.363  -2.937  0.00  0.00     0.126 C 
ATOM     14  C   UNL d   1      15.010  16.908  -3.515  0.00  0.00     0.029 C 
ENDBRANCH  12  13
ENDBRANCH  10  12
ENDBRANCH   7  10
ENDBRANCH   2   4
BRANCH   1  15
ATOM     15  C   UNL d   1      14.476  12.572  -1.003  0.00  0.00     0.065 C 
BRANCH  15  16
ATOM     16  C   UNL d   1      14.105  11.893  -1.294  0.00  0.00     0.030 C 
BRANCH  16  17
ATOM     17  C   UNL d   1      13.741  11.906  -2.031  0.00  0.00     0.100 A 
ATOM     18  O   UNL d   1      14.112  12.037  -2.764  0.00  0.00    -0.307 OA
ATOM     19  C   UNL d   1      13.543  12.001  -3.349  0.00  0.00     0.100 A 
ATOM     20  C   UNL d   1      12.814  11.848  -2.993  0.00  0.00     0.027 A 
ATOM     21  C   UNL d   1      12.941  11.790  -2.180  0.00  0.00     0.027 A 
BRANCH  19  22
ATOM     22  C   UNL d   1      13.678  12.102  -4.154  0.00  0.00     0.025 C 
ATOM     23  C   UNL d   1      13.038  12.159  -4.676  0.00  0.00     0.002 C 
ENDBRANCH  19  22
ENDBRANCH  16  17
ENDBRANCH  15  16
ENDBRANCH   1  15
TORSDOF 8
ENDMDL
