MODEL 1
REMARK VINA RESULT:       4.4      0.000      0.000
REMARK  4 active torsions:
REMARK  status: ('A' for Active; 'I' for Inactive)
REMARK    1  A    between atoms: C_15  and  N_5 
REMARK    2  A    between atoms: N_13  and  C_7 
REMARK    3  A    between atoms: C_18  and  N_13 
REMARK    4  A    between atoms: C_16  and  C_15 
ROOT
ATOM      1  N   UNL d   1     -41.594-122.075 -51.496  0.00  0.00     0.039 N 
ATOM      2  C   UNL d   1     -41.434-121.274 -51.397  0.00  0.00     0.755 A 
ATOM      3  C   UNL d   1     -41.607-122.416 -52.237  0.00  0.00     0.134 A 
ATOM      4  C   UNL d   1     -41.457-121.953 -52.907  0.00  0.00     0.081 A 
ATOM      5  N   UNL d   1     -41.284-120.807 -52.069  0.00  0.00    -0.103 N 
ATOM      6  C   UNL d   1     -41.296-121.149 -52.823  0.00  0.00     0.281 A 
ATOM      7  C   UNL d   1     -41.718-122.391 -50.747  0.00  0.00     0.768 A 
ATOM      8  N   UNL d   1     -41.461-121.102 -50.599  0.00  0.00     0.060 NA
ATOM      9  S   UNL d   1     -41.747-123.185 -52.491  0.00  0.00    -0.068 SA
ATOM     10  N   UNL d   1     -41.637-121.792 -50.195  0.00  0.00     0.061 NA
ATOM     11  C   UNL d   1     -41.506-122.437 -53.573  0.00  0.00     0.013 A 
ATOM     12  C   UNL d   1     -41.685-123.199 -53.316  0.00  0.00     0.031 A 
ATOM     13  O   UNL d   1     -41.146-120.687 -53.493  0.00  0.00    -0.266 OA
ATOM     14  C   UNL d   1     -41.411-122.285 -54.375  0.00  0.00     0.001 A 
ATOM     15  C   UNL d   1     -41.772-123.816 -53.858  0.00  0.00     0.006 A 
ATOM     16  C   UNL d   1     -41.496-122.895 -54.920  0.00  0.00     0.000 A 
ATOM     17  C   UNL d   1     -41.677-123.664 -54.660  0.00  0.00     0.001 A 
ENDROOT
BRANCH   7  18
ATOM     18  N   UNL d   1     -41.897-123.184 -50.581  0.00  0.00    -0.059 NA
BRANCH  18  19
ATOM     19  C   UNL d   1     -42.208-123.396 -49.841  0.00  0.00     0.100 A 
ATOM     20  C   UNL d   1     -41.704-123.433 -49.183  0.00  0.00     0.020 A 
ATOM     21  C   UNL d   1     -42.007-123.644 -48.443  0.00  0.00     0.002 A 
ATOM     22  C   UNL d   1     -42.815-123.817 -48.367  0.00  0.00     0.000 A 
ATOM     23  C   UNL d   1     -43.318-123.779 -49.028  0.00  0.00     0.002 A 
ATOM     24  C   UNL d   1     -43.007-123.566 -49.768  0.00  0.00     0.020 A 
ENDBRANCH  18  19
ENDBRANCH   7  18
BRANCH   5  25
ATOM     25  C   UNL d   1     -41.123-120.006 -51.984  0.00  0.00     0.101 C 
BRANCH  25  26
ATOM     26  C   UNL d   1     -41.215-119.494 -52.622  0.00  0.00     0.020 C 
ATOM     27  C   UNL d   1     -41.216-118.678 -52.508  0.00  0.00     0.002 C 
ENDBRANCH  25  26
ENDBRANCH   5  25
TORSDOF 4
ENDMDL
MODEL 2
REMARK VINA RESULT:       6.6      1.013      2.746
REMARK  4 active torsions:
REMARK  status: ('A' for Active; 'I' for Inactive)
REMARK    1  A    between atoms: C_15  and  N_5 
REMARK    2  A    between atoms: N_13  and  C_7 
REMARK    3  A    between atoms: C_18  and  N_13 
REMARK    4  A    between atoms: C_16  and  C_15 
ROOT
ATOM      1  N   UNL d   1     -41.372-122.487 -51.046  0.00  0.00     0.039 N 
ATOM      2  C   UNL d   1     -41.337-123.079 -51.618  0.00  0.00     0.755 A 
ATOM      3  C   UNL d   1     -41.327-121.699 -51.249  0.00  0.00     0.134 A 
ATOM      4  C   UNL d   1     -41.244-121.481 -52.044  0.00  0.00     0.081 A 
ATOM      5  N   UNL d   1     -41.254-122.863 -52.416  0.00  0.00    -0.103 N 
ATOM      6  C   UNL d   1     -41.208-122.063 -52.628  0.00  0.00     0.281 A 
ATOM      7  C   UNL d   1     -41.453-122.860 -50.318  0.00  0.00     0.768 A 
ATOM      8  N   UNL d   1     -41.396-123.803 -51.244  0.00  0.00     0.060 NA
ATOM      9  S   UNL d   1     -41.346-121.009 -50.803  0.00  0.00    -0.068 SA
ATOM     10  N   UNL d   1     -41.468-123.669 -50.439  0.00  0.00     0.061 NA
ATOM     11  C   UNL d   1     -41.213-120.658 -52.086  0.00  0.00     0.013 A 
ATOM     12  C   UNL d   1     -41.277-120.366 -51.319  0.00  0.00     0.031 A 
ATOM     13  O   UNL d   1     -41.126-121.845 -53.422  0.00  0.00    -0.266 OA
ATOM     14  C   UNL d   1     -41.136-120.140 -52.719  0.00  0.00     0.001 A 
ATOM     15  C   UNL d   1     -41.263-119.553 -51.176  0.00  0.00     0.006 A 
ATOM     16  C   UNL d   1     -41.123-119.328 -52.585  0.00  0.00     0.000 A 
ATOM     17  C   UNL d   1     -41.186-119.033 -51.810  0.00  0.00     0.001 A 
ENDROOT
BRANCH   7  18
ATOM     18  N   UNL d   1     -41.510-122.478 -49.584  0.00  0.00    -0.059 NA
BRANCH  18  19
ATOM     19  C   UNL d   1     -41.758-122.898 -48.911  0.00  0.00     0.100 A 
ATOM     20  C   UNL d   1     -42.530-123.201 -48.883  0.00  0.00     0.020 A 
ATOM     21  C   UNL d   1     -42.783-123.620 -48.217  0.00  0.00     0.002 A 
ATOM     22  C   UNL d   1     -42.261-123.733 -47.582  0.00  0.00     0.000 A 
ATOM     23  C   UNL d   1     -41.488-123.428 -47.613  0.00  0.00     0.002 A 
ATOM     24  C   UNL d   1     -41.240-123.008 -48.286  0.00  0.00     0.020 A 
ENDBRANCH  18  19
ENDBRANCH   7  18
BRANCH   5  25
ATOM     25  C   UNL d   1     -41.218-123.443 -52.996  0.00  0.00     0.101 C 
BRANCH  25  26
ATOM     26  C   UNL d   1     -41.180-123.234 -53.792  0.00  0.00     0.020 C 
ATOM     27  C   UNL d   1     -41.675-123.591 -54.344  0.00  0.00     0.002 C 
ENDBRANCH  25  26
ENDBRANCH   5  25
TORSDOF 4
ENDMDL
