MODEL 1
REMARK VINA RESULT:      27.5      0.000      0.000
REMARK  4 active torsions:
REMARK  status: ('A' for Active; 'I' for Inactive)
REMARK    1  A    between atoms: C_6  and  C_1 
REMARK    2  A    between atoms: S_7  and  C_3 
REMARK    3  A    between atoms: C_17  and  S_7 
REMARK    4  A    between atoms: C_18  and  C_17 
ROOT
ATOM      1  C   UNL d   1      13.788  12.337  -3.010  0.00  0.00     0.087 A 
ATOM      2  N   UNL d   1      13.592  11.779  -3.575  0.00  0.00    -0.245 NA
ATOM      3  C   UNL d   1      13.624  13.092  -3.300  0.00  0.00     0.049 A 
ATOM      4  C   UNL d   1      13.323  13.010  -4.054  0.00  0.00     0.025 A 
ATOM      5  C   UNL d   1      13.302  12.199  -4.226  0.00  0.00     0.082 A 
ATOM      6  C   UNL d   1      13.067  13.571  -4.599  0.00  0.00     0.002 A 
ATOM      7  C   UNL d   1      13.027  11.935  -4.942  0.00  0.00     0.019 A 
ATOM      8  C   UNL d   1      12.786  13.306  -5.331  0.00  0.00     0.000 A 
ATOM      9  C   UNL d   1      12.769  12.496  -5.493  0.00  0.00     0.002 A 
ENDROOT
BRANCH   1  10
ATOM     10  C   UNL d   1      14.099  12.211  -2.264  0.00  0.00     0.018 A 
ATOM     11  C   UNL d   1      13.600  11.955  -1.646  0.00  0.00     0.002 A 
ATOM     12  C   UNL d   1      13.898  11.827  -0.899  0.00  0.00     0.011 A 
ATOM     13  C   UNL d   1      14.699  11.955  -0.766  0.00  0.00     0.058 A 
ATOM     14  C   UNL d   1      15.193  12.215  -1.399  0.00  0.00     0.011 A 
ATOM     15 CL   UNL d   1      15.001  11.827  -0.015  0.00  0.00    -0.082 Cl
ATOM     16  C   UNL d   1      14.897  12.340  -2.135  0.00  0.00     0.002 A 
ENDBRANCH   1  10
BRANCH   3  17
ATOM     17  S   UNL d   1      13.736  13.817  -2.915  0.00  0.00    -0.083 SA
BRANCH  17  18
ATOM     18  C   UNL d   1      14.074  14.472  -3.310  0.00  0.00     0.058 C 
BRANCH  18  19
ATOM     19  C   UNL d   1      13.970  15.244  -3.037  0.00  0.00     0.129 C 
ATOM     20  N   UNL d   1      14.582  15.800  -3.073  0.00  0.00    -0.146 N 
ENDBRANCH  18  19
ENDBRANCH  17  18
ENDBRANCH   3  17
TORSDOF 4
ENDMDL
