MODEL 1
REMARK VINA RESULT:      -6.0      0.000      0.000
REMARK  4 active torsions:
REMARK  status: ('A' for Active; 'I' for Inactive)
REMARK    1  A    between atoms: C_2  and  C_1 
REMARK    2  A    between atoms: C_13  and  N_5 
REMARK    3  A    between atoms: C_16  and  C_13 
REMARK    4  A    between atoms: C_17  and  C_16 
ROOT
ATOM      1  C   UNL d   1     -41.396-122.360 -52.064  0.00  0.00     0.112 A 
ATOM      2  C   UNL d   1     -41.406-123.042 -51.605  0.00  0.00     0.176 A 
ATOM      3  N   UNL d   1     -41.236-122.829 -50.821  0.00  0.00    -0.285 N 
ATOM      4  C   UNL d   1     -41.220-121.724 -51.563  0.00  0.00     0.219 A 
ATOM      5  C   UNL d   1     -41.123-122.016 -50.803  0.00  0.00     0.124 A 
ATOM      6  O   UNL d   1     -41.152-120.926 -51.791  0.00  0.00    -0.285 OA
ATOM      7  N   UNL d   1     -41.561-123.810 -51.885  0.00  0.00    -0.128 N 
ENDROOT
BRANCH   1   8
ATOM      8  C   UNL d   1     -41.540-122.343 -52.878  0.00  0.00     0.169 A 
ATOM      9  N   UNL d   1     -41.123-122.706 -53.492  0.00  0.00    -0.225 NA
ATOM     10  C   UNL d   1     -41.492-122.516 -54.199  0.00  0.00     0.101 A 
ATOM     11  C   UNL d   1     -41.324-122.719 -54.980  0.00  0.00     0.021 A 
ATOM     12  C   UNL d   1     -42.142-122.035 -54.028  0.00  0.00     0.101 A 
ATOM     13  C   UNL d   1     -41.806-122.440 -55.597  0.00  0.00     0.002 A 
ATOM     14  C   UNL d   1     -42.455-121.959 -55.425  0.00  0.00     0.002 A 
ATOM     15  C   UNL d   1     -42.622-121.757 -54.637  0.00  0.00     0.021 A 
ATOM     16  N   UNL d   1     -42.168-121.931 -53.216  0.00  0.00    -0.225 NA
ENDBRANCH   1   8
BRANCH   3  17
ATOM     17  C   UNL d   1     -41.191-123.348 -50.175  0.00  0.00     0.082 C 
BRANCH  17  18
ATOM     18  C   UNL d   1     -41.300-123.059 -49.422  0.00  0.00     0.019 C 
BRANCH  18  19
ATOM     19  C   UNL d   1     -41.366-123.582 -48.787  0.00  0.00     0.002 C 
ATOM     20  C   UNL d   1     -41.989-123.506 -48.262  0.00  0.00     0.000 C 
ENDBRANCH  18  19
ENDBRANCH  17  18
ENDBRANCH   3  17
TORSDOF 4
ENDMDL
MODEL 2
REMARK VINA RESULT:      -6.0      0.672      4.428
REMARK  4 active torsions:
REMARK  status: ('A' for Active; 'I' for Inactive)
REMARK    1  A    between atoms: C_2  and  C_1 
REMARK    2  A    between atoms: C_13  and  N_5 
REMARK    3  A    between atoms: C_16  and  C_13 
REMARK    4  A    between atoms: C_17  and  C_16 
ROOT
ATOM      1  C   UNL d   1     -41.444-122.529 -51.401  0.00  0.00     0.112 A 
ATOM      2  C   UNL d   1     -41.457-123.004 -52.072  0.00  0.00     0.176 A 
ATOM      3  N   UNL d   1     -41.264-122.533 -52.727  0.00  0.00    -0.285 N 
ATOM      4  C   UNL d   1     -41.243-121.762 -51.642  0.00  0.00     0.219 A 
ATOM      5  C   UNL d   1     -41.133-121.770 -52.454  0.00  0.00     0.124 A 
ATOM      6  O   UNL d   1     -41.164-121.098 -51.146  0.00  0.00    -0.285 OA
ATOM      7  N   UNL d   1     -41.634-123.817 -52.084  0.00  0.00    -0.128 N 
ENDROOT
BRANCH   1   8
ATOM      8  C   UNL d   1     -41.608-122.796 -50.636  0.00  0.00     0.169 A 
ATOM      9  N   UNL d   1     -41.123-123.210 -50.111  0.00  0.00    -0.225 NA
ATOM     10  C   UNL d   1     -41.548-123.344 -49.422  0.00  0.00     0.101 A 
ATOM     11  C   UNL d   1     -41.350-123.725 -48.718  0.00  0.00     0.021 A 
ATOM     12  C   UNL d   1     -42.299-123.013 -49.516  0.00  0.00     0.101 A 
ATOM     13  C   UNL d   1     -41.904-123.777 -48.102  0.00  0.00     0.002 A 
ATOM     14  C   UNL d   1     -42.655-123.446 -48.197  0.00  0.00     0.002 A 
ATOM     15  C   UNL d   1     -42.852-123.063 -48.907  0.00  0.00     0.021 A 
ATOM     16  N   UNL d   1     -42.332-122.678 -50.263  0.00  0.00    -0.225 NA
ENDBRANCH   1   8
BRANCH   3  17
ATOM     17  C   UNL d   1     -41.213-122.791 -53.514  0.00  0.00     0.082 C 
BRANCH  17  18
ATOM     18  C   UNL d   1     -41.578-122.361 -54.100  0.00  0.00     0.019 C 
BRANCH  18  19
ATOM     19  C   UNL d   1     -41.476-122.575 -54.891  0.00  0.00     0.002 C 
ATOM     20  C   UNL d   1     -41.874-122.164 -55.476  0.00  0.00     0.000 C 
ENDBRANCH  18  19
ENDBRANCH  17  18
ENDBRANCH   3  17
TORSDOF 4
ENDMDL
MODEL 3
REMARK VINA RESULT:      -3.3      1.095      1.329
REMARK  4 active torsions:
REMARK  status: ('A' for Active; 'I' for Inactive)
REMARK    1  A    between atoms: C_2  and  C_1 
REMARK    2  A    between atoms: C_13  and  N_5 
REMARK    3  A    between atoms: C_16  and  C_13 
REMARK    4  A    between atoms: C_17  and  C_16 
ROOT
ATOM      1  C   UNL d   1     -41.722-122.466 -52.527  0.00  0.00     0.112 A 
ATOM      2  C   UNL d   1     -41.939-121.968 -51.908  0.00  0.00     0.176 A 
ATOM      3  N   UNL d   1     -41.763-122.352 -51.193  0.00  0.00    -0.285 N 
ATOM      4  C   UNL d   1     -41.413-123.158 -52.193  0.00  0.00     0.219 A 
ATOM      5  C   UNL d   1     -41.440-123.084 -51.377  0.00  0.00     0.124 A 
ATOM      6  O   UNL d   1     -41.123-123.817 -52.614  0.00  0.00    -0.285 OA
ATOM      7  N   UNL d   1     -42.275-121.211 -51.992  0.00  0.00    -0.128 N 
ENDROOT
BRANCH   1   8
ATOM      8  C   UNL d   1     -41.810-122.280 -53.327  0.00  0.00     0.169 A 
ATOM      9  N   UNL d   1     -41.273-121.925 -53.845  0.00  0.00    -0.225 NA
ATOM     10  C   UNL d   1     -41.630-121.864 -54.581  0.00  0.00     0.101 A 
ATOM     11  C   UNL d   1     -41.362-121.560 -55.299  0.00  0.00     0.021 A 
ATOM     12  C   UNL d   1     -42.390-122.181 -54.524  0.00  0.00     0.101 A 
ATOM     13  C   UNL d   1     -41.856-121.572 -55.967  0.00  0.00     0.002 A 
ATOM     14  C   UNL d   1     -42.616-121.889 -55.909  0.00  0.00     0.002 A 
ATOM     15  C   UNL d   1     -42.883-122.194 -55.184  0.00  0.00     0.021 A 
ATOM     16  N   UNL d   1     -42.497-122.435 -53.753  0.00  0.00    -0.225 NA
ENDBRANCH   1   8
BRANCH   3  17
ATOM     17  C   UNL d   1     -41.894-122.047 -50.433  0.00  0.00     0.082 C 
BRANCH  17  18
ATOM     18  C   UNL d   1     -41.988-122.559 -49.808  0.00  0.00     0.019 C 
BRANCH  18  19
ATOM     19  C   UNL d   1     -42.373-122.305 -49.123  0.00  0.00     0.002 C 
ATOM     20  C   UNL d   1     -42.502-122.833 -48.511  0.00  0.00     0.000 C 
ENDBRANCH  18  19
ENDBRANCH  17  18
ENDBRANCH   3  17
TORSDOF 4
ENDMDL
