MODEL 1
REMARK VINA RESULT:      -8.1      0.000      0.000
REMARK  6 active torsions:
REMARK  status: ('A' for Active; 'I' for Inactive)
REMARK    1  A    between atoms: C_2  and  C_1 
REMARK    2  A    between atoms: C_4  and  C_1 
REMARK    3  A    between atoms: C_6  and  C_2 
REMARK    4  A    between atoms: O_12  and  C_3 
REMARK    5  A    between atoms: C_8  and  C_4 
REMARK    6  A    between atoms: O_13  and  C_10 
ROOT
ATOM      1  C   UNL d   1      53.574  32.304  53.890  0.00  0.00     0.096 A 
ATOM      2  C   UNL d   1      53.823  31.528  54.022  0.00  0.00     0.048 A 
ATOM      3  C   UNL d   1      52.995  32.459  53.324  0.00  0.00     0.022 A 
ATOM      4  C   UNL d   1      52.662  31.841  52.886  0.00  0.00     0.004 A 
ATOM      5  C   UNL d   1      53.493  30.908  53.586  0.00  0.00     0.096 A 
ATOM      6  C   UNL d   1      52.911  31.065  53.017  0.00  0.00     0.024 A 
ENDROOT
BRANCH   3   7
ATOM      7  C   UNL d   1      52.746  33.234  53.193  0.00  0.00     0.005 C 
BRANCH   7   8
ATOM      8  C   UNL d   1      52.007  33.377  52.853  0.00  0.00     0.042 C 
BRANCH   8   9
ATOM      9  C   UNL d   1      51.755  34.144  52.701  0.00  0.00     0.196 C 
ATOM     10  O   UNL d   1      52.289  34.774  52.757  0.00  0.00    -0.287 OA
BRANCH   9  11
ATOM     11  C   UNL d   1      50.973  34.292  52.492  0.00  0.00     0.039 A 
ATOM     12  C   UNL d   1      50.725  34.200  51.713  0.00  0.00     0.003 A 
ATOM     13  C   UNL d   1      49.932  34.353  51.517  0.00  0.00     0.000 A 
ATOM     14  C   UNL d   1      49.393  34.595  52.095  0.00  0.00     0.000 A 
ATOM     15  C   UNL d   1      49.647  34.686  52.881  0.00  0.00     0.000 A 
ATOM     16  C   UNL d   1      50.429  34.536  53.077  0.00  0.00     0.003 A 
ENDBRANCH   9  11
ENDBRANCH   8   9
ENDBRANCH   7   8
ENDBRANCH   3   7
BRANCH   1  17
ATOM     17  O   UNL d   1      53.904  32.924  54.326  0.00  0.00    -0.328 OA
ATOM     18  C   UNL d   1      54.272  32.772  55.048  0.00  0.00     0.181 C 
ENDBRANCH   1  17
BRANCH   5  19
ATOM     19  O   UNL d   1      53.742  30.132  53.717  0.00  0.00    -0.328 OA
ATOM     20  C   UNL d   1      53.185  29.529  53.814  0.00  0.00     0.181 C 
ENDBRANCH   5  19
TORSDOF 6
ENDMDL
MODEL 2
REMARK VINA RESULT:      -7.9      1.210      4.395
REMARK  6 active torsions:
REMARK  status: ('A' for Active; 'I' for Inactive)
REMARK    1  A    between atoms: C_2  and  C_1 
REMARK    2  A    between atoms: C_4  and  C_1 
REMARK    3  A    between atoms: C_6  and  C_2 
REMARK    4  A    between atoms: O_12  and  C_3 
REMARK    5  A    between atoms: C_8  and  C_4 
REMARK    6  A    between atoms: O_13  and  C_10 
ROOT
ATOM      1  C   UNL d   1      51.929  33.902  53.029  0.00  0.00     0.096 A 
ATOM      2  C   UNL d   1      51.991  34.662  53.344  0.00  0.00     0.048 A 
ATOM      3  C   UNL d   1      52.509  33.339  53.195  0.00  0.00     0.022 A 
ATOM      4  C   UNL d   1      53.154  33.533  53.676  0.00  0.00     0.004 A 
ATOM      5  C   UNL d   1      52.634  34.859  53.825  0.00  0.00     0.096 A 
ATOM      6  C   UNL d   1      53.216  34.293  53.991  0.00  0.00     0.024 A 
ENDROOT
BRANCH   3   7
ATOM      7  C   UNL d   1      52.447  32.581  52.880  0.00  0.00     0.005 C 
BRANCH   7   8
ATOM      8  C   UNL d   1      52.867  31.957  53.222  0.00  0.00     0.042 C 
BRANCH   8   9
ATOM      9  C   UNL d   1      52.884  31.216  52.867  0.00  0.00     0.196 C 
ATOM     10  O   UNL d   1      52.756  31.145  52.053  0.00  0.00    -0.287 OA
BRANCH   9  11
ATOM     11  C   UNL d   1      53.029  30.543  53.317  0.00  0.00     0.039 A 
ATOM     12  C   UNL d   1      53.731  30.468  53.741  0.00  0.00     0.003 A 
ATOM     13  C   UNL d   1      53.864  29.782  54.191  0.00  0.00     0.000 A 
ATOM     14  C   UNL d   1      53.301  29.178  54.215  0.00  0.00     0.000 A 
ATOM     15  C   UNL d   1      52.595  29.256  53.786  0.00  0.00     0.000 A 
ATOM     16  C   UNL d   1      52.460  29.932  53.341  0.00  0.00     0.003 A 
ENDBRANCH   9  11
ENDBRANCH   8   9
ENDBRANCH   7   8
ENDBRANCH   3   7
BRANCH   1  17
ATOM     17  O   UNL d   1      51.286  33.704  52.548  0.00  0.00    -0.328 OA
ATOM     18  C   UNL d   1      50.633  34.206  52.506  0.00  0.00     0.181 C 
ENDBRANCH   1  17
BRANCH   5  19
ATOM     19  O   UNL d   1      52.697  35.619  54.141  0.00  0.00    -0.328 OA
ATOM     20  C   UNL d   1      53.257  35.780  54.726  0.00  0.00     0.181 C 
ENDBRANCH   5  19
TORSDOF 6
ENDMDL
MODEL 3
REMARK VINA RESULT:      -7.8      0.968      4.229
REMARK  6 active torsions:
REMARK  status: ('A' for Active; 'I' for Inactive)
REMARK    1  A    between atoms: C_2  and  C_1 
REMARK    2  A    between atoms: C_4  and  C_1 
REMARK    3  A    between atoms: C_6  and  C_2 
REMARK    4  A    between atoms: O_12  and  C_3 
REMARK    5  A    between atoms: C_8  and  C_4 
REMARK    6  A    between atoms: O_13  and  C_10 
ROOT
ATOM      1  C   UNL d   1      52.248  34.267  53.424  0.00  0.00     0.096 A 
ATOM      2  C   UNL d   1      51.582  34.748  53.343  0.00  0.00     0.048 A 
ATOM      3  C   UNL d   1      52.196  33.462  53.253  0.00  0.00     0.022 A 
ATOM      4  C   UNL d   1      51.480  33.133  53.001  0.00  0.00     0.004 A 
ATOM      5  C   UNL d   1      50.865  34.423  53.091  0.00  0.00     0.096 A 
ATOM      6  C   UNL d   1      50.814  33.614  52.920  0.00  0.00     0.024 A 
ENDROOT
BRANCH   3   7
ATOM      7  C   UNL d   1      52.861  32.982  53.334  0.00  0.00     0.005 C 
BRANCH   7   8
ATOM      8  C   UNL d   1      52.786  32.161  53.276  0.00  0.00     0.042 C 
BRANCH   8   9
ATOM      9  C   UNL d   1      53.432  31.669  53.404  0.00  0.00     0.196 C 
ATOM     10  O   UNL d   1      54.196  31.986  53.420  0.00  0.00    -0.287 OA
BRANCH   9  11
ATOM     11  C   UNL d   1      53.324  30.861  53.516  0.00  0.00     0.039 A 
ATOM     12  C   UNL d   1      53.054  30.388  52.899  0.00  0.00     0.003 A 
ATOM     13  C   UNL d   1      52.950  29.573  53.027  0.00  0.00     0.000 A 
ATOM     14  C   UNL d   1      53.114  29.237  53.763  0.00  0.00     0.000 A 
ATOM     15  C   UNL d   1      53.386  29.718  54.383  0.00  0.00     0.000 A 
ATOM     16  C   UNL d   1      53.490  30.522  54.260  0.00  0.00     0.003 A 
ENDBRANCH   9  11
ENDBRANCH   8   9
ENDBRANCH   7   8
ENDBRANCH   3   7
BRANCH   1  17
ATOM     17  O   UNL d   1      52.965  34.592  53.675  0.00  0.00    -0.328 OA
ATOM     18  C   UNL d   1      52.974  35.311  54.079  0.00  0.00     0.181 C 
ENDBRANCH   1  17
BRANCH   5  19
ATOM     19  O   UNL d   1      50.199  34.903  53.010  0.00  0.00    -0.328 OA
ATOM     20  C   UNL d   1      49.579  34.672  52.515  0.00  0.00     0.181 C 
ENDBRANCH   5  19
TORSDOF 6
ENDMDL
MODEL 4
REMARK VINA RESULT:      -7.4      2.090      4.210
REMARK  6 active torsions:
REMARK  status: ('A' for Active; 'I' for Inactive)
REMARK    1  A    between atoms: C_2  and  C_1 
REMARK    2  A    between atoms: C_4  and  C_1 
REMARK    3  A    between atoms: C_6  and  C_2 
REMARK    4  A    between atoms: O_12  and  C_3 
REMARK    5  A    between atoms: C_8  and  C_4 
REMARK    6  A    between atoms: O_13  and  C_10 
ROOT
ATOM      1  C   UNL d   1      54.241  33.635  54.711  0.00  0.00     0.096 A 
ATOM      2  C   UNL d   1      53.952  34.346  55.013  0.00  0.00     0.048 A 
ATOM      3  C   UNL d   1      53.804  33.219  54.148  0.00  0.00     0.022 A 
ATOM      4  C   UNL d   1      53.077  33.511  53.885  0.00  0.00     0.004 A 
ATOM      5  C   UNL d   1      53.224  34.641  54.752  0.00  0.00     0.096 A 
ATOM      6  C   UNL d   1      52.786  34.222  54.187  0.00  0.00     0.024 A 
ENDROOT
BRANCH   3   7
ATOM      7  C   UNL d   1      54.094  32.509  53.847  0.00  0.00     0.005 C 
BRANCH   7   8
ATOM      8  C   UNL d   1      53.575  31.886  53.690  0.00  0.00     0.042 C 
BRANCH   8   9
ATOM      9  C   UNL d   1      53.851  31.174  53.386  0.00  0.00     0.196 C 
ATOM     10  O   UNL d   1      54.565  31.152  52.969  0.00  0.00    -0.287 OA
BRANCH   9  11
ATOM     11  C   UNL d   1      53.421  30.481  53.494  0.00  0.00     0.039 A 
ATOM     12  C   UNL d   1      52.776  30.311  53.011  0.00  0.00     0.003 A 
ATOM     13  C   UNL d   1      52.351  29.607  53.132  0.00  0.00     0.000 A 
ATOM     14  C   UNL d   1      52.570  29.080  53.729  0.00  0.00     0.000 A 
ATOM     15  C   UNL d   1      53.220  29.254  54.214  0.00  0.00     0.000 A 
ATOM     16  C   UNL d   1      53.642  29.948  54.098  0.00  0.00     0.003 A 
ENDBRANCH   9  11
ENDBRANCH   8   9
ENDBRANCH   7   8
ENDBRANCH   3   7
BRANCH   1  17
ATOM     17  O   UNL d   1      54.968  33.340  54.971  0.00  0.00    -0.328 OA
ATOM     18  C   UNL d   1      55.517  33.846  55.322  0.00  0.00     0.181 C 
ENDBRANCH   1  17
BRANCH   5  19
ATOM     19  O   UNL d   1      52.934  35.352  55.054  0.00  0.00    -0.328 OA
ATOM     20  C   UNL d   1      52.823  36.000  54.553  0.00  0.00     0.181 C 
ENDBRANCH   5  19
TORSDOF 6
ENDMDL
MODEL 5
REMARK VINA RESULT:      -7.0      0.892      1.993
REMARK  6 active torsions:
REMARK  status: ('A' for Active; 'I' for Inactive)
REMARK    1  A    between atoms: C_2  and  C_1 
REMARK    2  A    between atoms: C_4  and  C_1 
REMARK    3  A    between atoms: C_6  and  C_2 
REMARK    4  A    between atoms: O_12  and  C_3 
REMARK    5  A    between atoms: C_8  and  C_4 
REMARK    6  A    between atoms: O_13  and  C_10 
ROOT
ATOM      1  C   UNL d   1      53.019  32.482  53.339  0.00  0.00     0.096 A 
ATOM      2  C   UNL d   1      53.557  32.339  53.948  0.00  0.00     0.048 A 
ATOM      3  C   UNL d   1      52.644  33.215  53.286  0.00  0.00     0.022 A 
ATOM      4  C   UNL d   1      52.805  33.808  53.840  0.00  0.00     0.004 A 
ATOM      5  C   UNL d   1      53.720  32.929  54.504  0.00  0.00     0.096 A 
ATOM      6  C   UNL d   1      53.343  33.665  54.449  0.00  0.00     0.024 A 
ENDROOT
BRANCH   3   7
ATOM      7  C   UNL d   1      52.106  33.358  52.678  0.00  0.00     0.005 C 
BRANCH   7   8
ATOM      8  C   UNL d   1      51.502  33.911  52.784  0.00  0.00     0.042 C 
BRANCH   8   9
ATOM      9  C   UNL d   1      51.060  34.180  52.146  0.00  0.00     0.196 C 
ATOM     10  O   UNL d   1      51.383  34.166  51.384  0.00  0.00    -0.287 OA
BRANCH   9  11
ATOM     11  C   UNL d   1      50.296  34.464  52.258  0.00  0.00     0.039 A 
ATOM     12  C   UNL d   1      50.083  34.814  52.972  0.00  0.00     0.003 A 
ATOM     13  C   UNL d   1      49.307  35.096  53.072  0.00  0.00     0.000 A 
ATOM     14  C   UNL d   1      48.753  35.029  52.463  0.00  0.00     0.000 A 
ATOM     15  C   UNL d   1      48.971  34.676  51.744  0.00  0.00     0.000 A 
ATOM     16  C   UNL d   1      49.736  34.396  51.643  0.00  0.00     0.003 A 
ENDBRANCH   9  11
ENDBRANCH   8   9
ENDBRANCH   7   8
ENDBRANCH   3   7
BRANCH   1  17
ATOM     17  O   UNL d   1      52.855  31.892  52.783  0.00  0.00    -0.328 OA
ATOM     18  C   UNL d   1      52.976  31.099  52.975  0.00  0.00     0.181 C 
ENDBRANCH   1  17
BRANCH   5  19
ATOM     19  O   UNL d   1      54.259  32.786  55.113  0.00  0.00    -0.328 OA
ATOM     20  C   UNL d   1      54.823  33.356  55.309  0.00  0.00     0.181 C 
ENDBRANCH   5  19
TORSDOF 6
ENDMDL
MODEL 6
REMARK VINA RESULT:      -6.5      1.930      2.850
REMARK  6 active torsions:
REMARK  status: ('A' for Active; 'I' for Inactive)
REMARK    1  A    between atoms: C_2  and  C_1 
REMARK    2  A    between atoms: C_4  and  C_1 
REMARK    3  A    between atoms: C_6  and  C_2 
REMARK    4  A    between atoms: O_12  and  C_3 
REMARK    5  A    between atoms: C_8  and  C_4 
REMARK    6  A    between atoms: O_13  and  C_10 
ROOT
ATOM      1  C   UNL d   1      53.177  30.416  53.229  0.00  0.00     0.096 A 
ATOM      2  C   UNL d   1      53.017  29.668  53.536  0.00  0.00     0.048 A 
ATOM      3  C   UNL d   1      53.460  31.012  53.724  0.00  0.00     0.022 A 
ATOM      4  C   UNL d   1      53.583  30.864  54.528  0.00  0.00     0.004 A 
ATOM      5  C   UNL d   1      53.139  29.516  54.340  0.00  0.00     0.096 A 
ATOM      6  C   UNL d   1      53.423  30.115  54.836  0.00  0.00     0.024 A 
ENDROOT
BRANCH   3   7
ATOM      7  C   UNL d   1      53.620  31.760  53.416  0.00  0.00     0.005 C 
BRANCH   7   8
ATOM      8  C   UNL d   1      53.555  32.426  53.899  0.00  0.00     0.042 C 
BRANCH   8   9
ATOM      9  C   UNL d   1      53.856  33.152  53.658  0.00  0.00     0.196 C 
ATOM     10  O   UNL d   1      54.517  33.181  53.161  0.00  0.00    -0.287 OA
BRANCH   9  11
ATOM     11  C   UNL d   1      53.504  33.852  53.907  0.00  0.00     0.039 A 
ATOM     12  C   UNL d   1      53.656  34.149  54.660  0.00  0.00     0.003 A 
ATOM     13  C   UNL d   1      53.293  34.859  54.899  0.00  0.00     0.000 A 
ATOM     14  C   UNL d   1      52.785  35.265  54.390  0.00  0.00     0.000 A 
ATOM     15  C   UNL d   1      52.634  34.962  53.632  0.00  0.00     0.000 A 
ATOM     16  C   UNL d   1      52.990  34.263  53.393  0.00  0.00     0.003 A 
ENDBRANCH   9  11
ENDBRANCH   8   9
ENDBRANCH   7   8
ENDBRANCH   3   7
BRANCH   1  17
ATOM     17  O   UNL d   1      53.055  30.568  52.425  0.00  0.00    -0.328 OA
ATOM     18  C   UNL d   1      52.971  29.942  51.894  0.00  0.00     0.181 C 
ENDBRANCH   1  17
BRANCH   5  19
ATOM     19  O   UNL d   1      52.978  28.767  54.649  0.00  0.00    -0.328 OA
ATOM     20  C   UNL d   1      53.441  28.464  55.262  0.00  0.00     0.181 C 
ENDBRANCH   5  19
TORSDOF 6
ENDMDL
MODEL 7
REMARK VINA RESULT:      -6.2      2.109      5.342
REMARK  6 active torsions:
REMARK  status: ('A' for Active; 'I' for Inactive)
REMARK    1  A    between atoms: C_2  and  C_1 
REMARK    2  A    between atoms: C_4  and  C_1 
REMARK    3  A    between atoms: C_6  and  C_2 
REMARK    4  A    between atoms: O_12  and  C_3 
REMARK    5  A    between atoms: C_8  and  C_4 
REMARK    6  A    between atoms: O_13  and  C_10 
ROOT
ATOM      1  C   UNL d   1      48.709  35.043  51.924  0.00  0.00     0.096 A 
ATOM      2  C   UNL d   1      48.030  35.483  52.086  0.00  0.00     0.048 A 
ATOM      3  C   UNL d   1      49.288  34.952  52.505  0.00  0.00     0.022 A 
ATOM      4  C   UNL d   1      49.191  35.298  53.249  0.00  0.00     0.004 A 
ATOM      5  C   UNL d   1      47.930  35.831  52.830  0.00  0.00     0.096 A 
ATOM      6  C   UNL d   1      48.512  35.738  53.412  0.00  0.00     0.024 A 
ENDROOT
BRANCH   3   7
ATOM      7  C   UNL d   1      49.966  34.513  52.342  0.00  0.00     0.005 C 
BRANCH   7   8
ATOM      8  C   UNL d   1      50.606  34.536  52.863  0.00  0.00     0.042 C 
BRANCH   8   9
ATOM      9  C   UNL d   1      51.344  34.254  52.637  0.00  0.00     0.196 C 
ATOM     10  O   UNL d   1      51.464  33.984  51.865  0.00  0.00    -0.287 OA
BRANCH   9  11
ATOM     11  C   UNL d   1      51.967  34.239  53.175  0.00  0.00     0.039 A 
ATOM     12  C   UNL d   1      52.395  34.923  53.336  0.00  0.00     0.003 A 
ATOM     13  C   UNL d   1      53.022  34.893  53.881  0.00  0.00     0.000 A 
ATOM     14  C   UNL d   1      53.217  34.185  54.261  0.00  0.00     0.000 A 
ATOM     15  C   UNL d   1      52.783  33.497  54.096  0.00  0.00     0.000 A 
ATOM     16  C   UNL d   1      52.164  33.524  53.558  0.00  0.00     0.003 A 
ENDBRANCH   9  11
ENDBRANCH   8   9
ENDBRANCH   7   8
ENDBRANCH   3   7
BRANCH   1  17
ATOM     17  O   UNL d   1      48.809  34.695  51.181  0.00  0.00    -0.328 OA
ATOM     18  C   UNL d   1      48.165  34.616  50.672  0.00  0.00     0.181 C 
ENDBRANCH   1  17
BRANCH   5  19
ATOM     19  O   UNL d   1      47.251  36.271  52.993  0.00  0.00    -0.328 OA
ATOM     20  C   UNL d   1      47.157  36.629  53.731  0.00  0.00     0.181 C 
ENDBRANCH   5  19
TORSDOF 6
ENDMDL
MODEL 8
REMARK VINA RESULT:      -6.0      1.442      4.372
REMARK  6 active torsions:
REMARK  status: ('A' for Active; 'I' for Inactive)
REMARK    1  A    between atoms: C_2  and  C_1 
REMARK    2  A    between atoms: C_4  and  C_1 
REMARK    3  A    between atoms: C_6  and  C_2 
REMARK    4  A    between atoms: O_12  and  C_3 
REMARK    5  A    between atoms: C_8  and  C_4 
REMARK    6  A    between atoms: O_13  and  C_10 
ROOT
ATOM      1  C   UNL d   1      51.377  32.907  53.032  0.00  0.00     0.096 A 
ATOM      2  C   UNL d   1      50.651  33.273  52.893  0.00  0.00     0.048 A 
ATOM      3  C   UNL d   1      52.078  33.331  52.929  0.00  0.00     0.022 A 
ATOM      4  C   UNL d   1      52.056  34.121  52.686  0.00  0.00     0.004 A 
ATOM      5  C   UNL d   1      50.625  34.063  52.650  0.00  0.00     0.096 A 
ATOM      6  C   UNL d   1      51.330  34.487  52.546  0.00  0.00     0.024 A 
ENDROOT
BRANCH   3   7
ATOM      7  C   UNL d   1      52.803  32.965  53.068  0.00  0.00     0.005 C 
BRANCH   7   8
ATOM      8  C   UNL d   1      53.400  33.372  53.467  0.00  0.00     0.042 C 
BRANCH   8   9
ATOM      9  C   UNL d   1      54.078  32.984  53.721  0.00  0.00     0.196 C 
ATOM     10  O   UNL d   1      54.357  32.325  53.306  0.00  0.00    -0.287 OA
BRANCH   9  11
ATOM     11  C   UNL d   1      54.484  33.247  54.386  0.00  0.00     0.039 A 
ATOM     12  C   UNL d   1      54.235  33.028  55.139  0.00  0.00     0.003 A 
ATOM     13  C   UNL d   1      54.655  33.301  55.803  0.00  0.00     0.000 A 
ATOM     14  C   UNL d   1      55.316  33.788  55.713  0.00  0.00     0.000 A 
ATOM     15  C   UNL d   1      55.564  34.007  54.951  0.00  0.00     0.000 A 
ATOM     16  C   UNL d   1      55.152  33.739  54.295  0.00  0.00     0.003 A 
ENDBRANCH   9  11
ENDBRANCH   8   9
ENDBRANCH   7   8
ENDBRANCH   3   7
BRANCH   1  17
ATOM     17  O   UNL d   1      51.403  32.117  53.276  0.00  0.00    -0.328 OA
ATOM     18  C   UNL d   1      50.723  31.652  53.239  0.00  0.00     0.181 C 
ENDBRANCH   1  17
BRANCH   5  19
ATOM     19  O   UNL d   1      49.899  34.430  52.511  0.00  0.00    -0.328 OA
ATOM     20  C   UNL d   1      49.620  35.007  53.031  0.00  0.00     0.181 C 
ENDBRANCH   5  19
TORSDOF 6
ENDMDL
MODEL 9
REMARK VINA RESULT:      -5.7      1.791      4.544
REMARK  6 active torsions:
REMARK  status: ('A' for Active; 'I' for Inactive)
REMARK    1  A    between atoms: C_2  and  C_1 
REMARK    2  A    between atoms: C_4  and  C_1 
REMARK    3  A    between atoms: C_6  and  C_2 
REMARK    4  A    between atoms: O_12  and  C_3 
REMARK    5  A    between atoms: C_8  and  C_4 
REMARK    6  A    between atoms: O_13  and  C_10 
ROOT
ATOM      1  C   UNL d   1      49.989  34.780  52.910  0.00  0.00     0.096 A 
ATOM      2  C   UNL d   1      49.387  34.646  52.363  0.00  0.00     0.048 A 
ATOM      3  C   UNL d   1      50.758  34.529  52.745  0.00  0.00     0.022 A 
ATOM      4  C   UNL d   1      50.927  34.144  52.033  0.00  0.00     0.004 A 
ATOM      5  C   UNL d   1      49.552  34.261  51.650  0.00  0.00     0.096 A 
ATOM      6  C   UNL d   1      50.325  34.010  51.485  0.00  0.00     0.024 A 
ENDROOT
BRANCH   3   7
ATOM      7  C   UNL d   1      51.359  34.663  53.292  0.00  0.00     0.005 C 
BRANCH   7   8
ATOM      8  C   UNL d   1      52.054  34.218  53.257  0.00  0.00     0.042 C 
BRANCH   8   9
ATOM      9  C   UNL d   1      52.712  34.428  53.702  0.00  0.00     0.196 C 
ATOM     10  O   UNL d   1      52.840  35.220  53.901  0.00  0.00    -0.287 OA
BRANCH   9  11
ATOM     11  C   UNL d   1      53.246  33.854  53.952  0.00  0.00     0.039 A 
ATOM     12  C   UNL d   1      53.473  33.813  54.743  0.00  0.00     0.003 A 
ATOM     13  C   UNL d   1      54.014  33.227  54.981  0.00  0.00     0.000 A 
ATOM     14  C   UNL d   1      54.322  32.690  54.434  0.00  0.00     0.000 A 
ATOM     15  C   UNL d   1      54.091  32.735  53.638  0.00  0.00     0.000 A 
ATOM     16  C   UNL d   1      53.558  33.311  53.400  0.00  0.00     0.003 A 
ENDBRANCH   9  11
ENDBRANCH   8   9
ENDBRANCH   7   8
ENDBRANCH   3   7
BRANCH   1  17
ATOM     17  O   UNL d   1      49.823  35.164  53.623  0.00  0.00    -0.328 OA
ATOM     18  C   UNL d   1      49.113  35.573  53.716  0.00  0.00     0.181 C 
ENDBRANCH   1  17
BRANCH   5  19
ATOM     19  O   UNL d   1      48.950  34.127  51.103  0.00  0.00    -0.328 OA
ATOM     20  C   UNL d   1      48.633  34.756  50.673  0.00  0.00     0.181 C 
ENDBRANCH   5  19
TORSDOF 6
ENDMDL
