MODEL 1
REMARK VINA RESULT:     106.3      0.000      0.000
REMARK  5 active torsions:
REMARK  status: ('A' for Active; 'I' for Inactive)
REMARK    1  A    between atoms: N_2  and  S_1 
REMARK    2  A    between atoms: C_10  and  S_1 
REMARK    3  A    between atoms: C_4  and  C_3 
REMARK       I    between atoms: N_5  and  C_4 
REMARK    4  A    between atoms: C_6  and  N_5 
REMARK    5  A    between atoms: O_24  and  C_21 
ROOT
ATOM      1  N   UNL d   1      59.106  49.077  50.710  0.00  0.00    -0.226 N 
ATOM      2  C   UNL d   1      59.192  48.558  50.060  0.00  0.00     0.133 A 
ATOM      3  C   UNL d   1      58.389  49.458  50.840  0.00  0.00     0.092 A 
ATOM      4  C   UNL d   1      58.559  48.426  49.547  0.00  0.00     0.023 A 
ATOM      5  C   UNL d   1      57.752  49.330  50.330  0.00  0.00     0.018 A 
ATOM      6  C   UNL d   1      57.841  48.811  49.681  0.00  0.00     0.003 A 
ATOM      7  C   UNL d   1      57.035  49.708  50.457  0.00  0.00     0.002 A 
ATOM      8  C   UNL d   1      57.204  48.683  49.171  0.00  0.00     0.000 A 
ATOM      9  C   UNL d   1      56.406  49.578  49.949  0.00  0.00     0.000 A 
ATOM     10  C   UNL d   1      56.490  49.069  49.309  0.00  0.00     0.000 A 
ENDROOT
BRANCH   1  11
ATOM     11  S   UNL d   1      59.753  49.203  51.223  0.00  0.00     0.271 S 
ATOM     12  O   UNL d   1      60.133  49.616  50.627  0.00  0.00    -0.200 OA
ATOM     13  O   UNL d   1      59.363  48.788  51.808  0.00  0.00    -0.200 OA
BRANCH  11  14
ATOM     14  C   UNL d   1      60.390  49.328  51.724  0.00  0.00     0.104 A 
ATOM     15  C   UNL d   1      61.116  49.574  51.413  0.00  0.00     0.015 A 
ATOM     16  C   UNL d   1      61.752  49.699  51.915  0.00  0.00     0.025 A 
ATOM     17  C   UNL d   1      61.673  49.581  52.729  0.00  0.00     0.094 A 
ATOM     18  C   UNL d   1      60.947  49.336  53.032  0.00  0.00     0.025 A 
ATOM     19  C   UNL d   1      60.301  49.208  52.532  0.00  0.00     0.015 A 
BRANCH  17  20
ATOM     20  O   UNL d   1      62.309  49.706  53.231  0.00  0.00    -0.328 OA
ATOM     21  C   UNL d   1      62.954  49.188  53.213  0.00  0.00     0.181 C 
ENDBRANCH  17  20
ENDBRANCH  11  14
ENDBRANCH   1  11
BRANCH   2  22
ATOM     22  C   UNL d   1      59.918  48.176  49.932  0.00  0.00     0.298 C 
ATOM     23  N   UNL d   1      59.971  47.360  50.030  0.00  0.00    -0.181 NA
ATOM     24  O   UNL d   1      60.581  48.616  49.706  0.00  0.00    -0.264 OA
BRANCH  23  25
ATOM     25  C   UNL d   1      60.689  46.977  49.905  0.00  0.00     0.197 A 
ATOM     26  N   UNL d   1      61.437  47.180  49.421  0.00  0.00    -0.219 NA
ATOM     27  C   UNL d   1      62.017  46.516  49.527  0.00  0.00     0.108 A 
ATOM     28  C   UNL d   1      61.647  45.896  50.071  0.00  0.00     0.059 A 
ATOM     29  S   UNL d   1      60.827  46.178  50.305  0.00  0.00    -0.046 SA
ENDBRANCH  23  25
ENDBRANCH   2  22
TORSDOF 5
ENDMDL
MODEL 2
REMARK VINA RESULT:     107.8      1.211      2.913
REMARK  5 active torsions:
REMARK  status: ('A' for Active; 'I' for Inactive)
REMARK    1  A    between atoms: N_2  and  S_1 
REMARK    2  A    between atoms: C_10  and  S_1 
REMARK    3  A    between atoms: C_4  and  C_3 
REMARK       I    between atoms: N_5  and  C_4 
REMARK    4  A    between atoms: C_6  and  N_5 
REMARK    5  A    between atoms: O_24  and  C_21 
ROOT
ATOM      1  N   UNL d   1      59.202  48.413  50.417  0.00  0.00    -0.226 N 
ATOM      2  C   UNL d   1      59.202  49.075  50.928  0.00  0.00     0.133 A 
ATOM      3  C   UNL d   1      58.509  48.189  50.035  0.00  0.00     0.092 A 
ATOM      4  C   UNL d   1      58.510  49.506  51.050  0.00  0.00     0.023 A 
ATOM      5  C   UNL d   1      57.812  48.617  50.153  0.00  0.00     0.018 A 
ATOM      6  C   UNL d   1      57.816  49.279  50.664  0.00  0.00     0.003 A 
ATOM      7  C   UNL d   1      57.119  48.397  49.773  0.00  0.00     0.002 A 
ATOM      8  C   UNL d   1      57.119  49.707  50.783  0.00  0.00     0.000 A 
ATOM      9  C   UNL d   1      56.430  48.824  49.894  0.00  0.00     0.000 A 
ATOM     10  C   UNL d   1      56.431  49.475  50.396  0.00  0.00     0.000 A 
ENDROOT
BRANCH   1  11
ATOM     11  S   UNL d   1      59.908  47.984  50.301  0.00  0.00     0.271 S 
ATOM     12  O   UNL d   1      60.233  48.637  49.931  0.00  0.00    -0.200 OA
ATOM     13  O   UNL d   1      59.572  47.339  50.672  0.00  0.00    -0.200 OA
BRANCH  11  14
ATOM     14  C   UNL d   1      60.603  47.565  50.185  0.00  0.00     0.104 A 
ATOM     15  C   UNL d   1      61.231  47.914  49.774  0.00  0.00     0.015 A 
ATOM     16  C   UNL d   1      61.926  47.494  49.659  0.00  0.00     0.025 A 
ATOM     17  C   UNL d   1      62.003  46.725  49.950  0.00  0.00     0.094 A 
ATOM     18  C   UNL d   1      61.375  46.383  50.358  0.00  0.00     0.025 A 
ATOM     19  C   UNL d   1      60.671  46.800  50.478  0.00  0.00     0.015 A 
BRANCH  17  20
ATOM     20  O   UNL d   1      62.698  46.305  49.834  0.00  0.00    -0.328 OA
ATOM     21  C   UNL d   1      62.702  45.647  49.332  0.00  0.00     0.181 C 
ENDBRANCH  17  20
ENDBRANCH  11  14
ENDBRANCH   1  11
BRANCH   2  22
ATOM     22  C   UNL d   1      59.904  49.297  51.312  0.00  0.00     0.298 C 
ATOM     23  N   UNL d   1      60.007  49.116  52.108  0.00  0.00    -0.181 NA
ATOM     24  O   UNL d   1      60.494  49.699  50.893  0.00  0.00    -0.264 OA
BRANCH  23  25
ATOM     25  C   UNL d   1      60.702  49.334  52.493  0.00  0.00     0.197 A 
ATOM     26  N   UNL d   1      61.560  49.476  52.215  0.00  0.00    -0.219 NA
ATOM     27  C   UNL d   1      62.042  49.703  52.925  0.00  0.00     0.108 A 
ATOM     28  C   UNL d   1      61.501  49.706  53.649  0.00  0.00     0.059 A 
ATOM     29  S   UNL d   1      60.673  49.479  53.385  0.00  0.00    -0.046 SA
ENDBRANCH  23  25
ENDBRANCH   2  22
TORSDOF 5
ENDMDL
