MODEL 1
REMARK VINA RESULT:      19.1      0.000      0.000
REMARK  3 active torsions:
REMARK  status: ('A' for Active; 'I' for Inactive)
REMARK    1  A    between atoms: N_5  and  C_1 
REMARK       I    between atoms: C_6  and  N_5 
REMARK    2  A    between atoms: C_8  and  C_6 
REMARK    3  A    between atoms: O_16  and  C_12 
ROOT
ATOM      1  C   UNL d   1      46.347 -17.752  44.018  0.00  0.00     0.124 A 
ATOM      2  C   UNL d   1      46.407 -18.269  43.394  0.00  0.00     0.093 A 
ATOM      3  S   UNL d   1      46.265 -18.167  44.719  0.00  0.00    -0.067 SA
ATOM      4  C   UNL d   1      46.365 -19.036  43.680  0.00  0.00     0.018 A 
ATOM      5  C   UNL d   1      46.273 -18.971  44.534  0.00  0.00     0.032 A 
ATOM      6  C   UNL d   1      46.501 -18.061  42.552  0.00  0.00     0.103 C 
ATOM      7  N   UNL d   1      46.591 -17.852  41.752  0.00  0.00    -0.191 NA
ATOM      8  C   UNL d   1      46.372 -19.839  43.510  0.00  0.00     0.001 A 
ATOM      9  C   UNL d   1      46.230 -19.738  44.836  0.00  0.00     0.006 A 
ATOM     10  C   UNL d   1      46.290 -20.263  44.204  0.00  0.00     0.001 A 
ENDROOT
BRANCH   1  11
ATOM     11  N   UNL d   1      46.366 -16.893  43.954  0.00  0.00    -0.201 NA
ATOM     12  C   UNL d   1      45.853 -16.453  44.410  0.00  0.00     0.281 C 
ATOM     13  O   UNL d   1      45.299 -16.796  44.945  0.00  0.00    -0.265 OA
BRANCH  12  14
ATOM     14  C   UNL d   1      45.872 -15.619  44.348  0.00  0.00     0.080 A 
ATOM     15  C   UNL d   1      45.186 -15.150  44.584  0.00  0.00     0.099 A 
ATOM     16  C   UNL d   1      45.205 -14.333  44.524  0.00  0.00     0.024 A 
ATOM     17  C   UNL d   1      45.908 -13.975  44.226  0.00  0.00     0.002 A 
ATOM     18  C   UNL d   1      46.535 -14.360  44.007  0.00  0.00     0.000 A 
ATOM     19  C   UNL d   1      46.547 -15.220  44.059  0.00  0.00     0.007 A 
BRANCH  15  20
ATOM     20  O   UNL d   1      44.489 -15.508  44.880  0.00  0.00    -0.328 OA
ATOM     21  C   UNL d   1      43.780 -15.082  44.949  0.00  0.00     0.181 C 
ENDBRANCH  15  20
ENDBRANCH  12  14
ENDBRANCH   1  11
TORSDOF 3
ENDMDL
MODEL 2
REMARK VINA RESULT:      21.0      1.322      4.312
REMARK  3 active torsions:
REMARK  status: ('A' for Active; 'I' for Inactive)
REMARK    1  A    between atoms: N_5  and  C_1 
REMARK       I    between atoms: C_6  and  N_5 
REMARK    2  A    between atoms: C_8  and  C_6 
REMARK    3  A    between atoms: O_16  and  C_12 
ROOT
ATOM      1  C   UNL d   1      45.794 -15.757  44.605  0.00  0.00     0.124 A 
ATOM      2  C   UNL d   1      45.129 -15.295  44.670  0.00  0.00     0.093 A 
ATOM      3  S   UNL d   1      46.451 -15.286  44.468  0.00  0.00    -0.067 SA
ATOM      4  C   UNL d   1      45.342 -14.509  44.575  0.00  0.00     0.018 A 
ATOM      5  C   UNL d   1      46.193 -14.503  44.445  0.00  0.00     0.032 A 
ATOM      6  C   UNL d   1      44.315 -15.571  44.815  0.00  0.00     0.103 C 
ATOM      7  N   UNL d   1      43.542 -15.845  44.955  0.00  0.00    -0.191 NA
ATOM      8  C   UNL d   1      45.100 -13.725  44.549  0.00  0.00     0.001 A 
ATOM      9  C   UNL d   1      46.422 -13.716  44.348  0.00  0.00     0.006 A 
ATOM     10  C   UNL d   1      45.748 -13.246  44.413  0.00  0.00     0.001 A 
ENDROOT
BRANCH   1  11
ATOM     11  N   UNL d   1      45.810 -16.615  44.671  0.00  0.00    -0.201 NA
ATOM     12  C   UNL d   1      46.212 -17.046  44.107  0.00  0.00     0.281 C 
ATOM     13  O   UNL d   1      46.617 -16.693  43.457  0.00  0.00    -0.265 OA
BRANCH  12  14
ATOM     14  C   UNL d   1      46.228 -17.880  44.171  0.00  0.00     0.080 A 
ATOM     15  C   UNL d   1      46.331 -18.368  43.466  0.00  0.00     0.099 A 
ATOM     16  C   UNL d   1      46.346 -19.185  43.529  0.00  0.00     0.024 A 
ATOM     17  C   UNL d   1      46.258 -19.524  44.297  0.00  0.00     0.002 A 
ATOM     18  C   UNL d   1      46.165 -19.122  44.943  0.00  0.00     0.000 A 
ATOM     19  C   UNL d   1      46.144 -18.261  44.910  0.00  0.00     0.007 A 
BRANCH  15  20
ATOM     20  O   UNL d   1      46.418 -18.029  42.705  0.00  0.00    -0.328 OA
ATOM     21  C   UNL d   1      46.605 -18.494  42.044  0.00  0.00     0.181 C 
ENDBRANCH  15  20
ENDBRANCH  12  14
ENDBRANCH   1  11
TORSDOF 3
ENDMDL
