MODEL 1
REMARK VINA RESULT:      -8.3      0.000      0.000
REMARK  4 active torsions:
REMARK  status: ('A' for Active; 'I' for Inactive)
REMARK    1  A    between atoms: S_5  and  C_3 
REMARK    2  A    between atoms: C_12  and  S_5 
REMARK    3  A    between atoms: C_23  and  N_6 
REMARK    4  A    between atoms: C_28  and  C_23 
ROOT
ATOM      1  C   UNL d   1     -48.450  13.310  23.079  0.00  0.00     0.155 A 
ATOM      2  C   UNL d   1     -48.188  12.539  23.022  0.00  0.00     0.092 A 
ATOM      3  C   UNL d   1     -46.887  13.001  22.716  0.00  0.00     0.124 A 
ATOM      4  N   UNL d   1     -49.239  13.464  23.263  0.00  0.00    -0.210 NA
ATOM      5  N   UNL d   1     -47.938  13.925  22.956  0.00  0.00    -0.273 N 
ATOM      6  C   UNL d   1     -47.152  13.780  22.773  0.00  0.00     0.181 A 
ATOM      7  C   UNL d   1     -48.707  11.916  23.147  0.00  0.00     0.269 A 
ATOM      8  N   UNL d   1     -49.492  12.072  23.330  0.00  0.00    -0.258 N 
ATOM      9  C   UNL d   1     -47.408  12.382  22.841  0.00  0.00     0.022 A 
ATOM     10  C   UNL d   1     -49.753  12.852  23.386  0.00  0.00     0.152 A 
ATOM     11  N   UNL d   1     -46.631  14.413  22.648  0.00  0.00    -0.128 N 
ATOM     12  C   UNL d   1     -50.023  11.454  23.457  0.00  0.00     0.084 A 
ATOM     13  O   UNL d   1     -48.444  11.127  23.090  0.00  0.00    -0.266 OA
ATOM     14  C   UNL d   1     -50.541  13.007  23.570  0.00  0.00     0.038 A 
ATOM     15  C   UNL d   1     -50.804  11.611  23.639  0.00  0.00     0.019 A 
ATOM     16  C   UNL d   1     -51.064  12.392  23.695  0.00  0.00     0.005 A 
ENDROOT
BRANCH   3  17
ATOM     17  S   UNL d   1     -46.094  12.848  22.531  0.00  0.00     0.213 S 
ATOM     18  O   UNL d   1     -46.271  12.853  21.716  0.00  0.00    -0.217 OA
ATOM     19  O   UNL d   1     -45.908  12.841  23.338  0.00  0.00    -0.217 OA
BRANCH  17  20
ATOM     20  C   UNL d   1     -45.292  12.694  22.357  0.00  0.00     0.088 A 
ATOM     21  C   UNL d   1     -44.890  13.160  21.805  0.00  0.00     0.014 A 
ATOM     22  C   UNL d   1     -44.087  13.006  21.630  0.00  0.00     0.030 A 
ATOM     23  C   UNL d   1     -43.693  12.384  22.011  0.00  0.00     0.140 A 
ATOM     24  C   UNL d   1     -44.107  11.914  22.571  0.00  0.00     0.030 A 
ATOM     25  F   UNL d   1     -42.896  12.225  21.844  0.00  0.00    -0.204 F 
ATOM     26  C   UNL d   1     -44.904  12.069  22.743  0.00  0.00     0.014 A 
ENDBRANCH  17  20
ENDBRANCH   3  17
BRANCH   5  27
ATOM     27  C   UNL d   1     -48.207  14.718  23.014  0.00  0.00     0.083 C 
BRANCH  27  28
ATOM     28  C   UNL d   1     -48.291  15.176  22.320  0.00  0.00     0.019 C 
ATOM     29  C   UNL d   1     -48.750  15.873  22.325  0.00  0.00     0.002 C 
ENDBRANCH  27  28
ENDBRANCH   5  27
TORSDOF 4
ENDMDL
MODEL 2
REMARK VINA RESULT:      -8.2      1.124      2.336
REMARK  4 active torsions:
REMARK  status: ('A' for Active; 'I' for Inactive)
REMARK    1  A    between atoms: S_5  and  C_3 
REMARK    2  A    between atoms: C_12  and  S_5 
REMARK    3  A    between atoms: C_23  and  N_6 
REMARK    4  A    between atoms: C_28  and  C_23 
ROOT
ATOM      1  C   UNL d   1     -48.619  13.500  23.284  0.00  0.00     0.155 A 
ATOM      2  C   UNL d   1     -48.151  14.092  22.974  0.00  0.00     0.092 A 
ATOM      3  C   UNL d   1     -47.076  13.181  22.851  0.00  0.00     0.124 A 
ATOM      4  N   UNL d   1     -49.397  13.662  23.503  0.00  0.00    -0.210 NA
ATOM      5  N   UNL d   1     -48.322  12.752  23.379  0.00  0.00    -0.273 N 
ATOM      6  C   UNL d   1     -47.549  12.582  23.164  0.00  0.00     0.181 A 
ATOM      7  C   UNL d   1     -48.452  14.849  22.879  0.00  0.00     0.269 A 
ATOM      8  N   UNL d   1     -49.227  15.009  23.097  0.00  0.00    -0.258 N 
ATOM      9  C   UNL d   1     -47.380  13.936  22.757  0.00  0.00     0.022 A 
ATOM     10  C   UNL d   1     -49.697  14.407  23.410  0.00  0.00     0.152 A 
ATOM     11  N   UNL d   1     -47.250  11.815  23.262  0.00  0.00    -0.128 N 
ATOM     12  C   UNL d   1     -49.540  15.765  23.006  0.00  0.00     0.084 A 
ATOM     13  O   UNL d   1     -47.977  15.458  22.563  0.00  0.00    -0.266 OA
ATOM     14  C   UNL d   1     -50.475  14.569  23.629  0.00  0.00     0.038 A 
ATOM     15  C   UNL d   1     -50.312  15.922  23.224  0.00  0.00     0.019 A 
ATOM     16  C   UNL d   1     -50.782  15.320  23.537  0.00  0.00     0.005 A 
ENDROOT
BRANCH   3  17
ATOM     17  S   UNL d   1     -46.295  13.016  22.632  0.00  0.00     0.213 S 
ATOM     18  O   UNL d   1     -46.037  13.138  23.415  0.00  0.00    -0.217 OA
ATOM     19  O   UNL d   1     -46.539  12.893  21.850  0.00  0.00    -0.217 OA
BRANCH  17  20
ATOM     20  C   UNL d   1     -45.510  12.848  22.399  0.00  0.00     0.088 A 
ATOM     21  C   UNL d   1     -45.152  13.287  21.796  0.00  0.00     0.014 A 
ATOM     22  C   UNL d   1     -44.368  13.119  21.564  0.00  0.00     0.030 A 
ATOM     23  C   UNL d   1     -43.946  12.511  21.938  0.00  0.00     0.140 A 
ATOM     24  C   UNL d   1     -44.314  12.070  22.550  0.00  0.00     0.030 A 
ATOM     25  F   UNL d   1     -43.166  12.338  21.713  0.00  0.00    -0.204 F 
ATOM     26  C   UNL d   1     -45.095  12.238  22.779  0.00  0.00     0.014 A 
ENDBRANCH  17  20
ENDBRANCH   3  17
BRANCH   5  27
ATOM     27  C   UNL d   1     -48.803  12.143  23.697  0.00  0.00     0.083 C 
BRANCH  27  28
ATOM     28  C   UNL d   1     -49.118  11.558  23.189  0.00  0.00     0.019 C 
ATOM     29  C   UNL d   1     -49.715  11.040  23.457  0.00  0.00     0.002 C 
ENDBRANCH  27  28
ENDBRANCH   5  27
TORSDOF 4
ENDMDL
MODEL 3
REMARK VINA RESULT:      -5.4      2.431      4.331
REMARK  4 active torsions:
REMARK  status: ('A' for Active; 'I' for Inactive)
REMARK    1  A    between atoms: S_5  and  C_3 
REMARK    2  A    between atoms: C_12  and  S_5 
REMARK    3  A    between atoms: C_23  and  N_6 
REMARK    4  A    between atoms: C_28  and  C_23 
ROOT
ATOM      1  C   UNL d   1     -46.112  12.639  22.987  0.00  0.00     0.155 A 
ATOM      2  C   UNL d   1     -46.823  12.269  23.141  0.00  0.00     0.092 A 
ATOM      3  C   UNL d   1     -47.513  13.472  22.864  0.00  0.00     0.124 A 
ATOM      4  N   UNL d   1     -45.406  12.218  23.049  0.00  0.00    -0.210 NA
ATOM      5  N   UNL d   1     -46.098  13.421  22.772  0.00  0.00    -0.273 N 
ATOM      6  C   UNL d   1     -46.795  13.847  22.708  0.00  0.00     0.181 A 
ATOM      7  C   UNL d   1     -46.838  11.478  23.359  0.00  0.00     0.269 A 
ATOM      8  N   UNL d   1     -46.134  11.061  23.420  0.00  0.00    -0.258 N 
ATOM      9  C   UNL d   1     -47.525  12.682  23.081  0.00  0.00     0.022 A 
ATOM     10  C   UNL d   1     -45.418  11.439  23.263  0.00  0.00     0.152 A 
ATOM     11  N   UNL d   1     -46.775  14.646  22.488  0.00  0.00    -0.128 N 
ATOM     12  C   UNL d   1     -46.136  10.266  23.637  0.00  0.00     0.084 A 
ATOM     13  O   UNL d   1     -47.562  11.095  23.517  0.00  0.00    -0.266 OA
ATOM     14  C   UNL d   1     -44.712  11.018  23.325  0.00  0.00     0.038 A 
ATOM     15  C   UNL d   1     -45.434   9.852  23.698  0.00  0.00     0.019 A 
ATOM     16  C   UNL d   1     -44.718  10.230  23.541  0.00  0.00     0.005 A 
ENDROOT
BRANCH   3  17
ATOM     17  S   UNL d   1     -48.222  13.897  22.802  0.00  0.00     0.213 S 
ATOM     18  O   UNL d   1     -48.349  13.594  22.035  0.00  0.00    -0.217 OA
ATOM     19  O   UNL d   1     -48.106  14.203  23.562  0.00  0.00    -0.217 OA
BRANCH  17  20
ATOM     20  C   UNL d   1     -48.934  14.330  22.749  0.00  0.00     0.088 A 
ATOM     21  C   UNL d   1     -49.145  14.857  23.351  0.00  0.00     0.014 A 
ATOM     22  C   UNL d   1     -49.858  15.290  23.299  0.00  0.00     0.030 A 
ATOM     23  C   UNL d   1     -50.355  15.192  22.643  0.00  0.00     0.140 A 
ATOM     24  C   UNL d   1     -50.135  14.655  22.035  0.00  0.00     0.030 A 
ATOM     25  F   UNL d   1     -51.064  15.618  22.584  0.00  0.00    -0.204 F 
ATOM     26  C   UNL d   1     -49.427  14.225  22.089  0.00  0.00     0.014 A 
ENDBRANCH  17  20
ENDBRANCH   3  17
BRANCH   5  27
ATOM     27  C   UNL d   1     -45.367  13.802  22.613  0.00  0.00     0.083 C 
BRANCH  27  28
ATOM     28  C   UNL d   1     -45.007  13.705  21.865  0.00  0.00     0.019 C 
ATOM     29  C   UNL d   1     -44.239  14.001  21.723  0.00  0.00     0.002 C 
ENDBRANCH  27  28
ENDBRANCH   5  27
TORSDOF 4
ENDMDL
