MODEL 1
REMARK VINA RESULT:      -6.3      0.000      0.000
REMARK  13 active torsions:
REMARK  status: ('A' for Active; 'I' for Inactive)
REMARK    1  A    between atoms: C_21  and  N_1 
REMARK    2  A    between atoms: C_7  and  N_3 
REMARK    3  A    between atoms: C_8  and  C_7 
REMARK       I    between atoms: N_12  and  C_8 
REMARK    4  A    between atoms: C_11  and  C_22 
REMARK    5  A    between atoms: C_26  and  N_12 
REMARK    6  A    between atoms: C_27  and  N_12 
REMARK    7  A    between atoms: C_13  and  C_25 
REMARK       I    between atoms: N_15  and  C_13 
REMARK    8  A    between atoms: C_22  and  N_15 
REMARK    9  A    between atoms: C_28  and  C_21 
REMARK   10  A    between atoms: C_25  and  C_31 
REMARK   11  A    between atoms: C_29  and  C_26 
REMARK   12  A    between atoms: C_30  and  C_27 
REMARK   13  A    between atoms: C_31  and  C_28 
ROOT
ATOM      1  N   UNL d   1     -41.022  13.867  20.683  0.00  0.00    -0.226 N 
ATOM      2  C   UNL d   1     -40.983  14.068  19.884  0.00  0.00     0.342 A 
ATOM      3  N   UNL d   1     -40.434  14.637  19.628  0.00  0.00    -0.254 N 
ATOM      4  C   UNL d   1     -40.512  14.234  21.226  0.00  0.00     0.270 A 
ATOM      5  C   UNL d   1     -39.969  14.796  20.969  0.00  0.00     0.073 A 
ATOM      6  C   UNL d   1     -39.930  14.998  20.170  0.00  0.00     0.073 A 
ATOM      7  O   UNL d   1     -41.490  13.705  19.337  0.00  0.00    -0.245 OA
ATOM      8  O   UNL d   1     -40.551  14.032  22.025  0.00  0.00    -0.266 OA
ATOM      9  C   UNL d   1     -39.465  15.158  21.510  0.00  0.00     0.006 A 
ATOM     10  C   UNL d   1     -39.387  15.561  19.912  0.00  0.00     0.018 A 
ATOM     11  C   UNL d   1     -38.922  15.720  21.253  0.00  0.00     0.000 A 
ATOM     12  C   UNL d   1     -38.883  15.922  20.454  0.00  0.00     0.002 A 
ENDROOT
BRANCH   1  13
ATOM     13  C   UNL d   1     -41.568  13.301  20.940  0.00  0.00     0.087 C 
BRANCH  13  14
ATOM     14  C   UNL d   1     -42.346  13.518  21.109  0.00  0.00     0.019 C 
BRANCH  14  15
ATOM     15  C   UNL d   1     -42.862  12.985  21.468  0.00  0.00     0.006 C 
BRANCH  15  16
ATOM     16  C   UNL d   1     -43.675  13.005  21.288  0.00  0.00     0.063 C 
BRANCH  16  17
ATOM     17  C   UNL d   1     -44.227  12.758  21.846  0.00  0.00     0.279 C 
ATOM     18  N   UNL d   1     -44.932  13.176  21.944  0.00  0.00    -0.204 NA
ATOM     19  O   UNL d   1     -44.076  12.089  22.309  0.00  0.00    -0.265 OA
BRANCH  18  20
ATOM     20  C   UNL d   1     -45.483  12.928  22.502  0.00  0.00     0.127 C 
BRANCH  20  21
ATOM     21  C   UNL d   1     -46.217  13.311  22.559  0.00  0.00     0.119 A 
ATOM     22  O   UNL d   1     -46.932  13.035  22.238  0.00  0.00    -0.304 OA
ATOM     23  C   UNL d   1     -47.523  13.592  22.428  0.00  0.00     0.123 A 
ATOM     24  C   UNL d   1     -47.170  14.203  22.862  0.00  0.00     0.029 A 
ATOM     25  C   UNL d   1     -46.363  14.030  22.943  0.00  0.00     0.028 A 
ENDBRANCH  20  21
ENDBRANCH  18  20
ENDBRANCH  16  17
ENDBRANCH  15  16
ENDBRANCH  14  15
ENDBRANCH  13  14
ENDBRANCH   1  13
BRANCH   3  26
ATOM     26  C   UNL d   1     -40.395  14.838  18.829  0.00  0.00     0.146 C 
BRANCH  26  27
ATOM     27  C   UNL d   1     -40.007  14.343  18.297  0.00  0.00     0.283 C 
ATOM     28  N   UNL d   1     -39.962  14.549  17.496  0.00  0.00    -0.271 N 
ATOM     29  O   UNL d   1     -39.666  13.643  18.563  0.00  0.00    -0.265 OA
BRANCH  28  30
ATOM     30  C   UNL d   1     -39.575  14.054  16.964  0.00  0.00     0.083 C 
BRANCH  30  31
ATOM     31  C   UNL d   1     -38.848  14.278  16.644  0.00  0.00     0.019 C 
ATOM     32  C   UNL d   1     -38.454  13.776  16.124  0.00  0.00     0.002 C 
ENDBRANCH  30  31
ENDBRANCH  28  30
BRANCH  28  33
ATOM     33  C   UNL d   1     -40.304  15.249  17.229  0.00  0.00     0.083 C 
BRANCH  33  34
ATOM     34  C   UNL d   1     -40.995  15.223  16.783  0.00  0.00     0.019 C 
ATOM     35  C   UNL d   1     -41.315  15.922  16.476  0.00  0.00     0.002 C 
ENDBRANCH  33  34
ENDBRANCH  28  33
ENDBRANCH  26  27
ENDBRANCH   3  26
TORSDOF 13
ENDMDL
MODEL 2
REMARK VINA RESULT:      -5.6      2.021      8.104
REMARK  13 active torsions:
REMARK  status: ('A' for Active; 'I' for Inactive)
REMARK    1  A    between atoms: C_21  and  N_1 
REMARK    2  A    between atoms: C_7  and  N_3 
REMARK    3  A    between atoms: C_8  and  C_7 
REMARK       I    between atoms: N_12  and  C_8 
REMARK    4  A    between atoms: C_11  and  C_22 
REMARK    5  A    between atoms: C_26  and  N_12 
REMARK    6  A    between atoms: C_27  and  N_12 
REMARK    7  A    between atoms: C_13  and  C_25 
REMARK       I    between atoms: N_15  and  C_13 
REMARK    8  A    between atoms: C_22  and  N_15 
REMARK    9  A    between atoms: C_28  and  C_21 
REMARK   10  A    between atoms: C_25  and  C_31 
REMARK   11  A    between atoms: C_29  and  C_26 
REMARK   12  A    between atoms: C_30  and  C_27 
REMARK   13  A    between atoms: C_31  and  C_28 
ROOT
ATOM      1  N   UNL d   1     -46.279  13.133  22.824  0.00  0.00    -0.226 N 
ATOM      2  C   UNL d   1     -46.925  13.645  22.786  0.00  0.00     0.342 A 
ATOM      3  N   UNL d   1     -47.683  13.370  22.985  0.00  0.00    -0.254 N 
ATOM      4  C   UNL d   1     -46.392  12.346  23.062  0.00  0.00     0.270 A 
ATOM      5  C   UNL d   1     -47.144  12.076  23.259  0.00  0.00     0.073 A 
ATOM      6  C   UNL d   1     -47.789  12.588  23.221  0.00  0.00     0.073 A 
ATOM      7  O   UNL d   1     -46.819  14.433  22.549  0.00  0.00    -0.245 OA
ATOM      8  O   UNL d   1     -45.746  11.834  23.101  0.00  0.00    -0.266 OA
ATOM      9  C   UNL d   1     -47.251  11.295  23.495  0.00  0.00     0.006 A 
ATOM     10  C   UNL d   1     -48.543  12.319  23.418  0.00  0.00     0.018 A 
ATOM     11  C   UNL d   1     -48.003  11.025  23.692  0.00  0.00     0.000 A 
ATOM     12  C   UNL d   1     -48.649  11.537  23.653  0.00  0.00     0.002 A 
ENDROOT
BRANCH   1  13
ATOM     13  C   UNL d   1     -45.524  13.406  22.626  0.00  0.00     0.087 C 
BRANCH  13  14
ATOM     14  C   UNL d   1     -45.078  13.019  22.051  0.00  0.00     0.019 C 
BRANCH  14  15
ATOM     15  C   UNL d   1     -44.341  13.311  21.824  0.00  0.00     0.006 C 
BRANCH  15  16
ATOM     16  C   UNL d   1     -43.871  12.885  21.284  0.00  0.00     0.063 C 
BRANCH  16  17
ATOM     17  C   UNL d   1     -43.054  12.857  21.378  0.00  0.00     0.279 C 
ATOM     18  N   UNL d   1     -42.570  13.363  20.942  0.00  0.00    -0.204 NA
ATOM     19  O   UNL d   1     -42.719  12.322  21.912  0.00  0.00    -0.265 OA
BRANCH  18  20
ATOM     20  C   UNL d   1     -41.753  13.334  21.038  0.00  0.00     0.127 C 
BRANCH  20  21
ATOM     21  C   UNL d   1     -41.265  13.837  20.594  0.00  0.00     0.119 A 
ATOM     22  O   UNL d   1     -41.194  13.834  19.766  0.00  0.00    -0.304 OA
ATOM     23  C   UNL d   1     -40.646  14.428  19.560  0.00  0.00     0.123 A 
ATOM     24  C   UNL d   1     -40.385  14.791  20.258  0.00  0.00     0.029 A 
ATOM     25  C   UNL d   1     -40.767  14.426  20.897  0.00  0.00     0.028 A 
ENDBRANCH  20  21
ENDBRANCH  18  20
ENDBRANCH  16  17
ENDBRANCH  15  16
ENDBRANCH  14  15
ENDBRANCH  13  14
ENDBRANCH   1  13
BRANCH   3  26
ATOM     26  C   UNL d   1     -48.329  13.882  22.947  0.00  0.00     0.146 C 
BRANCH  26  27
ATOM     27  C   UNL d   1     -48.768  13.940  22.252  0.00  0.00     0.283 C 
ATOM     28  N   UNL d   1     -49.482  14.361  22.247  0.00  0.00    -0.271 N 
ATOM     29  O   UNL d   1     -48.497  13.578  21.565  0.00  0.00    -0.265 OA
BRANCH  28  30
ATOM     30  C   UNL d   1     -49.922  14.420  21.554  0.00  0.00     0.083 C 
BRANCH  30  31
ATOM     31  C   UNL d   1     -50.704  14.158  21.536  0.00  0.00     0.019 C 
ATOM     32  C   UNL d   1     -50.968  13.689  20.913  0.00  0.00     0.002 C 
ENDBRANCH  30  31
ENDBRANCH  28  30
BRANCH  28  33
ATOM     33  C   UNL d   1     -49.753  14.723  22.936  0.00  0.00     0.083 C 
BRANCH  33  34
ATOM     34  C   UNL d   1     -49.773  15.544  22.986  0.00  0.00     0.019 C 
ATOM     35  C   UNL d   1     -49.992  15.910  23.695  0.00  0.00     0.002 C 
ENDBRANCH  33  34
ENDBRANCH  28  33
ENDBRANCH  26  27
ENDBRANCH   3  26
TORSDOF 13
ENDMDL
