MODEL 1
REMARK VINA RESULT:      71.3      0.000      0.000
REMARK  5 active torsions:
REMARK  status: ('A' for Active; 'I' for Inactive)
REMARK    1  A    between atoms: C_22  and  N_10 
REMARK    2  A    between atoms: C_19  and  N_13 
REMARK    3  A    between atoms: N_14  and  C_26 
REMARK    4  A    between atoms: C_25  and  C_22 
REMARK    5  A    between atoms: C_26  and  C_25 
ROOT
ATOM      1  C   UNL d   1      14.368  12.863  -1.951  0.00  0.00     0.173 A 
ATOM      2  C   UNL d   1      14.239  13.611  -2.210  0.00  0.00     0.191 A 
ATOM      3  C   UNL d   1      13.688  13.117  -3.423  0.00  0.00     0.722 A 
ATOM      4  N   UNL d   1      13.816  12.343  -3.166  0.00  0.00    -0.131 N 
ATOM      5  N   UNL d   1      13.900  13.750  -2.946  0.00  0.00    -0.042 NA
ATOM      6  N   UNL d   1      14.445  14.252  -1.746  0.00  0.00    -0.240 N 
ATOM      7  N   UNL d   1      14.918  13.307  -0.742  0.00  0.00    -0.223 N 
ATOM      8  C   UNL d   1      14.786  14.102  -1.007  0.00  0.00     0.343 A 
ATOM      9  C   UNL d   1      14.704  12.682  -1.224  0.00  0.00     0.288 A 
ATOM     10  N   UNL d   1      13.346  13.253  -4.164  0.00  0.00    -0.139 N 
ATOM     11  C   UNL d   1      13.261  11.845  -4.388  0.00  0.00     0.116 A 
ATOM     12  C   UNL d   1      13.133  12.619  -4.645  0.00  0.00     0.100 A 
ATOM     13  O   UNL d   1      14.995  14.782  -0.534  0.00  0.00    -0.245 OA
ATOM     14  O   UNL d   1      14.832  11.910  -0.967  0.00  0.00    -0.265 OA
ATOM     15  C   UNL d   1      14.317  15.025  -2.003  0.00  0.00     0.105 C 
ATOM     16  C   UNL d   1      15.254  13.164  -0.015  0.00  0.00     0.107 C 
ATOM     17  C   UNL d   1      12.791  12.781  -5.384  0.00  0.00     0.021 C 
ENDROOT
BRANCH  10  18
ATOM     18  C   UNL d   1      13.216  14.025  -4.425  0.00  0.00     0.100 C 
BRANCH  18  19
ATOM     19  C   UNL d   1      13.657  14.335  -5.057  0.00  0.00     0.039 C 
BRANCH  19  20
ATOM     20  C   UNL d   1      14.292  14.821  -4.913  0.00  0.00     0.082 C 
BRANCH  20  21
ATOM     21  N   UNL d   1      14.245  15.624  -5.085  0.00  0.00    -0.300 N 
ATOM     22  C   UNL d   1      14.902  16.107  -4.959  0.00  0.00     0.100 A 
ATOM     23  C   UNL d   1      14.853  16.906  -5.131  0.00  0.00     0.100 A 
ATOM     24  N   UNL d   1      14.155  17.222  -5.426  0.00  0.00    -0.301 N 
ATOM     25  C   UNL d   1      13.508  16.737  -5.548  0.00  0.00     0.100 A 
ATOM     26  C   UNL d   1      13.549  15.930  -5.377  0.00  0.00     0.100 A 
BRANCH  24  27
ATOM     27  C   UNL d   1      14.108  18.024  -5.598  0.00  0.00     0.064 A 
ATOM     28  C   UNL d   1      13.625  18.288  -6.202  0.00  0.00     0.018 A 
ATOM     29  C   UNL d   1      13.574  19.084  -6.378  0.00  0.00     0.002 A 
ATOM     30  C   UNL d   1      14.016  19.626  -5.938  0.00  0.00     0.000 A 
ATOM     31  C   UNL d   1      14.506  19.361  -5.325  0.00  0.00     0.002 A 
ATOM     32  C   UNL d   1      14.550  18.565  -5.158  0.00  0.00     0.018 A 
ENDBRANCH  24  27
ENDBRANCH  20  21
ENDBRANCH  19  20
ENDBRANCH  18  19
ENDBRANCH  10  18
TORSDOF 5
ENDMDL
