MODEL 1
REMARK VINA RESULT:      74.1      0.000      0.000
REMARK  5 active torsions:
REMARK  status: ('A' for Active; 'I' for Inactive)
REMARK       I    between atoms: C_2  and  N_1 
REMARK    1  A    between atoms: C_14  and  C_2 
REMARK    2  A    between atoms: C_8  and  O_11 
REMARK    3  A    between atoms: O_11  and  C_17 
REMARK    4  A    between atoms: C_18  and  C_14 
REMARK    5  A    between atoms: C_17  and  C_18 
ROOT
ATOM      1  C   UNL d   1      61.350  46.604  50.115  0.00  0.00     0.123 C 
ENDROOT
BRANCH   1   2
ATOM      2  O   UNL d   1      61.492  47.402  49.962  0.00  0.00    -0.305 OA
BRANCH   2   3
ATOM      3  C   UNL d   1      61.168  47.976  50.451  0.00  0.00     0.100 A 
ATOM      4  C   UNL d   1      61.340  47.975  51.258  0.00  0.00     0.025 A 
ATOM      5  C   UNL d   1      61.015  48.552  51.750  0.00  0.00     0.013 A 
ATOM      6  C   UNL d   1      61.187  48.551  52.557  0.00  0.00     0.001 C 
ATOM      7  C   UNL d   1      60.517  49.130  51.435  0.00  0.00     0.058 A 
ATOM      8  C   UNL d   1      60.345  49.131  50.629  0.00  0.00     0.013 A 
ATOM      9 CL   UNL d   1      60.192  49.706  51.928  0.00  0.00    -0.082 Cl
ATOM     10  C   UNL d   1      60.670  48.554  50.136  0.00  0.00     0.025 A 
ATOM     11  C   UNL d   1      59.848  49.708  50.315  0.00  0.00     0.001 C 
ENDBRANCH   2   3
ENDBRANCH   1   2
BRANCH   1  12
ATOM     12  C   UNL d   1      61.784  46.024  49.721  0.00  0.00     0.032 C 
BRANCH  12  13
ATOM     13  C   UNL d   1      61.540  45.236  49.746  0.00  0.00     0.063 C 
BRANCH  13  14
ATOM     14  C   UNL d   1      62.063  44.634  49.537  0.00  0.00     0.265 C 
ATOM     15  N   UNL d   1      62.167  43.985  50.035  0.00  0.00    -0.272 N 
ATOM     16  C   UNL d   1      62.690  43.383  49.825  0.00  0.00     0.083 A 
ATOM     17  C   UNL d   1      61.746  43.937  50.743  0.00  0.00     0.083 A 
ATOM     18  C   UNL d   1      62.793  42.733  50.323  0.00  0.00     0.019 A 
ATOM     19  C   UNL d   1      62.372  42.686  51.031  0.00  0.00     0.003 A 
ATOM     20  C   UNL d   1      61.849  43.288  51.240  0.00  0.00     0.019 A 
ATOM     21  O   UNL d   1      62.484  44.682  48.829  0.00  0.00    -0.267 OA
ENDBRANCH  13  14
ENDBRANCH  12  13
ENDBRANCH   1  12
TORSDOF 5
ENDMDL
MODEL 2
REMARK VINA RESULT:      77.0      2.183      5.301
REMARK  5 active torsions:
REMARK  status: ('A' for Active; 'I' for Inactive)
REMARK       I    between atoms: C_2  and  N_1 
REMARK    1  A    between atoms: C_14  and  C_2 
REMARK    2  A    between atoms: C_8  and  O_11 
REMARK    3  A    between atoms: O_11  and  C_17 
REMARK    4  A    between atoms: C_18  and  C_14 
REMARK    5  A    between atoms: C_17  and  C_18 
ROOT
ATOM      1  C   UNL d   1      61.125  45.430  50.739  0.00  0.00     0.123 C 
ENDROOT
BRANCH   1   2
ATOM      2  O   UNL d   1      61.202  44.731  50.309  0.00  0.00    -0.305 OA
BRANCH   2   3
ATOM      3  C   UNL d   1      61.555  44.075  50.653  0.00  0.00     0.100 A 
ATOM      4  C   UNL d   1      62.171  43.687  50.264  0.00  0.00     0.025 A 
ATOM      5  C   UNL d   1      62.527  43.028  50.609  0.00  0.00     0.013 A 
ATOM      6  C   UNL d   1      63.143  42.640  50.220  0.00  0.00     0.001 C 
ATOM      7  C   UNL d   1      62.267  42.756  51.343  0.00  0.00     0.058 A 
ATOM      8  C   UNL d   1      61.652  43.143  51.732  0.00  0.00     0.013 A 
ATOM      9 CL   UNL d   1      62.623  42.096  51.688  0.00  0.00    -0.082 Cl
ATOM     10  C   UNL d   1      61.295  43.803  51.387  0.00  0.00     0.025 A 
ATOM     11  C   UNL d   1      61.392  42.871  52.465  0.00  0.00     0.001 C 
ENDBRANCH   2   3
ENDBRANCH   1   2
BRANCH   1  12
ATOM     12  C   UNL d   1      61.218  46.159  50.365  0.00  0.00     0.032 C 
BRANCH  12  13
ATOM     13  C   UNL d   1      60.995  46.854  50.750  0.00  0.00     0.063 C 
BRANCH  13  14
ATOM     14  C   UNL d   1      61.258  47.583  50.471  0.00  0.00     0.265 C 
ATOM     15  N   UNL d   1      60.921  48.281  50.756  0.00  0.00    -0.272 N 
ATOM     16  C   UNL d   1      61.185  49.010  50.477  0.00  0.00     0.083 A 
ATOM     17  C   UNL d   1      60.320  48.247  51.320  0.00  0.00     0.083 A 
ATOM     18  C   UNL d   1      60.847  49.708  50.762  0.00  0.00     0.019 A 
ATOM     19  C   UNL d   1      60.246  49.674  51.326  0.00  0.00     0.003 A 
ATOM     20  C   UNL d   1      59.983  48.944  51.604  0.00  0.00     0.019 A 
ATOM     21  O   UNL d   1      61.860  47.617  49.907  0.00  0.00    -0.267 OA
ENDBRANCH  13  14
ENDBRANCH  12  13
ENDBRANCH   1  12
TORSDOF 5
ENDMDL
