MODEL 1
REMARK VINA RESULT:      -8.2      0.000      0.000
REMARK  2 active torsions:
REMARK  status: ('A' for Active; 'I' for Inactive)
REMARK    1  A    between atoms: C_7  and  C_1 
REMARK    2  A    between atoms: C_5  and  C_3 
ROOT
ATOM      1  C   UNL d   1     -48.469  12.584  22.948  0.00  0.00     0.067 A 
ATOM      2  N   UNL d   1     -48.313  14.227  22.906  0.00  0.00    -0.244 NA
ATOM      3  C   UNL d   1     -49.064  13.890  22.915  0.00  0.00     0.104 A 
ATOM      4  C   UNL d   1     -49.145  13.071  22.936  0.00  0.00     0.027 A 
ATOM      5  C   UNL d   1     -47.718  12.922  22.939  0.00  0.00     0.024 A 
ATOM      6  C   UNL d   1     -47.637  13.741  22.919  0.00  0.00     0.082 A 
ATOM      7  C   UNL d   1     -47.049  12.441  22.952  0.00  0.00     0.002 A 
ATOM      8  C   UNL d   1     -46.881  14.085  22.910  0.00  0.00     0.019 A 
ATOM      9  C   UNL d   1     -46.298  12.777  22.943  0.00  0.00     0.000 A 
ATOM     10  C   UNL d   1     -46.212  13.603  22.922  0.00  0.00     0.002 A 
ENDROOT
BRANCH   3  11
ATOM     11  C   UNL d   1     -49.737  14.374  22.902  0.00  0.00     0.118 A 
ATOM     12  O   UNL d   1     -50.262  14.507  22.280  0.00  0.00    -0.304 OA
ATOM     13  C   UNL d   1     -50.838  15.034  22.550  0.00  0.00     0.123 A 
ATOM     14  C   UNL d   1     -50.671  15.221  23.324  0.00  0.00     0.029 A 
ATOM     15  C   UNL d   1     -49.988  14.812  23.542  0.00  0.00     0.028 A 
ENDBRANCH   3  11
BRANCH   1  16
ATOM     16  C   UNL d   1     -48.554  11.753  22.969  0.00  0.00     0.211 C 
ATOM     17  O   UNL d   1     -48.579  11.367  23.698  0.00  0.00    -0.644 OA
ATOM     18  O   UNL d   1     -48.612  11.324  22.265  0.00  0.00    -0.644 OA
ENDBRANCH   1  16
TORSDOF 2
ENDMDL
MODEL 2
REMARK VINA RESULT:      -7.9      1.275      3.543
REMARK  2 active torsions:
REMARK  status: ('A' for Active; 'I' for Inactive)
REMARK    1  A    between atoms: C_7  and  C_1 
REMARK    2  A    between atoms: C_5  and  C_3 
ROOT
ATOM      1  C   UNL d   1     -49.309  14.494  23.029  0.00  0.00     0.067 A 
ATOM      2  N   UNL d   1     -48.603  13.002  23.062  0.00  0.00    -0.244 NA
ATOM      3  C   UNL d   1     -48.147  13.664  22.885  0.00  0.00     0.104 A 
ATOM      4  C   UNL d   1     -48.497  14.410  22.868  0.00  0.00     0.027 A 
ATOM      5  C   UNL d   1     -49.765  13.831  23.205  0.00  0.00     0.024 A 
ATOM      6  C   UNL d   1     -49.416  13.086  23.223  0.00  0.00     0.082 A 
ATOM      7  C   UNL d   1     -50.570  13.914  23.365  0.00  0.00     0.002 A 
ATOM      8  C   UNL d   1     -49.872  12.415  23.401  0.00  0.00     0.019 A 
ATOM      9  C   UNL d   1     -51.027  13.252  23.542  0.00  0.00     0.000 A 
ATOM     10  C   UNL d   1     -50.678  12.498  23.561  0.00  0.00     0.002 A 
ENDROOT
BRANCH   3  11
ATOM     11  C   UNL d   1     -47.338  13.580  22.725  0.00  0.00     0.118 A 
ATOM     12  O   UNL d   1     -46.977  13.283  22.045  0.00  0.00    -0.304 OA
ATOM     13  C   UNL d   1     -46.161  13.318  22.162  0.00  0.00     0.123 A 
ATOM     14  C   UNL d   1     -46.021  13.631  22.900  0.00  0.00     0.029 A 
ATOM     15  C   UNL d   1     -46.751  13.793  23.248  0.00  0.00     0.028 A 
ENDBRANCH   3  11
BRANCH   1  16
ATOM     16  C   UNL d   1     -49.662  15.252  23.010  0.00  0.00     0.211 C 
ATOM     17  O   UNL d   1     -49.998  15.524  22.308  0.00  0.00    -0.644 OA
ATOM     18  O   UNL d   1     -49.672  15.721  23.691  0.00  0.00    -0.644 OA
ENDBRANCH   1  16
TORSDOF 2
ENDMDL
MODEL 3
REMARK VINA RESULT:      -7.8      1.042      3.172
REMARK  2 active torsions:
REMARK  status: ('A' for Active; 'I' for Inactive)
REMARK    1  A    between atoms: C_7  and  C_1 
REMARK    2  A    between atoms: C_5  and  C_3 
ROOT
ATOM      1  C   UNL d   1     -49.525  13.182  22.452  0.00  0.00     0.067 A 
ATOM      2  N   UNL d   1     -48.392  14.232  23.035  0.00  0.00    -0.244 NA
ATOM      3  C   UNL d   1     -48.167  13.470  22.818  0.00  0.00     0.104 A 
ATOM      4  C   UNL d   1     -48.730  12.944  22.527  0.00  0.00     0.027 A 
ATOM      5  C   UNL d   1     -49.749  13.944  22.669  0.00  0.00     0.024 A 
ATOM      6  C   UNL d   1     -49.186  14.470  22.960  0.00  0.00     0.082 A 
ATOM      7  C   UNL d   1     -50.536  14.180  22.595  0.00  0.00     0.002 A 
ATOM      8  C   UNL d   1     -49.408  15.239  23.179  0.00  0.00     0.019 A 
ATOM      9  C   UNL d   1     -50.760  14.942  22.811  0.00  0.00     0.000 A 
ATOM     10  C   UNL d   1     -50.195  15.475  23.105  0.00  0.00     0.002 A 
ENDROOT
BRANCH   3  11
ATOM     11  C   UNL d   1     -47.376  13.233  22.893  0.00  0.00     0.118 A 
ATOM     12  O   UNL d   1     -47.048  12.705  23.435  0.00  0.00    -0.304 OA
ATOM     13  C   UNL d   1     -46.238  12.659  23.277  0.00  0.00     0.123 A 
ATOM     14  C   UNL d   1     -46.072  13.149  22.649  0.00  0.00     0.029 A 
ATOM     15  C   UNL d   1     -46.777  13.505  22.412  0.00  0.00     0.028 A 
ENDBRANCH   3  11
BRANCH   1  16
ATOM     16  C   UNL d   1     -50.095  12.646  22.156  0.00  0.00     0.211 C 
ATOM     17  O   UNL d   1     -50.500  12.156  22.682  0.00  0.00    -0.644 OA
ATOM     18  O   UNL d   1     -50.248  12.610  21.345  0.00  0.00    -0.644 OA
ENDBRANCH   1  16
TORSDOF 2
ENDMDL
MODEL 4
REMARK VINA RESULT:      -7.3      1.397      2.418
REMARK  2 active torsions:
REMARK  status: ('A' for Active; 'I' for Inactive)
REMARK    1  A    between atoms: C_7  and  C_1 
REMARK    2  A    between atoms: C_5  and  C_3 
ROOT
ATOM      1  C   UNL d   1     -48.413  14.153  22.832  0.00  0.00     0.067 A 
ATOM      2  N   UNL d   1     -48.278  12.573  23.292  0.00  0.00    -0.244 NA
ATOM      3  C   UNL d   1     -49.023  12.920  23.242  0.00  0.00     0.104 A 
ATOM      4  C   UNL d   1     -49.094  13.708  23.013  0.00  0.00     0.027 A 
ATOM      5  C   UNL d   1     -47.669  13.805  22.882  0.00  0.00     0.024 A 
ATOM      6  C   UNL d   1     -47.597  13.018  23.111  0.00  0.00     0.082 A 
ATOM      7  C   UNL d   1     -46.995  14.246  22.703  0.00  0.00     0.002 A 
ATOM      8  C   UNL d   1     -46.848  12.664  23.162  0.00  0.00     0.019 A 
ATOM      9  C   UNL d   1     -46.249  13.900  22.753  0.00  0.00     0.000 A 
ATOM     10  C   UNL d   1     -46.174  13.105  22.983  0.00  0.00     0.002 A 
ENDROOT
BRANCH   3  11
ATOM     11  C   UNL d   1     -49.700  12.477  23.422  0.00  0.00     0.118 A 
ATOM     12  O   UNL d   1     -50.474  12.742  23.526  0.00  0.00    -0.304 OA
ATOM     13  C   UNL d   1     -50.942  12.083  23.697  0.00  0.00     0.123 A 
ATOM     14  C   UNL d   1     -50.464  11.424  23.698  0.00  0.00     0.029 A 
ATOM     15  C   UNL d   1     -49.695  11.669  23.528  0.00  0.00     0.028 A 
ENDBRANCH   3  11
BRANCH   1  16
ATOM     16  C   UNL d   1     -48.488  14.953  22.600  0.00  0.00     0.211 C 
ATOM     17  O   UNL d   1     -48.495  15.142  21.797  0.00  0.00    -0.644 OA
ATOM     18  O   UNL d   1     -48.554  15.546  23.172  0.00  0.00    -0.644 OA
ENDBRANCH   1  16
TORSDOF 2
ENDMDL
MODEL 5
REMARK VINA RESULT:      -7.3      1.693      3.812
REMARK  2 active torsions:
REMARK  status: ('A' for Active; 'I' for Inactive)
REMARK    1  A    between atoms: C_7  and  C_1 
REMARK    2  A    between atoms: C_5  and  C_3 
ROOT
ATOM      1  C   UNL d   1     -47.600  12.071  23.046  0.00  0.00     0.067 A 
ATOM      2  N   UNL d   1     -46.067  12.678  23.137  0.00  0.00    -0.244 NA
ATOM      3  C   UNL d   1     -46.188  11.867  23.208  0.00  0.00     0.104 A 
ATOM      4  C   UNL d   1     -46.951  11.561  23.163  0.00  0.00     0.027 A 
ATOM      5  C   UNL d   1     -47.478  12.882  22.975  0.00  0.00     0.024 A 
ATOM      6  C   UNL d   1     -46.715  13.188  23.020  0.00  0.00     0.082 A 
ATOM      7  C   UNL d   1     -48.120  13.387  22.859  0.00  0.00     0.002 A 
ATOM      8  C   UNL d   1     -46.589  14.006  22.949  0.00  0.00     0.019 A 
ATOM      9  C   UNL d   1     -47.999  14.198  22.788  0.00  0.00     0.000 A 
ATOM     10  C   UNL d   1     -47.230  14.511  22.832  0.00  0.00     0.002 A 
ENDROOT
BRANCH   3  11
ATOM     11  C   UNL d   1     -45.543  11.359  23.325  0.00  0.00     0.118 A 
ATOM     12  O   UNL d   1     -44.752  11.479  23.122  0.00  0.00    -0.304 OA
ATOM     13  C   UNL d   1     -44.332  10.808  23.357  0.00  0.00     0.123 A 
ATOM     14  C   UNL d   1     -44.854  10.285  23.698  0.00  0.00     0.029 A 
ATOM     15  C   UNL d   1     -45.604  10.628  23.678  0.00  0.00     0.028 A 
ENDBRANCH   3  11
BRANCH   1  16
ATOM     16  C   UNL d   1     -48.374  11.758  23.001  0.00  0.00     0.211 C 
ATOM     17  O   UNL d   1     -48.803  11.638  23.695  0.00  0.00    -0.644 OA
ATOM     18  O   UNL d   1     -48.703  11.571  22.266  0.00  0.00    -0.644 OA
ENDBRANCH   1  16
TORSDOF 2
ENDMDL
MODEL 6
REMARK VINA RESULT:      -6.5      8.392      9.882
REMARK  2 active torsions:
REMARK  status: ('A' for Active; 'I' for Inactive)
REMARK    1  A    between atoms: C_7  and  C_1 
REMARK    2  A    between atoms: C_5  and  C_3 
ROOT
ATOM      1  C   UNL d   1     -40.299  14.979  17.763  0.00  0.00     0.067 A 
ATOM      2  N   UNL d   1     -39.673  14.347  19.154  0.00  0.00    -0.244 NA
ATOM      3  C   UNL d   1     -40.241  14.941  19.197  0.00  0.00     0.104 A 
ATOM      4  C   UNL d   1     -40.556  15.258  18.505  0.00  0.00     0.027 A 
ATOM      5  C   UNL d   1     -39.731  14.385  17.721  0.00  0.00     0.024 A 
ATOM      6  C   UNL d   1     -39.416  14.068  18.412  0.00  0.00     0.082 A 
ATOM      7  C   UNL d   1     -39.476  14.108  16.987  0.00  0.00     0.002 A 
ATOM      8  C   UNL d   1     -38.843  13.468  18.374  0.00  0.00     0.019 A 
ATOM      9  C   UNL d   1     -38.908  13.514  16.943  0.00  0.00     0.000 A 
ATOM     10  C   UNL d   1     -38.589  13.192  17.639  0.00  0.00     0.002 A 
ENDROOT
BRANCH   3  11
ATOM     11  C   UNL d   1     -40.497  15.219  19.935  0.00  0.00     0.118 A 
ATOM     12  O   UNL d   1     -40.252  15.894  20.342  0.00  0.00    -0.304 OA
ATOM     13  C   UNL d   1     -40.674  15.922  21.051  0.00  0.00     0.123 A 
ATOM     14  C   UNL d   1     -41.169  15.276  21.081  0.00  0.00     0.029 A 
ATOM     15  C   UNL d   1     -41.058  14.841  20.389  0.00  0.00     0.028 A 
ENDBRANCH   3  11
BRANCH   1  16
ATOM     16  C   UNL d   1     -40.620  15.303  17.062  0.00  0.00     0.211 C 
ATOM     17  O   UNL d   1     -41.326  14.999  16.763  0.00  0.00    -0.644 OA
ATOM     18  O   UNL d   1     -40.231  15.921  16.675  0.00  0.00    -0.644 OA
ENDBRANCH   1  16
TORSDOF 2
ENDMDL
