MODEL 1
REMARK VINA RESULT:      73.5      0.000      0.000
REMARK  2 active torsions:
REMARK  status: ('A' for Active; 'I' for Inactive)
REMARK    1  A    between atoms: N_7  and  C_3 
REMARK    2  A    between atoms: C_11  and  N_8 
ROOT
ATOM      1  N   UNL d   1     -50.374  26.927  34.035  0.00  0.00    -0.286 N 
ATOM      2  N   UNL d   1     -49.239  28.018  34.517  0.00  0.00    -0.301 N 
ATOM      3  C   UNL d   1     -49.934  27.339  33.470  0.00  0.00     0.101 A 
ATOM      4  C   UNL d   1     -50.248  27.058  34.832  0.00  0.00     0.101 A 
ATOM      5  C   UNL d   1     -49.366  27.884  33.716  0.00  0.00     0.100 A 
ATOM      6  C   UNL d   1     -49.680  27.604  35.078  0.00  0.00     0.100 A 
ENDROOT
BRANCH   1   7
ATOM      7  C   UNL d   1     -50.939  26.384  33.792  0.00  0.00     0.154 A 
ATOM      8  C   UNL d   1     -50.749  25.593  33.748  0.00  0.00     0.091 A 
ATOM      9  C   UNL d   1     -51.314  25.050  33.504  0.00  0.00     0.170 A 
ATOM     10  C   UNL d   1     -50.047  25.187  33.911  0.00  0.00     0.127 A 
ATOM     11  N   UNL d   1     -50.963  24.301  33.516  0.00  0.00    -0.209 N 
ATOM     12  N   UNL d   1     -52.066  25.300  33.306  0.00  0.00    -0.205 NA
ATOM     13  C   UNL d   1     -51.337  23.593  33.309  0.00  0.00     0.123 C 
ATOM     14  N   UNL d   1     -50.185  24.387  33.766  0.00  0.00    -0.162 NA
ATOM     15  C   UNL d   1     -52.253  26.093  33.351  0.00  0.00     0.202 A 
ATOM     16  N   UNL d   1     -51.685  26.639  33.595  0.00  0.00    -0.206 NA
ENDBRANCH   1   7
BRANCH   2  17
ATOM     17  C   UNL d   1     -48.670  28.564  34.759  0.00  0.00     0.065 A 
ATOM     18  C   UNL d   1     -48.686  29.327  34.455  0.00  0.00     0.030 A 
ATOM     19  C   UNL d   1     -48.122  29.882  34.689  0.00  0.00     0.070 A 
ATOM     20 CL   UNL d   1     -48.143  30.647  34.380  0.00  0.00    -0.081 Cl
ATOM     21  C   UNL d   1     -47.536  29.663  35.235  0.00  0.00     0.068 A 
ATOM     22  C   UNL d   1     -47.521  28.893  35.542  0.00  0.00     0.014 A 
ATOM     23 CL   UNL d   1     -46.969  30.214  35.474  0.00  0.00    -0.082 Cl
ATOM     24  C   UNL d   1     -48.088  28.344  35.303  0.00  0.00     0.018 A 
ENDBRANCH   2  17
TORSDOF 2
ENDMDL
MODEL 2
REMARK VINA RESULT:      74.3      2.531      5.006
REMARK  2 active torsions:
REMARK  status: ('A' for Active; 'I' for Inactive)
REMARK    1  A    between atoms: N_7  and  C_3 
REMARK    2  A    between atoms: C_11  and  N_8 
ROOT
ATOM      1  N   UNL d   1     -50.004  27.680  33.769  0.00  0.00    -0.286 N 
ATOM      2  N   UNL d   1     -50.791  26.241  33.622  0.00  0.00    -0.301 N 
ATOM      3  C   UNL d   1     -50.798  27.621  33.991  0.00  0.00     0.101 A 
ATOM      4  C   UNL d   1     -49.609  27.027  33.476  0.00  0.00     0.101 A 
ATOM      5  C   UNL d   1     -51.188  26.898  33.916  0.00  0.00     0.100 A 
ATOM      6  C   UNL d   1     -49.999  26.305  33.401  0.00  0.00     0.100 A 
ENDROOT
BRANCH   1   7
ATOM      7  C   UNL d   1     -49.615  28.399  33.843  0.00  0.00     0.154 A 
ATOM      8  C   UNL d   1     -49.050  28.495  34.422  0.00  0.00     0.091 A 
ATOM      9  C   UNL d   1     -48.661  29.214  34.496  0.00  0.00     0.170 A 
ATOM     10  C   UNL d   1     -48.761  27.979  35.000  0.00  0.00     0.127 A 
ATOM     11  N   UNL d   1     -48.126  29.146  35.124  0.00  0.00    -0.209 N 
ATOM     12  N   UNL d   1     -48.838  29.832  33.992  0.00  0.00    -0.205 NA
ATOM     13  C   UNL d   1     -47.619  29.743  35.389  0.00  0.00     0.123 C 
ATOM     14  N   UNL d   1     -48.189  28.387  35.432  0.00  0.00    -0.162 NA
ATOM     15  C   UNL d   1     -49.405  29.731  33.413  0.00  0.00     0.202 A 
ATOM     16  N   UNL d   1     -49.796  29.009  33.338  0.00  0.00    -0.206 NA
ENDBRANCH   1   7
BRANCH   2  17
ATOM     17  C   UNL d   1     -51.186  25.520  33.549  0.00  0.00     0.065 A 
ATOM     18  C   UNL d   1     -50.755  24.822  33.535  0.00  0.00     0.030 A 
ATOM     19  C   UNL d   1     -51.139  24.095  33.463  0.00  0.00     0.070 A 
ATOM     20 CL   UNL d   1     -50.700  23.396  33.450  0.00  0.00    -0.081 Cl
ATOM     21  C   UNL d   1     -51.967  24.075  33.403  0.00  0.00     0.068 A 
ATOM     22  C   UNL d   1     -52.401  24.781  33.416  0.00  0.00     0.014 A 
ATOM     23 CL   UNL d   1     -52.357  23.352  33.329  0.00  0.00    -0.082 Cl
ATOM     24  C   UNL d   1     -52.010  25.504  33.489  0.00  0.00     0.018 A 
ENDBRANCH   2  17
TORSDOF 2
ENDMDL
