MODEL 1
REMARK VINA RESULT:       6.7      0.000      0.000
REMARK  5 active torsions:
REMARK  status: ('A' for Active; 'I' for Inactive)
REMARK    1  A    between atoms: C_6  and  N_1 
REMARK    2  A    between atoms: C_7  and  C_2 
REMARK    3  A    between atoms: C_14  and  C_5 
REMARK    4  A    between atoms: C_11  and  C_7 
REMARK    5  A    between atoms: O_26  and  C_23 
ROOT
ATOM      1  N   UNL d   1     -41.320-121.311 -51.316  0.00  0.00    -0.250 N 
ATOM      2  C   UNL d   1     -41.488-122.433 -50.628  0.00  0.00     0.099 A 
ATOM      3  C   UNL d   1     -41.263-121.142 -50.498  0.00  0.00     0.305 A 
ATOM      4  C   UNL d   1     -41.361-121.797 -50.086  0.00  0.00     0.256 A 
ATOM      5  C   UNL d   1     -41.459-122.107 -51.394  0.00  0.00     0.075 A 
ATOM      6  O   UNL d   1     -41.123-120.394 -50.158  0.00  0.00    -0.263 OA
ATOM      7  O   UNL d   1     -41.340-121.842 -49.246  0.00  0.00    -0.281 OA
ENDROOT
BRANCH   5   8
ATOM      8  C   UNL d   1     -41.552-122.513 -52.095  0.00  0.00     0.017 A 
ATOM      9  C   UNL d   1     -41.123-123.204 -52.218  0.00  0.00     0.004 A 
ATOM     10  C   UNL d   1     -41.223-123.621 -52.945  0.00  0.00     0.024 A 
ATOM     11  C   UNL d   1     -41.741-123.340 -53.523  0.00  0.00     0.094 A 
ATOM     12  C   UNL d   1     -42.165-122.643 -53.382  0.00  0.00     0.024 A 
ATOM     13  C   UNL d   1     -42.071-122.228 -52.668  0.00  0.00     0.004 A 
BRANCH  11  14
ATOM     14  O   UNL d   1     -41.836-123.744 -54.225  0.00  0.00    -0.328 OA
ATOM     15  C   UNL d   1     -41.213-123.784 -54.759  0.00  0.00     0.181 C 
ENDBRANCH  11  14
ENDBRANCH   5   8
BRANCH   2  16
ATOM     16  C   UNL d   1     -41.618-123.226 -50.438  0.00  0.00     0.206 C 
ATOM     17  O   UNL d   1     -41.137-123.817 -50.804  0.00  0.00    -0.286 OA
BRANCH  16  18
ATOM     18  C   UNL d   1     -42.201-123.422 -49.907  0.00  0.00     0.069 A 
ATOM     19  S   UNL d   1     -42.098-123.689 -49.110  0.00  0.00    -0.083 SA
ATOM     20  C   UNL d   1     -42.819-123.816 -48.794  0.00  0.00     0.035 A 
ATOM     21  C   UNL d   1     -43.395-123.644 -49.352  0.00  0.00     0.008 A 
ATOM     22  C   UNL d   1     -43.004-123.394 -50.060  0.00  0.00     0.010 A 
ENDBRANCH  16  18
ENDBRANCH   2  16
BRANCH   1  23
ATOM     23  C   UNL d   1     -41.242-120.737 -51.911  0.00  0.00     0.204 A 
ATOM     24  S   UNL d   1     -41.196-119.919 -51.745  0.00  0.00    -0.025 SA
ATOM     25  C   UNL d   1     -41.123-119.524 -52.467  0.00  0.00     0.161 A 
ATOM     26  N   UNL d   1     -41.124-120.089 -53.060  0.00  0.00    -0.137 NA
ATOM     27  N   UNL d   1     -41.198-120.844 -52.719  0.00  0.00    -0.122 NA
ENDBRANCH   1  23
TORSDOF 5
ENDMDL
