MODEL 1
REMARK VINA RESULT:      80.3      0.000      0.000
REMARK  4 active torsions:
REMARK  status: ('A' for Active; 'I' for Inactive)
REMARK    1  A    between atoms: N_7  and  C_1 
REMARK    2  A    between atoms: C_9  and  N_3 
REMARK       I    between atoms: C_11  and  N_7 
REMARK    3  A    between atoms: C_15  and  C_11 
REMARK    4  A    between atoms: C_17  and  C_15 
ROOT
ATOM      1  C   UNL d   1      60.486  49.221  51.006  0.00  0.00     0.169 A 
ATOM      2  C   UNL d   1      60.912  49.312  51.715  0.00  0.00     0.065 A 
ATOM      3  N   UNL d   1      59.705  49.465  51.137  0.00  0.00    -0.212 N 
ATOM      4  N   UNL d   1      59.647  49.708  51.927  0.00  0.00    -0.163 NA
ATOM      5  C   UNL d   1      60.391  49.613  52.282  0.00  0.00     0.114 A 
ATOM      6  S   UNL d   1      61.586  49.463  52.864  0.00  0.00     0.091 S 
ATOM      7  C   UNL d   1      60.806  49.707  52.994  0.00  0.00     0.090 A 
ATOM      8  C   UNL d   1      61.648  49.220  52.072  0.00  0.00     0.073 A 
ATOM      9  O   UNL d   1      62.199  49.461  53.422  0.00  0.00    -0.247 OA
ENDROOT
BRANCH   1  10
ATOM     10  N   UNL d   1      60.795  48.934  50.292  0.00  0.00    -0.189 NA
ATOM     11  C   UNL d   1      61.110  48.178  50.248  0.00  0.00     0.281 C 
ATOM     12  O   UNL d   1      61.121  47.689  50.926  0.00  0.00    -0.265 OA
BRANCH  11  13
ATOM     13  C   UNL d   1      61.418  47.890  49.539  0.00  0.00     0.063 C 
BRANCH  13  14
ATOM     14  C   UNL d   1      61.626  47.097  49.483  0.00  0.00     0.005 A 
ATOM     15  C   UNL d   1      62.311  46.884  49.079  0.00  0.00     0.003 A 
ATOM     16  C   UNL d   1      62.521  46.088  49.022  0.00  0.00     0.030 A 
ATOM     17  C   UNL d   1      62.046  45.505  49.369  0.00  0.00     0.140 A 
ATOM     18  C   UNL d   1      61.363  45.726  49.770  0.00  0.00     0.030 A 
ATOM     19  F   UNL d   1      62.255  44.708  49.312  0.00  0.00    -0.204 F 
ATOM     20  C   UNL d   1      61.151  46.520  49.829  0.00  0.00     0.003 A 
ENDBRANCH  13  14
ENDBRANCH  11  13
ENDBRANCH   1  10
BRANCH   3  21
ATOM     21  C   UNL d   1      59.093  49.468  50.582  0.00  0.00     0.085 A 
ATOM     22  C   UNL d   1      58.321  49.310  50.829  0.00  0.00     0.031 A 
ATOM     23  C   UNL d   1      57.725  49.315  50.277  0.00  0.00     0.059 A 
ATOM     24 CL   UNL d   1      56.955  49.160  50.512  0.00  0.00    -0.082 Cl
ATOM     25  C   UNL d   1      57.884  49.474  49.484  0.00  0.00     0.011 A 
ATOM     26  C   UNL d   1      58.648  49.629  49.240  0.00  0.00     0.002 A 
ATOM     27  C   UNL d   1      59.260  49.627  49.794  0.00  0.00     0.019 A 
ENDBRANCH   3  21
TORSDOF 4
ENDMDL
