MODEL 1
REMARK VINA RESULT:      -5.6      0.000      0.000
REMARK  5 active torsions:
REMARK  status: ('A' for Active; 'I' for Inactive)
REMARK    1  A    between atoms: N_4  and  C_1 
REMARK    2  A    between atoms: N_5  and  C_1 
REMARK       I    between atoms: C_2  and  N_3 
REMARK    3  A    between atoms: C_8  and  C_2 
REMARK    4  A    between atoms: N_3  and  N_4 
REMARK    5  A    between atoms: C_9  and  N_5 
ROOT
ATOM      1  N   UNL d   1     -41.832-122.536 -51.836  0.00  0.00    -0.273 N 
ATOM      2  H   UNL d   1     -42.377-121.937 -51.957  0.00  0.00     0.189 HD
ENDROOT
BRANCH   1   3
ATOM      3  N   UNL d   1     -41.748-122.885 -51.084  0.00  0.00    -0.264 N 
ATOM      4  C   UNL d   1     -42.194-122.573 -50.449  0.00  0.00     0.271 C 
ATOM      5  O   UNL d   1     -42.700-121.944 -50.548  0.00  0.00    -0.266 OA
ATOM      6  H   UNL d   1     -41.248-123.509 -50.975  0.00  0.00     0.190 HD
BRANCH   4   7
ATOM      7  C   UNL d   1     -42.114-122.920 -49.685  0.00  0.00     0.057 A 
ATOM      8  C   UNL d   1     -41.376-122.979 -49.326  0.00  0.00     0.005 A 
ATOM      9  C   UNL d   1     -41.306-123.321 -48.576  0.00  0.00     0.000 A 
ATOM     10  C   UNL d   1     -41.973-123.605 -48.184  0.00  0.00     0.000 A 
ATOM     11  C   UNL d   1     -42.706-123.544 -48.544  0.00  0.00     0.000 A 
ATOM     12  C   UNL d   1     -42.791-123.208 -49.287  0.00  0.00     0.005 A 
ENDBRANCH   4   7
ENDBRANCH   1   3
BRANCH   1  13
ATOM     13  C   UNL d   1     -41.366-122.791 -52.470  0.00  0.00     0.191 C 
ATOM     14  S   UNL d   1     -41.140-123.583 -52.530  0.00  0.00    -0.039 SA
BRANCH  13  15
ATOM     15  N   UNL d   1     -41.125-122.243 -53.050  0.00  0.00    -0.331 N 
ATOM     16  H   UNL d   1     -40.556-121.682 -52.874  0.00  0.00     0.168 HD
BRANCH  15  17
ATOM     17  C   UNL d   1     -41.465-122.273 -53.798  0.00  0.00     0.058 A 
ATOM     18  C   UNL d   1     -42.104-121.775 -53.971  0.00  0.00     0.017 A 
ATOM     19  C   UNL d   1     -42.448-121.803 -54.723  0.00  0.00     0.002 A 
ATOM     20  C   UNL d   1     -42.157-122.322 -55.295  0.00  0.00     0.000 A 
ATOM     21  C   UNL d   1     -41.513-122.815 -55.100  0.00  0.00     0.002 A 
ATOM     22  C   UNL d   1     -41.175-122.792 -54.370  0.00  0.00     0.017 A 
ENDBRANCH  15  17
ENDBRANCH  13  15
ENDBRANCH   1  13
TORSDOF 5
ENDMDL
MODEL 2
REMARK VINA RESULT:      -4.7      0.861      4.863
REMARK  5 active torsions:
REMARK  status: ('A' for Active; 'I' for Inactive)
REMARK    1  A    between atoms: N_4  and  C_1 
REMARK    2  A    between atoms: N_5  and  C_1 
REMARK       I    between atoms: C_2  and  N_3 
REMARK    3  A    between atoms: C_8  and  C_2 
REMARK    4  A    between atoms: N_3  and  N_4 
REMARK    5  A    between atoms: C_9  and  N_5 
ROOT
ATOM      1  N   UNL d   1     -41.344-122.532 -51.510  0.00  0.00    -0.273 N 
ATOM      2  H   UNL d   1     -40.953-121.853 -51.271  0.00  0.00     0.189 HD
ENDROOT
BRANCH   1   3
ATOM      3  N   UNL d   1     -41.528-122.653 -52.314  0.00  0.00    -0.264 N 
ATOM      4  C   UNL d   1     -41.410-122.021 -52.848  0.00  0.00     0.271 C 
ATOM      5  O   UNL d   1     -41.123-121.300 -52.604  0.00  0.00    -0.266 OA
ATOM      6  H   UNL d   1     -41.814-123.364 -52.566  0.00  0.00     0.190 HD
BRANCH   4   7
ATOM      7  C   UNL d   1     -41.594-122.135 -53.663  0.00  0.00     0.057 A 
ATOM      8  C   UNL d   1     -42.233-121.747 -54.006  0.00  0.00     0.005 A 
ATOM      9  C   UNL d   1     -42.408-121.865 -54.807  0.00  0.00     0.000 A 
ATOM     10  C   UNL d   1     -41.943-122.370 -55.264  0.00  0.00     0.000 A 
ATOM     11  C   UNL d   1     -41.308-122.754 -54.919  0.00  0.00     0.000 A 
ATOM     12  C   UNL d   1     -41.124-122.647 -54.127  0.00  0.00     0.005 A 
ENDBRANCH   4   7
ENDBRANCH   1   3
BRANCH   1  13
ATOM     13  C   UNL d   1     -41.555-123.097 -50.943  0.00  0.00     0.191 C 
ATOM     14  S   UNL d   1     -41.149-123.814 -50.898  0.00  0.00    -0.039 SA
BRANCH  13  15
ATOM     15  N   UNL d   1     -42.180-122.936 -50.416  0.00  0.00    -0.331 N 
ATOM     16  H   UNL d   1     -42.903-122.679 -50.702  0.00  0.00     0.168 HD
BRANCH  15  17
ATOM     17  C   UNL d   1     -42.062-123.040 -49.608  0.00  0.00     0.058 A 
ATOM     18  C   UNL d   1     -41.347-122.795 -49.270  0.00  0.00     0.017 A 
ATOM     19  C   UNL d   1     -41.226-122.898 -48.458  0.00  0.00     0.002 A 
ATOM     20  C   UNL d   1     -41.812-123.241 -47.990  0.00  0.00     0.000 A 
ATOM     21  C   UNL d   1     -42.526-123.480 -48.351  0.00  0.00     0.002 A 
ATOM     22  C   UNL d   1     -42.649-123.383 -49.140  0.00  0.00     0.017 A 
ENDBRANCH  15  17
ENDBRANCH  13  15
ENDBRANCH   1  13
TORSDOF 5
ENDMDL
