MODEL 1
REMARK VINA RESULT:      48.8      0.000      0.000
REMARK  4 active torsions:
REMARK  status: ('A' for Active; 'I' for Inactive)
REMARK    1  A    between atoms: N_8  and  C_2 
REMARK    2  A    between atoms: C_9  and  C_3 
REMARK    3  A    between atoms: C_7  and  N_10 
REMARK    4  A    between atoms: N_10  and  N_8 
ROOT
ATOM      1  N   UNL d   1     -49.793  26.880  34.078  0.00  0.00    -0.219 NA
ATOM      2  C   UNL d   1     -49.636  27.678  34.018  0.00  0.00     0.215 A 
ATOM      3  C   UNL d   1     -50.486  26.744  33.625  0.00  0.00     0.090 A 
ATOM      4  S   UNL d   1     -50.212  28.031  33.542  0.00  0.00    -0.045 SA
ATOM      5  C   UNL d   1     -50.727  27.457  33.306  0.00  0.00     0.058 A 
ENDROOT
BRANCH   2   6
ATOM      6  N   UNL d   1     -49.007  28.077  34.369  0.00  0.00    -0.120 NA
BRANCH   6   7
ATOM      7  N   UNL d   1     -48.992  28.892  34.372  0.00  0.00    -0.127 NA
BRANCH   7   8
ATOM      8  C   UNL d   1     -48.426  29.293  34.829  0.00  0.00     0.184 A 
ATOM      9  N   UNL d   1     -48.422  30.099  34.689  0.00  0.00    -0.224 NA
ATOM     10  C   UNL d   1     -47.964  30.688  35.013  0.00  0.00     0.101 A 
ATOM     11  C   UNL d   1     -47.379  30.623  35.572  0.00  0.00     0.021 A 
ATOM     12  C   UNL d   1     -47.103  29.937  35.953  0.00  0.00     0.002 A 
ATOM     13  C   UNL d   1     -47.347  29.171  35.861  0.00  0.00     0.003 A 
ATOM     14  C   UNL d   1     -47.948  28.866  35.353  0.00  0.00     0.041 A 
ENDBRANCH   7   8
ENDBRANCH   6   7
ENDBRANCH   2   6
BRANCH   3  15
ATOM     15  C   UNL d   1     -50.831  25.987  33.546  0.00  0.00     0.018 A 
ATOM     16  C   UNL d   1     -51.636  25.874  33.609  0.00  0.00     0.002 A 
ATOM     17  C   UNL d   1     -51.961  25.122  33.529  0.00  0.00     0.011 A 
ATOM     18  C   UNL d   1     -51.469  24.476  33.384  0.00  0.00     0.058 A 
ATOM     19  C   UNL d   1     -50.656  24.570  33.319  0.00  0.00     0.011 A 
ATOM     20 CL   UNL d   1     -51.814  23.718  33.306  0.00  0.00    -0.082 Cl
ATOM     21  C   UNL d   1     -50.326  25.330  33.399  0.00  0.00     0.002 A 
ENDBRANCH   3  15
TORSDOF 4
ENDMDL
