MODEL 1
REMARK VINA RESULT:      55.8      0.000      0.000
REMARK  2 active torsions:
REMARK  status: ('A' for Active; 'I' for Inactive)
REMARK    1  A    between atoms: C_10  and  C_5 
REMARK    2  A    between atoms: O_22  and  C_15 
ROOT
ATOM      1  C   UNL d   1     -57.637 -98.757 -43.475  0.00  0.00     0.120 A 
ATOM      2  C   UNL d   1     -58.160 -98.761 -44.112  0.00  0.00     0.058 A 
ATOM      3  N   UNL d   1     -58.086 -98.755 -42.784  0.00  0.00    -0.195 NA
ATOM      4  S   UNL d   1     -56.828 -98.755 -43.604  0.00  0.00    -0.072 SA
ATOM      5  C   UNL d   1     -57.872 -98.763 -44.877  0.00  0.00     0.005 A 
ATOM      6  C   UNL d   1     -56.540 -98.758 -44.369  0.00  0.00     0.009 A 
ATOM      7  C   UNL d   1     -57.061 -98.762 -45.011  0.00  0.00    -0.015 A 
ATOM      8  C   UNL d   1     -58.888 -98.758 -42.992  0.00  0.00     0.311 A 
ATOM      9  S   UNL d   1     -58.929 -98.762 -43.823  0.00  0.00    -0.024 SA
ATOM     10  C   UNL d   1     -56.767 -98.764 -45.782  0.00  0.00     0.045 A 
ATOM     11  C   UNL d   1     -55.726 -98.756 -44.500  0.00  0.00     0.050 A 
ATOM     12  C   UNL d   1     -56.411 -98.760 -44.956  0.00  0.00     0.018 A 
ATOM     13  O   UNL d   1     -59.536 -98.758 -42.476  0.00  0.00    -0.258 OA
ATOM     14  C   UNL d   1     -55.954 -98.763 -45.913  0.00  0.00    -0.026 A 
ATOM     15  C   UNL d   1     -55.432 -98.759 -45.271  0.00  0.00    -0.026 A 
ENDROOT
BRANCH   5  16
ATOM     16  C   UNL d   1     -58.388 -98.767 -45.510  0.00  0.00     0.002 A 
ATOM     17  C   UNL d   1     -58.100 -98.760 -46.276  0.00  0.00     0.028 A 
ATOM     18  C   UNL d   1     -58.617 -98.764 -46.915  0.00  0.00     0.133 A 
ATOM     19  C   UNL d   1     -59.435 -98.775 -46.786  0.00  0.00     0.218 A 
ATOM     20  C   UNL d   1     -59.727 -98.783 -46.008  0.00  0.00     0.044 A 
ATOM     21  O   UNL d   1     -59.958 -98.779 -47.424  0.00  0.00    -0.284 OA
ATOM     22  C   UNL d   1     -59.207 -98.779 -45.373  0.00  0.00     0.003 A 
BRANCH  18  23
ATOM     23  O   UNL d   1     -58.324 -98.756 -47.687  0.00  0.00    -0.325 OA
ATOM     24  C   UNL d   1     -58.803 -98.998 -48.315  0.00  0.00     0.181 C 
ENDBRANCH  18  23
ENDBRANCH   5  16
TORSDOF 2
ENDMDL
