MODEL 1
REMARK VINA RESULT:       1.3      0.000      0.000
REMARK  8 active torsions:
REMARK  status: ('A' for Active; 'I' for Inactive)
REMARK    1  A    between atoms: N_5  and  C_1 
REMARK    2  A    between atoms: N_7  and  C_1 
REMARK    3  A    between atoms: N_2  and  C_3 
REMARK    4  A    between atoms: C_3  and  C_4 
REMARK    5  A    between atoms: C_6  and  C_3 
REMARK    6  A    between atoms: C_4  and  N_5 
REMARK    7  A    between atoms: C_8  and  N_7 
REMARK    8  A    between atoms: C_25  and  N_10 
ROOT
ATOM      1  C   UNL d   1      57.556   0.105  31.813  0.00  0.00     0.088 C 
ENDROOT
BRANCH   1   2
ATOM      2  N   UNL d   1      56.894  -0.257  32.155  0.00  0.00    -0.300 N 
ATOM      3  C   UNL d   1      56.912  -1.061  32.331  0.00  0.00     0.100 A 
ATOM      4  C   UNL d   1      56.257  -1.421  32.669  0.00  0.00     0.100 A 
ATOM      5  N   UNL d   1      55.575  -0.984  32.838  0.00  0.00    -0.300 N 
ATOM      6  C   UNL d   1      55.559  -0.174  32.660  0.00  0.00     0.100 A 
ATOM      7  C   UNL d   1      56.215   0.195  32.318  0.00  0.00     0.100 A 
BRANCH   5   8
ATOM      8  C   UNL d   1      54.921  -1.347  33.176  0.00  0.00     0.080 C 
ATOM      9  C   UNL d   1      55.029  -2.005  33.668  0.00  0.00     0.021 C 
ENDBRANCH   5   8
ENDBRANCH   1   2
BRANCH   1  10
ATOM     10  C   UNL d   1      57.582   0.240  31.003  0.00  0.00     0.100 C 
ATOM     11  C   UNL d   1      56.993   0.679  30.644  0.00  0.00     0.022 C 
BRANCH  10  12
ATOM     12  N   UNL d   1      58.201  -0.070  30.561  0.00  0.00    -0.216 NA
BRANCH  12  13
ATOM     13  C   UNL d   1      58.122  -0.153  29.741  0.00  0.00     0.221 C 
ATOM     14  S   UNL d   1      57.920   0.500  29.286  0.00  0.00    -0.037 SA
BRANCH  13  15
ATOM     15  N   UNL d   1      58.245  -0.885  29.391  0.00  0.00    -0.217 NA
BRANCH  15  16
ATOM     16  C   UNL d   1      59.004  -1.123  29.172  0.00  0.00     0.084 A 
ATOM     17  C   UNL d   1      59.193  -1.918  29.149  0.00  0.00     0.018 A 
ATOM     18  C   UNL d   1      59.943  -2.160  28.933  0.00  0.00     0.002 A 
ATOM     19  C   UNL d   1      58.614  -2.481  29.347  0.00  0.00     0.002 C 
ATOM     20  C   UNL d   1      60.518  -1.593  28.736  0.00  0.00     0.000 A 
ATOM     21  C   UNL d   1      60.327  -0.781  28.759  0.00  0.00     0.002 A 
ATOM     22  C   UNL d   1      59.571  -0.551  28.977  0.00  0.00     0.019 A 
ATOM     23  C   UNL d   1      60.893  -0.218  28.564  0.00  0.00     0.000 C 
ENDBRANCH  15  16
ENDBRANCH  13  15
ENDBRANCH  12  13
ENDBRANCH  10  12
ENDBRANCH   1  10
BRANCH   1  24
ATOM     24  C   UNL d   1      58.187   0.331  32.289  0.00  0.00     0.047 A 
ATOM     25  S   UNL d   1      58.166   0.465  33.105  0.00  0.00    -0.085 SA
ATOM     26  C   UNL d   1      58.921   0.679  33.350  0.00  0.00     0.035 A 
ATOM     27  C   UNL d   1      59.422   0.682  32.694  0.00  0.00     0.007 A 
ATOM     28  C   UNL d   1      58.969   0.466  32.030  0.00  0.00     0.009 A 
ENDBRANCH   1  24
TORSDOF 8
ENDMDL
