MODEL 1
REMARK VINA RESULT:      -9.5      0.000      0.000
REMARK  3 active torsions:
REMARK  status: ('A' for Active; 'I' for Inactive)
REMARK    1  A    between atoms: C_9  and  S_1 
REMARK    2  A    between atoms: S_2  and  C_8 
REMARK    3  A    between atoms: N_14  and  C_5 
ROOT
ATOM      1  C   UNL d   1     -48.835  13.432  23.122  0.00  0.00     0.021 A 
ATOM      2  C   UNL d   1     -47.788  12.590  23.294  0.00  0.00     0.021 A 
ATOM      3  C   UNL d   1     -48.620  12.696  23.361  0.00  0.00     0.111 A 
ATOM      4  C   UNL d   1     -47.505  13.301  23.000  0.00  0.00     0.002 A 
ATOM      5  C   UNL d   1     -48.117  13.840  22.882  0.00  0.00     0.002 A 
ATOM      6  C   UNL d   1     -46.484  12.019  23.335  0.00  0.00     0.107 A 
ATOM      7  C   UNL d   1     -49.562  14.611  22.786  0.00  0.00     0.107 A 
ATOM      8  C   UNL d   1     -47.304  11.961  23.460  0.00  0.00     0.015 A 
ATOM      9  C   UNL d   1     -49.551  13.809  23.076  0.00  0.00     0.015 A 
ATOM     10  C   UNL d   1     -48.147  14.602  22.610  0.00  0.00     0.001 A 
ATOM     11  C   UNL d   1     -46.658  13.353  22.874  0.00  0.00     0.001 A 
ATOM     12  C   UNL d   1     -48.863  14.995  22.559  0.00  0.00     0.013 A 
ATOM     13  C   UNL d   1     -46.181  12.727  23.040  0.00  0.00     0.013 A 
ENDROOT
BRANCH   6  14
ATOM     14  S   UNL d   1     -45.998  11.350  23.516  0.00  0.00     0.302 S 
ATOM     15  O   UNL d   1     -45.326  11.808  23.345  0.00  0.00    -0.197 OA
ATOM     16  O   UNL d   1     -46.681  10.868  23.695  0.00  0.00    -0.197 OA
ATOM     17  N   UNL d   1     -45.507  10.677  23.698  0.00  0.00    -0.043 N 
ENDBRANCH   6  14
BRANCH   3  18
ATOM     18  N   UNL d   1     -49.228  12.143  23.638  0.00  0.00    -0.096 NA
ATOM     19  O   UNL d   1     -49.517  11.546  23.136  0.00  0.00    -0.061 OA
ENDBRANCH   3  18
BRANCH   7  20
ATOM     20  S   UNL d   1     -50.342  14.993  22.747  0.00  0.00     0.302 S 
ATOM     21  O   UNL d   1     -50.156  15.333  23.512  0.00  0.00    -0.197 OA
ATOM     22  O   UNL d   1     -50.480  14.632  21.990  0.00  0.00    -0.197 OA
ATOM     23  N   UNL d   1     -51.064  15.360  22.733  0.00  0.00    -0.043 N 
ENDBRANCH   7  20
TORSDOF 3
ENDMDL
MODEL 2
REMARK VINA RESULT:      -9.4      0.096      4.149
REMARK  3 active torsions:
REMARK  status: ('A' for Active; 'I' for Inactive)
REMARK    1  A    between atoms: C_9  and  S_1 
REMARK    2  A    between atoms: S_2  and  C_8 
REMARK    3  A    between atoms: N_14  and  C_5 
ROOT
ATOM      1  C   UNL d   1     -47.752  12.510  23.317  0.00  0.00     0.021 A 
ATOM      2  C   UNL d   1     -48.767  13.386  23.127  0.00  0.00     0.021 A 
ATOM      3  C   UNL d   1     -48.545  12.617  23.386  0.00  0.00     0.111 A 
ATOM      4  C   UNL d   1     -48.067  13.745  22.895  0.00  0.00     0.002 A 
ATOM      5  C   UNL d   1     -47.425  13.239  22.997  0.00  0.00     0.002 A 
ATOM      6  C   UNL d   1     -49.535  14.540  22.798  0.00  0.00     0.107 A 
ATOM      7  C   UNL d   1     -46.430  11.978  23.335  0.00  0.00     0.107 A 
ATOM      8  C   UNL d   1     -49.485  13.761  23.085  0.00  0.00     0.015 A 
ATOM      9  C   UNL d   1     -47.264  11.886  23.485  0.00  0.00     0.015 A 
ATOM     10  C   UNL d   1     -46.629  13.308  22.861  0.00  0.00     0.001 A 
ATOM     11  C   UNL d   1     -48.127  14.548  22.601  0.00  0.00     0.001 A 
ATOM     12  C   UNL d   1     -46.125  12.685  23.027  0.00  0.00     0.013 A 
ATOM     13  C   UNL d   1     -48.841  14.916  22.560  0.00  0.00     0.013 A 
ENDROOT
BRANCH   6  14
ATOM     14  S   UNL d   1     -50.296  14.910  22.763  0.00  0.00     0.302 S 
ATOM     15  O   UNL d   1     -50.150  15.248  23.508  0.00  0.00    -0.197 OA
ATOM     16  O   UNL d   1     -50.458  14.569  21.997  0.00  0.00    -0.197 OA
ATOM     17  N   UNL d   1     -51.061  15.284  22.731  0.00  0.00    -0.043 N 
ENDBRANCH   6  14
BRANCH   3  18
ATOM     18  N   UNL d   1     -49.037  11.974  23.696  0.00  0.00    -0.096 NA
ATOM     19  O   UNL d   1     -49.542  11.547  23.191  0.00  0.00    -0.061 OA
ENDBRANCH   3  18
BRANCH   7  20
ATOM     20  S   UNL d   1     -45.928  11.294  23.524  0.00  0.00     0.302 S 
ATOM     21  O   UNL d   1     -45.260  11.799  23.338  0.00  0.00    -0.197 OA
ATOM     22  O   UNL d   1     -46.621  10.834  23.698  0.00  0.00    -0.197 OA
ATOM     23  N   UNL d   1     -45.440  10.671  23.695  0.00  0.00    -0.043 N 
ENDBRANCH   7  20
TORSDOF 3
ENDMDL
MODEL 3
REMARK VINA RESULT:      -8.7      1.088      1.623
REMARK  3 active torsions:
REMARK  status: ('A' for Active; 'I' for Inactive)
REMARK    1  A    between atoms: C_9  and  S_1 
REMARK    2  A    between atoms: S_2  and  C_8 
REMARK    3  A    between atoms: N_14  and  C_5 
ROOT
ATOM      1  C   UNL d   1     -48.227  13.616  23.108  0.00  0.00     0.021 A 
ATOM      2  C   UNL d   1     -47.271  12.676  23.295  0.00  0.00     0.021 A 
ATOM      3  C   UNL d   1     -47.436  13.478  23.105  0.00  0.00     0.111 A 
ATOM      4  C   UNL d   1     -48.004  12.329  23.415  0.00  0.00     0.002 A 
ATOM      5  C   UNL d   1     -48.613  12.874  23.309  0.00  0.00     0.002 A 
ATOM      6  C   UNL d   1     -46.584  11.457  23.564  0.00  0.00     0.107 A 
ATOM      7  C   UNL d   1     -49.520  14.211  23.022  0.00  0.00     0.107 A 
ATOM      8  C   UNL d   1     -46.576  12.264  23.365  0.00  0.00     0.015 A 
ATOM      9  C   UNL d   1     -48.672  14.278  22.965  0.00  0.00     0.015 A 
ATOM     10  C   UNL d   1     -49.420  12.829  23.358  0.00  0.00     0.001 A 
ATOM     11  C   UNL d   1     -48.004  11.496  23.620  0.00  0.00     0.001 A 
ATOM     12  C   UNL d   1     -49.881  13.490  23.216  0.00  0.00     0.013 A 
ATOM     13  C   UNL d   1     -47.313  11.091  23.688  0.00  0.00     0.013 A 
ENDROOT
BRANCH   6  14
ATOM     14  S   UNL d   1     -45.846  11.048  23.631  0.00  0.00     0.302 S 
ATOM     15  O   UNL d   1     -46.256  10.327  23.577  0.00  0.00    -0.197 OA
ATOM     16  O   UNL d   1     -45.413  11.783  23.687  0.00  0.00    -0.197 OA
ATOM     17  N   UNL d   1     -45.104  10.634  23.697  0.00  0.00    -0.043 N 
ENDBRANCH   6  14
BRANCH   3  18
ATOM     18  N   UNL d   1     -46.891  14.127  22.920  0.00  0.00    -0.096 NA
ATOM     19  O   UNL d   1     -46.467  14.130  22.204  0.00  0.00    -0.061 OA
ENDBRANCH   3  18
BRANCH   7  20
ATOM     20  S   UNL d   1     -49.973  14.935  22.864  0.00  0.00     0.302 S 
ATOM     21  O   UNL d   1     -49.818  15.147  23.680  0.00  0.00    -0.197 OA
ATOM     22  O   UNL d   1     -50.100  14.682  22.063  0.00  0.00    -0.197 OA
ATOM     23  N   UNL d   1     -50.392  15.618  22.742  0.00  0.00    -0.043 N 
ENDBRANCH   7  20
TORSDOF 3
ENDMDL
MODEL 4
REMARK VINA RESULT:      -8.4      0.871      1.227
REMARK  3 active torsions:
REMARK  status: ('A' for Active; 'I' for Inactive)
REMARK    1  A    between atoms: C_9  and  S_1 
REMARK    2  A    between atoms: S_2  and  C_8 
REMARK    3  A    between atoms: N_14  and  C_5 
ROOT
ATOM      1  C   UNL d   1     -47.847  12.895  23.163  0.00  0.00     0.021 A 
ATOM      2  C   UNL d   1     -46.808  12.040  23.321  0.00  0.00     0.021 A 
ATOM      3  C   UNL d   1     -47.637  12.158  23.403  0.00  0.00     0.111 A 
ATOM      4  C   UNL d   1     -46.521  12.746  23.017  0.00  0.00     0.002 A 
ATOM      5  C   UNL d   1     -47.128  13.292  22.907  0.00  0.00     0.002 A 
ATOM      6  C   UNL d   1     -45.511  11.452  23.340  0.00  0.00     0.107 A 
ATOM      7  C   UNL d   1     -48.564  14.082  22.834  0.00  0.00     0.107 A 
ATOM      8  C   UNL d   1     -46.330  11.407  23.482  0.00  0.00     0.015 A 
ATOM      9  C   UNL d   1     -48.558  13.282  23.128  0.00  0.00     0.015 A 
ATOM     10  C   UNL d   1     -47.154  14.053  22.630  0.00  0.00     0.001 A 
ATOM     11  C   UNL d   1     -45.677  12.785  22.874  0.00  0.00     0.001 A 
ATOM     12  C   UNL d   1     -47.865  14.455  22.590  0.00  0.00     0.013 A 
ATOM     13  C   UNL d   1     -45.204  12.154  23.035  0.00  0.00     0.013 A 
ENDROOT
BRANCH   6  14
ATOM     14  S   UNL d   1     -45.031  10.777  23.517  0.00  0.00     0.302 S 
ATOM     15  O   UNL d   1     -44.355  11.242  23.389  0.00  0.00    -0.197 OA
ATOM     16  O   UNL d   1     -45.720  10.289  23.651  0.00  0.00    -0.197 OA
ATOM     17  N   UNL d   1     -44.546  10.100  23.694  0.00  0.00    -0.043 N 
ENDBRANCH   6  14
BRANCH   3  18
ATOM     18  N   UNL d   1     -48.247  11.616  23.696  0.00  0.00    -0.096 NA
ATOM     19  O   UNL d   1     -48.672  11.133  23.168  0.00  0.00    -0.061 OA
ENDBRANCH   3  18
BRANCH   7  20
ATOM     20  S   UNL d   1     -49.339  14.475  22.807  0.00  0.00     0.302 S 
ATOM     21  O   UNL d   1     -49.488  14.017  22.097  0.00  0.00    -0.197 OA
ATOM     22  O   UNL d   1     -49.146  14.906  23.514  0.00  0.00    -0.197 OA
ATOM     23  N   UNL d   1     -50.068  14.827  22.760  0.00  0.00    -0.043 N 
ENDBRANCH   7  20
TORSDOF 3
ENDMDL
MODEL 5
REMARK VINA RESULT:      -7.7      1.911      2.473
REMARK  3 active torsions:
REMARK  status: ('A' for Active; 'I' for Inactive)
REMARK    1  A    between atoms: C_9  and  S_1 
REMARK    2  A    between atoms: S_2  and  C_8 
REMARK    3  A    between atoms: N_14  and  C_5 
ROOT
ATOM      1  C   UNL d   1     -48.213  12.778  22.707  0.00  0.00     0.021 A 
ATOM      2  C   UNL d   1     -46.904  12.969  22.418  0.00  0.00     0.021 A 
ATOM      3  C   UNL d   1     -47.695  13.226  22.288  0.00  0.00     0.111 A 
ATOM      4  C   UNL d   1     -46.967  12.339  22.940  0.00  0.00     0.002 A 
ATOM      5  C   UNL d   1     -47.753  12.193  23.138  0.00  0.00     0.002 A 
ATOM      6  C   UNL d   1     -45.485  12.860  22.364  0.00  0.00     0.107 A 
ATOM      7  C   UNL d   1     -49.387  12.214  23.287  0.00  0.00     0.107 A 
ATOM      8  C   UNL d   1     -46.192  13.231  22.132  0.00  0.00     0.015 A 
ATOM      9  C   UNL d   1     -49.021  12.791  22.777  0.00  0.00     0.015 A 
ATOM     10  C   UNL d   1     -48.119  11.653  23.618  0.00  0.00     0.001 A 
ATOM     11  C   UNL d   1     -46.233  11.962  23.174  0.00  0.00     0.001 A 
ATOM     12  C   UNL d   1     -48.933  11.655  23.698  0.00  0.00     0.013 A 
ATOM     13  C   UNL d   1     -45.529  12.224  22.888  0.00  0.00     0.013 A 
ENDROOT
BRANCH   6  14
ATOM     14  S   UNL d   1     -44.754  13.151  22.052  0.00  0.00     0.302 S 
ATOM     15  O   UNL d   1     -44.893  13.873  22.438  0.00  0.00    -0.197 OA
ATOM     16  O   UNL d   1     -44.599  12.412  21.650  0.00  0.00    -0.197 OA
ATOM     17  N   UNL d   1     -44.018  13.446  21.739  0.00  0.00    -0.043 N 
ENDBRANCH   6  14
BRANCH   3  18
ATOM     18  N   UNL d   1     -47.993  13.870  21.791  0.00  0.00    -0.096 NA
ATOM     19  O   UNL d   1     -48.016  14.650  22.080  0.00  0.00    -0.061 OA
ENDBRANCH   3  18
BRANCH   7  20
ATOM     20  S   UNL d   1     -50.254  12.250  23.345  0.00  0.00     0.302 S 
ATOM     21  O   UNL d   1     -50.146  13.025  23.695  0.00  0.00    -0.197 OA
ATOM     22  O   UNL d   1     -50.309  11.477  22.994  0.00  0.00    -0.197 OA
ATOM     23  N   UNL d   1     -51.059  12.306  23.410  0.00  0.00    -0.043 N 
ENDBRANCH   7  20
TORSDOF 3
ENDMDL
MODEL 6
REMARK VINA RESULT:      -7.7      8.642      9.838
REMARK  3 active torsions:
REMARK  status: ('A' for Active; 'I' for Inactive)
REMARK    1  A    between atoms: C_9  and  S_1 
REMARK    2  A    between atoms: S_2  and  C_8 
REMARK    3  A    between atoms: N_14  and  C_5 
ROOT
ATOM      1  C   UNL d   1     -39.597  14.317  20.983  0.00  0.00     0.021 A 
ATOM      2  C   UNL d   1     -40.037  14.572  19.728  0.00  0.00     0.021 A 
ATOM      3  C   UNL d   1     -40.195  14.635  20.553  0.00  0.00     0.111 A 
ATOM      4  C   UNL d   1     -39.310  14.198  19.678  0.00  0.00     0.002 A 
ATOM      5  C   UNL d   1     -39.010  14.026  20.425  0.00  0.00     0.002 A 
ATOM      6  C   UNL d   1     -40.155  14.665  18.312  0.00  0.00     0.107 A 
ATOM      7  C   UNL d   1     -38.754  13.858  22.038  0.00  0.00     0.107 A 
ATOM      8  C   UNL d   1     -40.457  14.804  19.075  0.00  0.00     0.015 A 
ATOM      9  C   UNL d   1     -39.473  14.235  21.780  0.00  0.00     0.015 A 
ATOM     10  C   UNL d   1     -38.331  13.670  20.689  0.00  0.00     0.001 A 
ATOM     11  C   UNL d   1     -39.006  14.058  18.888  0.00  0.00     0.001 A 
ATOM     12  C   UNL d   1     -38.195  13.581  21.491  0.00  0.00     0.013 A 
ATOM     13  C   UNL d   1     -39.425  14.289  18.241  0.00  0.00     0.013 A 
ENDROOT
BRANCH   6  14
ATOM     14  S   UNL d   1     -40.612  14.916  17.644  0.00  0.00     0.302 S 
ATOM     15  O   UNL d   1     -40.990  14.176  17.643  0.00  0.00    -0.197 OA
ATOM     16  O   UNL d   1     -40.230  15.680  17.636  0.00  0.00    -0.197 OA
ATOM     17  N   UNL d   1     -41.072  15.165  16.972  0.00  0.00    -0.043 N 
ENDBRANCH   6  14
BRANCH   3  18
ATOM     18  N   UNL d   1     -40.878  14.979  20.961  0.00  0.00    -0.096 NA
ATOM     19  O   UNL d   1     -40.951  15.804  21.042  0.00  0.00    -0.061 OA
ENDBRANCH   3  18
BRANCH   7  20
ATOM     20  S   UNL d   1     -38.646  13.783  22.897  0.00  0.00     0.302 S 
ATOM     21  O   UNL d   1     -38.231  14.533  22.857  0.00  0.00    -0.197 OA
ATOM     22  O   UNL d   1     -39.065  13.043  22.885  0.00  0.00    -0.197 OA
ATOM     23  N   UNL d   1     -38.533  13.736  23.698  0.00  0.00    -0.043 N 
ENDBRANCH   7  20
TORSDOF 3
ENDMDL
MODEL 7
REMARK VINA RESULT:      -7.6      8.626      9.379
REMARK  3 active torsions:
REMARK  status: ('A' for Active; 'I' for Inactive)
REMARK    1  A    between atoms: C_9  and  S_1 
REMARK    2  A    between atoms: S_2  and  C_8 
REMARK    3  A    between atoms: N_14  and  C_5 
ROOT
ATOM      1  C   UNL d   1     -40.131  14.895  19.484  0.00  0.00     0.021 A 
ATOM      2  C   UNL d   1     -39.648  14.592  20.713  0.00  0.00     0.021 A 
ATOM      3  C   UNL d   1     -40.219  15.025  20.272  0.00  0.00     0.111 A 
ATOM      4  C   UNL d   1     -39.205  14.190  20.152  0.00  0.00     0.002 A 
ATOM      5  C   UNL d   1     -39.471  14.351  19.389  0.00  0.00     0.002 A 
ATOM      6  C   UNL d   1     -38.887  14.051  21.788  0.00  0.00     0.107 A 
ATOM      7  C   UNL d   1     -40.268  14.903  18.065  0.00  0.00     0.107 A 
ATOM      8  C   UNL d   1     -39.504  14.533  21.508  0.00  0.00     0.015 A 
ATOM      9  C   UNL d   1     -40.527  15.170  18.833  0.00  0.00     0.015 A 
ATOM     10  C   UNL d   1     -39.240  14.108  18.652  0.00  0.00     0.001 A 
ATOM     11  C   UNL d   1     -38.571  13.695  20.449  0.00  0.00     0.001 A 
ATOM     12  C   UNL d   1     -39.631  14.378  17.986  0.00  0.00     0.013 A 
ATOM     13  C   UNL d   1     -38.431  13.639  21.239  0.00  0.00     0.013 A 
ENDROOT
BRANCH   6  14
ATOM     14  S   UNL d   1     -38.756  14.006  22.624  0.00  0.00     0.302 S 
ATOM     15  O   UNL d   1     -39.221  13.317  22.645  0.00  0.00    -0.197 OA
ATOM     16  O   UNL d   1     -38.276  14.713  22.614  0.00  0.00    -0.197 OA
ATOM     17  N   UNL d   1     -38.626  13.958  23.464  0.00  0.00    -0.043 N 
ENDBRANCH   6  14
BRANCH   3  18
ATOM     18  N   UNL d   1     -40.846  15.556  20.549  0.00  0.00    -0.096 NA
ATOM     19  O   UNL d   1     -41.532  15.250  20.905  0.00  0.00    -0.061 OA
ENDBRANCH   3  18
BRANCH   7  20
ATOM     20  S   UNL d   1     -40.710  15.212  17.383  0.00  0.00     0.302 S 
ATOM     21  O   UNL d   1     -41.178  14.495  17.427  0.00  0.00    -0.197 OA
ATOM     22  O   UNL d   1     -40.219  15.906  17.380  0.00  0.00    -0.197 OA
ATOM     23  N   UNL d   1     -41.136  15.480  16.748  0.00  0.00    -0.043 N 
ENDBRANCH   7  20
TORSDOF 3
ENDMDL
MODEL 8
REMARK VINA RESULT:      -7.3      8.792     10.609
REMARK  3 active torsions:
REMARK  status: ('A' for Active; 'I' for Inactive)
REMARK    1  A    between atoms: C_9  and  S_1 
REMARK    2  A    between atoms: S_2  and  C_8 
REMARK    3  A    between atoms: N_14  and  C_5 
ROOT
ATOM      1  C   UNL d   1     -39.530  14.442  17.398  0.00  0.00     0.021 A 
ATOM      2  C   UNL d   1     -40.175  14.711  18.558  0.00  0.00     0.021 A 
ATOM      3  C   UNL d   1     -40.237  14.642  17.721  0.00  0.00     0.111 A 
ATOM      4  C   UNL d   1     -39.391  14.542  18.729  0.00  0.00     0.002 A 
ATOM      5  C   UNL d   1     -38.965  14.373  18.044  0.00  0.00     0.002 A 
ATOM      6  C   UNL d   1     -40.490  14.922  19.931  0.00  0.00     0.107 A 
ATOM      7  C   UNL d   1     -38.474  14.103  16.501  0.00  0.00     0.107 A 
ATOM      8  C   UNL d   1     -40.717  14.896  19.131  0.00  0.00     0.015 A 
ATOM      9  C   UNL d   1     -39.291  14.309  16.635  0.00  0.00     0.015 A 
ATOM     10  C   UNL d   1     -38.194  14.176  17.897  0.00  0.00     0.001 A 
ATOM     11  C   UNL d   1     -39.165  14.571  19.555  0.00  0.00     0.001 A 
ATOM     12  C   UNL d   1     -37.940  14.039  17.132  0.00  0.00     0.013 A 
ATOM     13  C   UNL d   1     -39.705  14.755  20.122  0.00  0.00     0.013 A 
ENDROOT
BRANCH   6  14
ATOM     14  S   UNL d   1     -41.075  15.118  20.511  0.00  0.00     0.302 S 
ATOM     15  O   UNL d   1     -40.892  15.922  20.403  0.00  0.00    -0.197 OA
ATOM     16  O   UNL d   1     -41.271  14.295  20.631  0.00  0.00    -0.197 OA
ATOM     17  N   UNL d   1     -41.662  15.319  21.095  0.00  0.00    -0.043 N 
ENDBRANCH   6  14
BRANCH   3  18
ATOM     18  N   UNL d   1     -40.925  14.754  17.206  0.00  0.00    -0.096 NA
ATOM     19  O   UNL d   1     -41.183  15.519  17.006  0.00  0.00    -0.061 OA
ENDBRANCH   3  18
BRANCH   7  20
ATOM     20  S   UNL d   1     -38.244  13.966  15.675  0.00  0.00     0.302 S 
ATOM     21  O   UNL d   1     -38.355  13.131  15.837  0.00  0.00    -0.197 OA
ATOM     22  O   UNL d   1     -38.147  14.803  15.563  0.00  0.00    -0.197 OA
ATOM     23  N   UNL d   1     -38.032  13.813  14.908  0.00  0.00    -0.043 N 
ENDBRANCH   7  20
TORSDOF 3
ENDMDL
MODEL 9
REMARK VINA RESULT:      -7.2      8.910     10.448
REMARK  3 active torsions:
REMARK  status: ('A' for Active; 'I' for Inactive)
REMARK    1  A    between atoms: C_9  and  S_1 
REMARK    2  A    between atoms: S_2  and  C_8 
REMARK    3  A    between atoms: N_14  and  C_5 
ROOT
ATOM      1  C   UNL d   1     -39.958  14.859  18.578  0.00  0.00     0.021 A 
ATOM      2  C   UNL d   1     -39.328  14.556  17.419  0.00  0.00     0.021 A 
ATOM      3  C   UNL d   1     -39.991  14.928  17.779  0.00  0.00     0.111 A 
ATOM      4  C   UNL d   1     -38.887  14.256  18.041  0.00  0.00     0.002 A 
ATOM      5  C   UNL d   1     -39.241  14.422  18.766  0.00  0.00     0.002 A 
ATOM      6  C   UNL d   1     -38.404  14.067  16.451  0.00  0.00     0.107 A 
ATOM      7  C   UNL d   1     -40.225  14.931  19.977  0.00  0.00     0.107 A 
ATOM      8  C   UNL d   1     -39.105  14.472  16.644  0.00  0.00     0.015 A 
ATOM      9  C   UNL d   1     -40.446  15.113  19.174  0.00  0.00     0.015 A 
ATOM     10  C   UNL d   1     -39.048  14.259  19.535  0.00  0.00     0.001 A 
ATOM     11  C   UNL d   1     -38.166  13.840  17.834  0.00  0.00     0.001 A 
ATOM     12  C   UNL d   1     -39.531  14.509  20.146  0.00  0.00     0.013 A 
ATOM     13  C   UNL d   1     -37.948  13.758  17.064  0.00  0.00     0.013 A 
ENDROOT
BRANCH   6  14
ATOM     14  S   UNL d   1     -38.192  13.992  15.634  0.00  0.00     0.302 S 
ATOM     15  O   UNL d   1     -38.407  13.190  15.667  0.00  0.00    -0.197 OA
ATOM     16  O   UNL d   1     -37.968  14.816  15.588  0.00  0.00    -0.197 OA
ATOM     17  N   UNL d   1     -37.980  13.913  14.813  0.00  0.00    -0.043 N 
ENDBRANCH   6  14
BRANCH   3  18
ATOM     18  N   UNL d   1     -40.657  15.347  17.414  0.00  0.00    -0.096 NA
ATOM     19  O   UNL d   1     -41.259  14.924  17.026  0.00  0.00    -0.061 OA
ENDBRANCH   3  18
BRANCH   7  20
ATOM     20  S   UNL d   1     -40.765  15.214  20.596  0.00  0.00     0.302 S 
ATOM     21  O   UNL d   1     -41.201  14.486  20.475  0.00  0.00    -0.197 OA
ATOM     22  O   UNL d   1     -40.299  15.920  20.680  0.00  0.00    -0.197 OA
ATOM     23  N   UNL d   1     -41.282  15.456  21.171  0.00  0.00    -0.043 N 
ENDBRANCH   7  20
TORSDOF 3
ENDMDL
