MODEL 1
REMARK VINA RESULT:      -3.6      0.000      0.000
REMARK  3 active torsions:
REMARK  status: ('A' for Active; 'I' for Inactive)
REMARK    1  A    between atoms: C_9  and  C_1 
REMARK    2  A    between atoms: C_4  and  C_9 
REMARK       I    between atoms: N_5  and  C_4 
REMARK    3  A    between atoms: C_10  and  N_8 
ROOT
ATOM      1  C   UNL d   1      33.117  20.112 -23.446  0.00  0.00     0.265 C 
ATOM      2  N   UNL d   1      32.872  19.339 -23.597  0.00  0.00    -0.269 N 
ATOM      3  N   UNL d   1      32.378  17.775 -23.889  0.00  0.00    -0.299 N 
ATOM      4  C   UNL d   1      32.747  18.815 -22.956  0.00  0.00     0.102 A 
ATOM      5  C   UNL d   1      32.752  19.083 -24.362  0.00  0.00     0.102 A 
ATOM      6  C   UNL d   1      32.507  18.308 -24.504  0.00  0.00     0.100 A 
ATOM      7  C   UNL d   1      32.502  18.040 -23.098  0.00  0.00     0.100 A 
ATOM      8  O   UNL d   1      33.241  20.630 -24.075  0.00  0.00    -0.267 OA
ENDROOT
BRANCH   1   9
ATOM      9  C   UNL d   1      33.240  20.374 -22.667  0.00  0.00     0.063 C 
BRANCH   9  10
ATOM     10  C   UNL d   1      33.119  21.172 -22.480  0.00  0.00     0.024 A 
ATOM     11  C   UNL d   1      33.240  21.799 -22.990  0.00  0.00     0.080 A 
ATOM     12  N   UNL d   1      33.054  22.497 -22.585  0.00  0.00    -0.303 N 
ATOM     13  C   UNL d   1      33.094  23.264 -22.881  0.00  0.00     0.100 C 
ATOM     14  C   UNL d   1      32.819  22.285 -21.825  0.00  0.00     0.064 A 
ATOM     15  C   UNL d   1      32.861  21.472 -21.765  0.00  0.00     0.018 A 
ATOM     16  C   UNL d   1      32.572  22.742 -21.179  0.00  0.00     0.018 A 
ATOM     17  C   UNL d   1      32.655  21.103 -21.057  0.00  0.00     0.002 A 
ATOM     18  C   UNL d   1      32.410  21.551 -20.417  0.00  0.00     0.000 A 
ATOM     19  C   UNL d   1      32.368  22.372 -20.475  0.00  0.00     0.002 A 
ENDBRANCH   9  10
ENDBRANCH   1   9
BRANCH   3  20
ATOM     20  C   UNL d   1      32.137  17.011 -24.023  0.00  0.00     0.092 A 
ATOM     21  C   UNL d   1      31.331  16.826 -24.069  0.00  0.00     0.156 A 
ATOM     22  F   UNL d   1      30.777  17.419 -23.979  0.00  0.00    -0.203 F 
ATOM     23  C   UNL d   1      31.096  16.044 -24.206  0.00  0.00     0.031 A 
ATOM     24  C   UNL d   1      31.671  15.453 -24.296  0.00  0.00     0.002 A 
ATOM     25  C   UNL d   1      32.464  15.640 -24.250  0.00  0.00     0.002 A 
ATOM     26  C   UNL d   1      32.695  16.421 -24.113  0.00  0.00     0.020 A 
ENDBRANCH   3  20
TORSDOF 3
ENDMDL
MODEL 2
REMARK VINA RESULT:      -1.8      1.295      2.026
REMARK  3 active torsions:
REMARK  status: ('A' for Active; 'I' for Inactive)
REMARK    1  A    between atoms: C_9  and  C_1 
REMARK    2  A    between atoms: C_4  and  C_9 
REMARK       I    between atoms: N_5  and  C_4 
REMARK    3  A    between atoms: C_10  and  N_8 
ROOT
ATOM      1  C   UNL d   1      33.163  20.268 -21.355  0.00  0.00     0.265 C 
ATOM      2  N   UNL d   1      33.045  19.732 -21.971  0.00  0.00    -0.269 N 
ATOM      3  N   UNL d   1      32.807  18.657 -23.222  0.00  0.00    -0.299 N 
ATOM      4  C   UNL d   1      33.003  20.012 -22.759  0.00  0.00     0.102 A 
ATOM      5  C   UNL d   1      32.970  18.933 -21.818  0.00  0.00     0.102 A 
ATOM      6  C   UNL d   1      32.852  18.404 -22.440  0.00  0.00     0.100 A 
ATOM      7  C   UNL d   1      32.885  19.482 -23.380  0.00  0.00     0.100 A 
ATOM      8  O   UNL d   1      33.205  19.995 -20.580  0.00  0.00    -0.267 OA
ENDROOT
BRANCH   1   9
ATOM      9  C   UNL d   1      33.240  21.082 -21.511  0.00  0.00     0.063 C 
BRANCH   9  10
ATOM     10  C   UNL d   1      32.912  21.630 -20.984  0.00  0.00     0.024 A 
ATOM     11  C   UNL d   1      32.958  21.587 -20.169  0.00  0.00     0.080 A 
ATOM     12  N   UNL d   1      32.559  22.242 -19.856  0.00  0.00    -0.303 N 
ATOM     13  C   UNL d   1      32.464  22.426 -19.059  0.00  0.00     0.100 C 
ATOM     14  C   UNL d   1      32.272  22.681 -20.490  0.00  0.00     0.064 A 
ATOM     15  C   UNL d   1      32.490  22.303 -21.179  0.00  0.00     0.018 A 
ATOM     16  C   UNL d   1      31.835  23.385 -20.517  0.00  0.00     0.018 A 
ATOM     17  C   UNL d   1      32.274  22.623 -21.908  0.00  0.00     0.002 A 
ATOM     18  C   UNL d   1      31.843  23.318 -21.939  0.00  0.00     0.000 A 
ATOM     19  C   UNL d   1      31.621  23.702 -21.244  0.00  0.00     0.002 A 
ENDBRANCH   9  10
ENDBRANCH   1   9
BRANCH   3  20
ATOM     20  C   UNL d   1      32.691  18.139 -23.838  0.00  0.00     0.092 A 
ATOM     21  C   UNL d   1      32.043  17.624 -23.837  0.00  0.00     0.156 A 
ATOM     22  F   UNL d   1      31.517  17.639 -23.212  0.00  0.00    -0.203 F 
ATOM     23  C   UNL d   1      31.934  17.101 -24.470  0.00  0.00     0.031 A 
ATOM     24  C   UNL d   1      32.476  17.098 -25.097  0.00  0.00     0.002 A 
ATOM     25  C   UNL d   1      33.113  17.607 -25.092  0.00  0.00     0.002 A 
ATOM     26  C   UNL d   1      33.219  18.128 -24.461  0.00  0.00     0.020 A 
ENDBRANCH   3  20
TORSDOF 3
ENDMDL
MODEL 3
REMARK VINA RESULT:      -1.2      1.505      5.435
REMARK  3 active torsions:
REMARK  status: ('A' for Active; 'I' for Inactive)
REMARK    1  A    between atoms: C_9  and  C_1 
REMARK    2  A    between atoms: C_4  and  C_9 
REMARK       I    between atoms: N_5  and  C_4 
REMARK    3  A    between atoms: C_10  and  N_8 
ROOT
ATOM      1  C   UNL d   1      33.039  18.988 -22.469  0.00  0.00     0.265 C 
ATOM      2  N   UNL d   1      32.965  19.766 -22.203  0.00  0.00    -0.269 N 
ATOM      3  N   UNL d   1      32.812  21.339 -21.678  0.00  0.00    -0.299 N 
ATOM      4  C   UNL d   1      32.761  20.369 -22.747  0.00  0.00     0.102 A 
ATOM      5  C   UNL d   1      33.089  19.950 -21.418  0.00  0.00     0.102 A 
ATOM      6  C   UNL d   1      33.012  20.731 -21.161  0.00  0.00     0.100 A 
ATOM      7  C   UNL d   1      32.684  21.149 -22.489  0.00  0.00     0.100 A 
ATOM      8  O   UNL d   1      33.240  18.393 -21.936  0.00  0.00    -0.267 OA
ENDROOT
BRANCH   1   9
ATOM      9  C   UNL d   1      32.913  18.800 -23.269  0.00  0.00     0.063 C 
BRANCH   9  10
ATOM     10  C   UNL d   1      32.774  18.012 -23.486  0.00  0.00     0.024 A 
ATOM     11  C   UNL d   1      33.240  17.375 -23.271  0.00  0.00     0.080 A 
ATOM     12  N   UNL d   1      32.907  16.693 -23.603  0.00  0.00    -0.303 N 
ATOM     13  C   UNL d   1      33.189  15.923 -23.532  0.00  0.00     0.100 C 
ATOM     14  C   UNL d   1      32.236  16.924 -24.019  0.00  0.00     0.064 A 
ATOM     15  C   UNL d   1      32.158  17.734 -23.945  0.00  0.00     0.018 A 
ATOM     16  C   UNL d   1      31.685  16.489 -24.459  0.00  0.00     0.018 A 
ATOM     17  C   UNL d   1      31.527  18.119 -24.311  0.00  0.00     0.002 A 
ATOM     18  C   UNL d   1      30.982  17.693 -24.746  0.00  0.00     0.000 A 
ATOM     19  C   UNL d   1      31.058  16.875 -24.822  0.00  0.00     0.002 A 
ENDBRANCH   9  10
ENDBRANCH   1   9
BRANCH   3  20
ATOM     20  C   UNL d   1      32.736  22.110 -21.429  0.00  0.00     0.092 A 
ATOM     21  C   UNL d   1      32.152  22.319 -20.882  0.00  0.00     0.156 A 
ATOM     22  F   UNL d   1      31.649  21.744 -20.590  0.00  0.00    -0.203 F 
ATOM     23  C   UNL d   1      32.082  23.106 -20.635  0.00  0.00     0.031 A 
ATOM     24  C   UNL d   1      32.600  23.678 -20.939  0.00  0.00     0.002 A 
ATOM     25  C   UNL d   1      33.174  23.467 -21.479  0.00  0.00     0.002 A 
ATOM     26  C   UNL d   1      33.241  22.681 -21.723  0.00  0.00     0.020 A 
ENDBRANCH   3  20
TORSDOF 3
ENDMDL
