MODEL 1
REMARK VINA RESULT:      79.2      0.000      0.000
REMARK  3 active torsions:
REMARK  status: ('A' for Active; 'I' for Inactive)
REMARK    1  A    between atoms: N_9  and  C_3 
REMARK    2  A    between atoms: C_12  and  C_5 
REMARK    3  A    between atoms: C_17  and  N_10 
ROOT
ATOM      1  N   UNL d   1      14.692  14.958  -2.080  0.00  0.00    -0.196 N 
ATOM      2  C   UNL d   1      14.771  14.548  -1.368  0.00  0.00     0.167 A 
ATOM      3  C   UNL d   1      14.841  15.767  -2.108  0.00  0.00     0.152 A 
ATOM      4  N   UNL d   1      14.462  14.425  -2.660  0.00  0.00    -0.163 NA
ATOM      5  C   UNL d   1      14.590  13.760  -1.506  0.00  0.00     0.055 A 
ATOM      6  C   UNL d   1      14.399  13.680  -2.300  0.00  0.00     0.104 A 
ATOM      7  N   UNL d   1      14.999  14.947  -0.685  0.00  0.00    -0.227 NA
ATOM      8  C   UNL d   1      15.071  16.174  -1.421  0.00  0.00     0.057 A 
ATOM      9  C   UNL d   1      15.150  15.764  -0.710  0.00  0.00     0.086 A 
ATOM     10  C   UNL d   1      14.181  12.980  -2.679  0.00  0.00     0.023 C 
ATOM     11  C   UNL d   1      15.379  16.165  -0.021  0.00  0.00     0.021 C 
ENDROOT
BRANCH   3  12
ATOM     12  N   UNL d   1      14.761  16.181  -2.826  0.00  0.00    -0.286 N 
ATOM     13  C   UNL d   1      14.316  15.851  -3.446  0.00  0.00     0.101 A 
ATOM     14  C   UNL d   1      14.237  16.261  -4.157  0.00  0.00     0.100 A 
ATOM     15  N   UNL d   1      14.603  17.001  -4.249  0.00  0.00    -0.301 N 
ATOM     16  C   UNL d   1      15.043  17.325  -3.634  0.00  0.00     0.100 A 
ATOM     17  C   UNL d   1      15.122  16.915  -2.922  0.00  0.00     0.101 A 
BRANCH  15  18
ATOM     18  C   UNL d   1      14.523  17.413  -4.964  0.00  0.00     0.064 A 
ATOM     19  C   UNL d   1      14.789  18.190  -5.025  0.00  0.00     0.018 A 
ATOM     20  C   UNL d   1      14.637  18.451  -5.794  0.00  0.00     0.002 A 
ATOM     21  C   UNL d   1      14.279  17.835  -6.202  0.00  0.00     0.002 A 
ATOM     22  C   UNL d   1      14.208  17.199  -5.700  0.00  0.00     0.018 A 
ENDBRANCH  15  18
ENDBRANCH   3  12
BRANCH   5  23
ATOM     23  C   UNL d   1      14.573  13.102  -1.014  0.00  0.00     0.004 A 
ATOM     24  C   UNL d   1      13.924  12.979  -0.506  0.00  0.00     0.000 A 
ATOM     25  C   UNL d   1      13.908  12.320  -0.014  0.00  0.00     0.000 A 
ATOM     26  C   UNL d   1      14.532  11.779  -0.021  0.00  0.00     0.000 A 
ATOM     27  C   UNL d   1      15.176  11.897  -0.523  0.00  0.00     0.000 A 
ATOM     28  C   UNL d   1      15.197  12.561  -1.022  0.00  0.00     0.000 A 
ENDBRANCH   5  23
TORSDOF 3
ENDMDL
MODEL 2
REMARK VINA RESULT:      81.7      1.491      2.299
REMARK  3 active torsions:
REMARK  status: ('A' for Active; 'I' for Inactive)
REMARK    1  A    between atoms: N_9  and  C_3 
REMARK    2  A    between atoms: C_12  and  C_5 
REMARK    3  A    between atoms: C_17  and  N_10 
ROOT
ATOM      1  N   UNL d   1      14.125  15.394  -3.846  0.00  0.00    -0.196 N 
ATOM      2  C   UNL d   1      14.095  14.712  -3.383  0.00  0.00     0.167 A 
ATOM      3  C   UNL d   1      14.486  16.074  -3.556  0.00  0.00     0.152 A 
ATOM      4  N   UNL d   1      13.755  15.236  -4.562  0.00  0.00    -0.163 NA
ATOM      5  C   UNL d   1      13.706  14.130  -3.811  0.00  0.00     0.055 A 
ATOM      6  C   UNL d   1      13.495  14.448  -4.537  0.00  0.00     0.104 A 
ATOM      7  N   UNL d   1      14.426  14.710  -2.629  0.00  0.00    -0.227 NA
ATOM      8  C   UNL d   1      14.822  16.077  -2.797  0.00  0.00     0.057 A 
ATOM      9  C   UNL d   1      14.792  15.395  -2.333  0.00  0.00     0.086 A 
ATOM     10  C   UNL d   1      13.094  14.056  -5.141  0.00  0.00     0.023 C 
ATOM     11  C   UNL d   1      15.126  15.391  -1.574  0.00  0.00     0.021 C 
ENDROOT
BRANCH   3  12
ATOM     12  N   UNL d   1      14.517  16.763  -4.024  0.00  0.00    -0.286 N 
ATOM     13  C   UNL d   1      14.156  17.461  -3.754  0.00  0.00     0.101 A 
ATOM     14  C   UNL d   1      14.186  18.143  -4.218  0.00  0.00     0.100 A 
ATOM     15  N   UNL d   1      14.577  18.127  -4.950  0.00  0.00    -0.301 N 
ATOM     16  C   UNL d   1      14.932  17.433  -5.214  0.00  0.00     0.100 A 
ATOM     17  C   UNL d   1      14.902  16.751  -4.751  0.00  0.00     0.101 A 
BRANCH  15  18
ATOM     18  C   UNL d   1      14.607  18.812  -5.416  0.00  0.00     0.064 A 
ATOM     19  C   UNL d   1      14.049  18.932  -6.010  0.00  0.00     0.018 A 
ATOM     20  C   UNL d   1      14.219  19.654  -6.375  0.00  0.00     0.002 A 
ATOM     21  C   UNL d   1      14.878  19.974  -6.005  0.00  0.00     0.002 A 
ATOM     22  C   UNL d   1      15.119  19.464  -5.419  0.00  0.00     0.018 A 
ENDBRANCH  15  18
ENDBRANCH   3  12
BRANCH   5  23
ATOM     23  C   UNL d   1      13.514  13.350  -3.637  0.00  0.00     0.004 A 
ATOM     24  C   UNL d   1      13.866  12.972  -2.983  0.00  0.00     0.000 A 
ATOM     25  C   UNL d   1      13.674  12.191  -2.809  0.00  0.00     0.000 A 
ATOM     26  C   UNL d   1      13.134  11.780  -3.280  0.00  0.00     0.000 A 
ATOM     27  C   UNL d   1      12.784  12.151  -3.928  0.00  0.00     0.000 A 
ATOM     28  C   UNL d   1      12.975  12.939  -4.107  0.00  0.00     0.000 A 
ENDBRANCH   5  23
TORSDOF 3
ENDMDL
