MODEL 1
REMARK VINA RESULT:      25.4      0.000      0.000
REMARK  4 active torsions:
REMARK  status: ('A' for Active; 'I' for Inactive)
REMARK    1  A    between atoms: C_2  and  C_1 
REMARK    2  A    between atoms: C_15  and  C_8 
REMARK    3  A    between atoms: C_9  and  C_15 
REMARK    4  A    between atoms: C_18  and  C_10 
ROOT
ATOM      1  C   UNL d   1      45.414 -15.825  44.649  0.00  0.00     0.094 A 
ATOM      2  N   UNL d   1      46.125 -16.235  44.736  0.00  0.00    -0.238 NA
ATOM      3  C   UNL d   1      45.946 -17.033  44.845  0.00  0.00     0.113 A 
ATOM      4  S   UNL d   1      45.131 -17.121  44.827  0.00  0.00    -0.066 SA
ATOM      5  C   UNL d   1      44.799 -16.375  44.706  0.00  0.00     0.056 A 
ENDROOT
BRANCH   3   6
ATOM      6  C   UNL d   1      46.499 -17.640  44.954  0.00  0.00     0.051 C 
BRANCH   6   7
ATOM      7  C   UNL d   1      46.535 -18.261  44.411  0.00  0.00     0.113 A 
ATOM      8  N   UNL d   1      46.520 -18.193  43.589  0.00  0.00    -0.238 NA
ATOM      9  C   UNL d   1      46.569 -18.952  43.269  0.00  0.00     0.088 A 
ATOM     10  C   UNL d   1      46.613 -19.489  43.893  0.00  0.00     0.056 A 
ATOM     11  S   UNL d   1      46.592 -19.063  44.597  0.00  0.00    -0.066 SA
BRANCH   9  12
ATOM     12  C   UNL d   1      46.572 -19.136  42.462  0.00  0.00     0.018 A 
ATOM     13  C   UNL d   1      46.644 -19.910  42.218  0.00  0.00     0.002 A 
ATOM     14  C   UNL d   1      46.647 -20.090  41.413  0.00  0.00     0.007 A 
ATOM     15  C   UNL d   1      46.576 -19.486  40.855  0.00  0.00     0.035 A 
ATOM     16  C   UNL d   1      46.504 -18.712  41.099  0.00  0.00     0.007 A 
ATOM     17 BR   UNL d   1      46.579 -19.666  40.050  0.00  0.00    -0.049 Br
ATOM     18  C   UNL d   1      46.501 -18.528  41.906  0.00  0.00     0.002 A 
ENDBRANCH   9  12
ENDBRANCH   6   7
ENDBRANCH   3   6
BRANCH   1  19
ATOM     19  C   UNL d   1      45.333 -15.013  44.528  0.00  0.00     0.082 A 
ATOM     20  C   UNL d   1      44.603 -14.702  44.297  0.00  0.00     0.302 A 
ATOM     21  O   UNL d   1      44.522 -13.891  44.176  0.00  0.00    -0.273 OA
ATOM     22  O   UNL d   1      43.958 -15.202  44.188  0.00  0.00    -0.259 OA
ATOM     23  C   UNL d   1      45.168 -13.389  44.286  0.00  0.00     0.103 A 
ATOM     24  C   UNL d   1      45.897 -13.701  44.517  0.00  0.00     0.023 A 
ATOM     25  C   UNL d   1      45.086 -12.578  44.165  0.00  0.00     0.025 A 
ATOM     26  C   UNL d   1      45.978 -14.513  44.638  0.00  0.00     0.009 A 
ATOM     27  C   UNL d   1      46.543 -13.200  44.627  0.00  0.00     0.002 A 
ATOM     28  C   UNL d   1      46.459 -12.392  44.506  0.00  0.00     0.000 A 
ATOM     29  C   UNL d   1      45.730 -12.081  44.274  0.00  0.00     0.002 A 
ENDBRANCH   1  19
TORSDOF 4
ENDMDL
