MODEL 1
REMARK VINA RESULT:      17.9      0.000      0.000
REMARK  2 active torsions:
REMARK  status: ('A' for Active; 'I' for Inactive)
REMARK    1  A    between atoms: C_4  and  C_1 
REMARK       I    between atoms: N_8  and  C_4 
REMARK    2  A    between atoms: O_12  and  C_11 
ROOT
ATOM      1  C   UNL d   1      46.594 -18.913  41.790  0.00  0.00     0.120 A 
ATOM      2  C   UNL d   1      46.604 -19.676  42.104  0.00  0.00     0.305 A 
ATOM      3  O   UNL d   1      46.582 -19.785  42.930  0.00  0.00    -0.271 OA
ATOM      4  C   UNL d   1      46.563 -18.250  42.295  0.00  0.00     0.012 A 
ATOM      5  C   UNL d   1      46.552 -19.138  43.428  0.00  0.00     0.125 A 
ATOM      6  C   UNL d   1      46.542 -18.368  43.111  0.00  0.00     0.025 A 
ATOM      7  O   UNL d   1      46.634 -20.327  41.607  0.00  0.00    -0.259 OA
ATOM      8  C   UNL d   1      46.531 -19.236  44.249  0.00  0.00     0.117 A 
ATOM      9  C   UNL d   1      46.511 -17.713  43.615  0.00  0.00     0.002 A 
ATOM     10  C   UNL d   1      46.490 -17.828  44.430  0.00  0.00     0.002 A 
ATOM     11  C   UNL d   1      46.500 -18.586  44.746  0.00  0.00     0.026 A 
ENDROOT
BRANCH   1  12
ATOM     12  C   UNL d   1      46.614 -18.806  40.978  0.00  0.00     0.270 C 
ATOM     13  N   UNL d   1      46.605 -18.052  40.658  0.00  0.00    -0.269 N 
ATOM     14  C   UNL d   1      46.575 -17.402  41.159  0.00  0.00     0.102 C 
ATOM     15  C   UNL d   1      46.626 -17.944  39.847  0.00  0.00     0.102 C 
ATOM     16  O   UNL d   1      46.645 -19.456  40.478  0.00  0.00    -0.266 OA
ENDBRANCH   1  12
BRANCH   8  17
ATOM     17  O   UNL d   1      46.540 -19.994  44.565  0.00  0.00    -0.326 OA
ATOM     18  C   UNL d   1      45.848 -20.330  44.847  0.00  0.00     0.181 C 
ENDBRANCH   8  17
TORSDOF 2
ENDMDL
MODEL 2
REMARK VINA RESULT:      19.9      7.174      7.530
REMARK  2 active torsions:
REMARK  status: ('A' for Active; 'I' for Inactive)
REMARK    1  A    between atoms: C_4  and  C_1 
REMARK       I    between atoms: N_8  and  C_4 
REMARK    2  A    between atoms: O_12  and  C_11 
ROOT
ATOM      1  C   UNL d   1      43.855 -15.677  36.786  0.00  0.00     0.120 A 
ATOM      2  C   UNL d   1      43.774 -15.054  37.322  0.00  0.00     0.305 A 
ATOM      3  O   UNL d   1      44.439 -14.597  37.530  0.00  0.00    -0.271 OA
ATOM      4  C   UNL d   1      44.598 -15.851  36.451  0.00  0.00     0.012 A 
ATOM      5  C   UNL d   1      45.169 -14.764  37.204  0.00  0.00     0.125 A 
ATOM      6  C   UNL d   1      45.251 -15.392  36.663  0.00  0.00     0.025 A 
ATOM      7  O   UNL d   1      43.043 -14.884  37.651  0.00  0.00    -0.259 OA
ATOM      8  C   UNL d   1      45.836 -14.316  37.404  0.00  0.00     0.117 A 
ATOM      9  C   UNL d   1      45.990 -15.562  36.333  0.00  0.00     0.002 A 
ATOM     10  C   UNL d   1      46.643 -15.106  36.543  0.00  0.00     0.002 A 
ATOM     11  C   UNL d   1      46.566 -14.486  37.076  0.00  0.00     0.026 A 
ENDROOT
BRANCH   1  12
ATOM     12  C   UNL d   1      43.201 -16.126  36.582  0.00  0.00     0.270 C 
ATOM     13  N   UNL d   1      42.460 -15.783  36.535  0.00  0.00    -0.269 N 
ATOM     14  C   UNL d   1      42.375 -14.982  36.695  0.00  0.00     0.102 C 
ATOM     15  C   UNL d   1      41.806 -16.232  36.331  0.00  0.00     0.102 C 
ATOM     16  O   UNL d   1      43.286 -16.927  36.422  0.00  0.00    -0.266 OA
ENDBRANCH   1  12
BRANCH   8  17
ATOM     17  O   UNL d   1      45.759 -13.696  37.937  0.00  0.00    -0.326 OA
ATOM     18  C   UNL d   1      46.362 -13.148  38.018  0.00  0.00     0.181 C 
ENDBRANCH   8  17
TORSDOF 2
ENDMDL
