MODEL 1
REMARK VINA RESULT:      34.9      0.000      0.000
REMARK  3 active torsions:
REMARK  status: ('A' for Active; 'I' for Inactive)
REMARK    1  A    between atoms: S_6  and  C_1 
REMARK    2  A    between atoms: C_3  and  C_9 
REMARK       I    between atoms: N_4  and  C_3 
REMARK    3  A    between atoms: C_9  and  S_6 
ROOT
ATOM      1  C   UNL d   1     -56.025 -99.813 -44.500  0.00  0.00     0.114 A 
ATOM      2  C   UNL d   1     -55.674-100.505 -44.229  0.00  0.00     0.042 A 
ATOM      3  N   UNL d   1     -55.767 -99.472 -45.206  0.00  0.00    -0.217 NA
ATOM      4  N   UNL d   1     -54.806-100.521 -45.364  0.00  0.00    -0.224 NA
ATOM      5  C   UNL d   1     -55.157 -99.826 -45.638  0.00  0.00     0.200 A 
ATOM      6  C   UNL d   1     -55.064-100.858 -44.661  0.00  0.00     0.085 A 
ATOM      7  C   UNL d   1     -55.932-100.845 -43.523  0.00  0.00     0.004 A 
ATOM      8  C   UNL d   1     -54.712-101.553 -44.387  0.00  0.00     0.019 A 
ATOM      9  C   UNL d   1     -55.580-101.539 -43.250  0.00  0.00     0.000 A 
ATOM     10  C   UNL d   1     -54.970-101.893 -43.682  0.00  0.00     0.002 A 
ENDROOT
BRANCH   1  11
ATOM     11  S   UNL d   1     -56.635 -99.459 -44.068  0.00  0.00    -0.062 SA
BRANCH  11  12
ATOM     12  C   UNL d   1     -56.977 -98.763 -44.329  0.00  0.00     0.098 C 
BRANCH  12  13
ATOM     13  C   UNL d   1     -57.733 -98.766 -44.661  0.00  0.00     0.271 C 
ATOM     14  N   UNL d   1     -58.404 -98.765 -44.170  0.00  0.00    -0.272 N 
ATOM     15  C   UNL d   1     -58.404 -98.761 -43.357  0.00  0.00     0.083 A 
ATOM     16  C   UNL d   1     -59.188 -98.767 -44.424  0.00  0.00     0.083 A 
ATOM     17  C   UNL d   1     -59.189 -98.761 -43.095  0.00  0.00     0.021 A 
ATOM     18  C   UNL d   1     -59.666 -98.765 -43.767  0.00  0.00     0.021 A 
ATOM     19  O   UNL d   1     -57.821 -98.770 -45.470  0.00  0.00    -0.266 OA
ENDBRANCH  12  13
ENDBRANCH  11  12
ENDBRANCH   1  11
TORSDOF 3
ENDMDL
MODEL 2
REMARK VINA RESULT:      36.6      0.950      1.236
REMARK  3 active torsions:
REMARK  status: ('A' for Active; 'I' for Inactive)
REMARK    1  A    between atoms: S_6  and  C_1 
REMARK    2  A    between atoms: C_3  and  C_9 
REMARK       I    between atoms: N_4  and  C_3 
REMARK    3  A    between atoms: C_9  and  S_6 
ROOT
ATOM      1  C   UNL d   1     -55.292-100.028 -44.606  0.00  0.00     0.114 A 
ATOM      2  C   UNL d   1     -55.104-100.559 -44.007  0.00  0.00     0.042 A 
ATOM      3  N   UNL d   1     -55.281-100.279 -45.393  0.00  0.00    -0.217 NA
ATOM      4  N   UNL d   1     -54.893-101.591 -44.973  0.00  0.00    -0.224 NA
ATOM      5  C   UNL d   1     -55.081-101.060 -45.576  0.00  0.00     0.200 A 
ATOM      6  C   UNL d   1     -54.905-101.340 -44.191  0.00  0.00     0.085 A 
ATOM      7  C   UNL d   1     -55.115-100.308 -43.221  0.00  0.00     0.004 A 
ATOM      8  C   UNL d   1     -54.716-101.871 -43.588  0.00  0.00     0.019 A 
ATOM      9  C   UNL d   1     -54.927-100.839 -42.619  0.00  0.00     0.000 A 
ATOM     10  C   UNL d   1     -54.727-101.621 -42.802  0.00  0.00     0.002 A 
ENDROOT
BRANCH   1  11
ATOM     11  S   UNL d   1     -55.491 -99.248 -44.423  0.00  0.00    -0.062 SA
BRANCH  11  12
ATOM     12  C   UNL d   1     -56.218 -98.943 -44.644  0.00  0.00     0.098 C 
BRANCH  12  13
ATOM     13  C   UNL d   1     -56.828 -98.870 -44.092  0.00  0.00     0.271 C 
ATOM     14  N   UNL d   1     -57.619 -98.839 -44.345  0.00  0.00    -0.272 N 
ATOM     15  C   UNL d   1     -57.877 -98.873 -45.116  0.00  0.00     0.083 A 
ATOM     16  C   UNL d   1     -58.279 -98.767 -43.858  0.00  0.00     0.083 A 
ATOM     17  C   UNL d   1     -58.703 -98.823 -45.118  0.00  0.00     0.021 A 
ATOM     18  C   UNL d   1     -58.941 -98.758 -44.331  0.00  0.00     0.021 A 
ATOM     19  O   UNL d   1     -56.653 -98.829 -43.298  0.00  0.00    -0.266 OA
ENDBRANCH  12  13
ENDBRANCH  11  12
ENDBRANCH   1  11
TORSDOF 3
ENDMDL
