MODEL 1
REMARK VINA RESULT:      -8.6      0.000      0.000
REMARK  7 active torsions:
REMARK  status: ('A' for Active; 'I' for Inactive)
REMARK    1  A    between atoms: C_7  and  C_1 
REMARK    2  A    between atoms: C_8  and  C_2 
REMARK    3  A    between atoms: C_10  and  C_3 
REMARK    4  A    between atoms: O_14  and  C_7 
REMARK    5  A    between atoms: O_15  and  C_8 
REMARK    6  A    between atoms: C_19  and  O_14 
REMARK    7  A    between atoms: C_20  and  O_15 
ROOT
ATOM      1  C   UNL d   1      53.477  33.841  54.429  0.00  0.00     0.100 A 
ATOM      2  C   UNL d   1      53.497  32.643  53.652  0.00  0.00     0.103 A 
ATOM      3  C   UNL d   1      53.125  33.352  53.869  0.00  0.00     0.016 A 
ATOM      4  C   UNL d   1      54.203  33.628  54.777  0.00  0.00     0.171 A 
ATOM      5  C   UNL d   1      54.223  32.430  54.000  0.00  0.00     0.204 A 
ATOM      6  C   UNL d   1      54.574  32.925  54.565  0.00  0.00     0.081 A 
ATOM      7  O   UNL d   1      54.583  31.855  53.864  0.00  0.00    -0.286 OA
ATOM      8  O   UNL d   1      54.024  34.202  55.036  0.00  0.00    -0.289 OA
ATOM      9  C   UNL d   1      54.704  33.673  55.145  0.00  0.00     0.042 C 
ENDROOT
BRANCH   3  10
ATOM     10  C   UNL d   1      52.412  33.562  53.527  0.00  0.00     0.001 A 
ATOM     11  C   UNL d   1      51.699  33.357  53.886  0.00  0.00     0.000 A 
ATOM     12  C   UNL d   1      50.980  33.568  53.541  0.00  0.00     0.000 A 
ATOM     13  C   UNL d   1      50.969  33.986  52.834  0.00  0.00     0.000 A 
ATOM     14  C   UNL d   1      51.680  34.196  52.467  0.00  0.00     0.000 A 
ATOM     15  C   UNL d   1      52.399  33.985  52.812  0.00  0.00     0.000 A 
ENDBRANCH   3  10
BRANCH   2  16
ATOM     16  C   UNL d   1      53.146  32.151  53.091  0.00  0.00     0.303 C 
ATOM     17  O   UNL d   1      53.162  32.344  52.284  0.00  0.00    -0.259 OA
BRANCH  16  18
ATOM     18  O   UNL d   1      52.767  31.454  53.306  0.00  0.00    -0.271 OA
BRANCH  18  19
ATOM     19  C   UNL d   1      52.792  30.793  52.804  0.00  0.00     0.126 C 
ATOM     20  C   UNL d   1      52.441  30.079  53.038  0.00  0.00     0.029 C 
ENDBRANCH  18  19
ENDBRANCH  16  18
ENDBRANCH   2  16
BRANCH   1  21
ATOM     21  C   UNL d   1      53.105  34.547  54.644  0.00  0.00     0.303 C 
ATOM     22  O   UNL d   1      52.479  34.531  55.156  0.00  0.00    -0.259 OA
BRANCH  21  23
ATOM     23  O   UNL d   1      53.354  35.282  54.350  0.00  0.00    -0.271 OA
BRANCH  23  24
ATOM     24  C   UNL d   1      53.165  35.974  54.753  0.00  0.00     0.126 C 
ATOM     25  C   UNL d   1      53.384  36.708  54.436  0.00  0.00     0.029 C 
ENDBRANCH  23  24
ENDBRANCH  21  23
ENDBRANCH   1  21
TORSDOF 7
ENDMDL
MODEL 2
REMARK VINA RESULT:      -8.5      0.785      2.297
REMARK  7 active torsions:
REMARK  status: ('A' for Active; 'I' for Inactive)
REMARK    1  A    between atoms: C_7  and  C_1 
REMARK    2  A    between atoms: C_8  and  C_2 
REMARK    3  A    between atoms: C_10  and  C_3 
REMARK    4  A    between atoms: O_14  and  C_7 
REMARK    5  A    between atoms: O_15  and  C_8 
REMARK    6  A    between atoms: C_19  and  O_14 
REMARK    7  A    between atoms: C_20  and  O_15 
ROOT
ATOM      1  C   UNL d   1      52.619  33.848  53.809  0.00  0.00     0.100 A 
ATOM      2  C   UNL d   1      53.040  32.571  53.327  0.00  0.00     0.103 A 
ATOM      3  C   UNL d   1      53.150  33.220  53.832  0.00  0.00     0.016 A 
ATOM      4  C   UNL d   1      51.975  33.835  53.282  0.00  0.00     0.171 A 
ATOM      5  C   UNL d   1      52.395  32.558  52.800  0.00  0.00     0.204 A 
ATOM      6  C   UNL d   1      51.863  33.193  52.779  0.00  0.00     0.081 A 
ATOM      7  O   UNL d   1      52.248  32.050  52.355  0.00  0.00    -0.286 OA
ATOM      8  O   UNL d   1      51.941  34.397  53.616  0.00  0.00    -0.289 OA
ATOM      9  C   UNL d   1      51.458  34.032  52.993  0.00  0.00     0.042 C 
ENDROOT
BRANCH   3  10
ATOM     10  C   UNL d   1      53.783  33.233  54.350  0.00  0.00     0.001 A 
ATOM     11  C   UNL d   1      53.692  32.982  55.129  0.00  0.00     0.000 A 
ATOM     12  C   UNL d   1      54.331  32.995  55.651  0.00  0.00     0.000 A 
ATOM     13  C   UNL d   1      55.065  33.260  55.398  0.00  0.00     0.000 A 
ATOM     14  C   UNL d   1      55.166  33.515  54.616  0.00  0.00     0.000 A 
ATOM     15  C   UNL d   1      54.527  33.501  54.094  0.00  0.00     0.000 A 
ENDBRANCH   3  10
BRANCH   2  16
ATOM     16  C   UNL d   1      53.571  31.941  53.349  0.00  0.00     0.303 C 
ATOM     17  O   UNL d   1      54.313  31.994  52.982  0.00  0.00    -0.259 OA
BRANCH  16  18
ATOM     18  O   UNL d   1      53.389  31.238  53.733  0.00  0.00    -0.271 OA
BRANCH  18  19
ATOM     19  C   UNL d   1      53.676  30.515  53.441  0.00  0.00     0.126 C 
ATOM     20  C   UNL d   1      53.487  29.805  53.827  0.00  0.00     0.029 C 
ENDBRANCH  18  19
ENDBRANCH  16  18
ENDBRANCH   2  16
BRANCH   1  21
ATOM     21  C   UNL d   1      52.730  34.494  54.313  0.00  0.00     0.303 C 
ATOM     22  O   UNL d   1      52.506  34.440  55.088  0.00  0.00    -0.259 OA
BRANCH  21  23
ATOM     23  O   UNL d   1      53.067  35.205  54.048  0.00  0.00    -0.271 OA
BRANCH  23  24
ATOM     24  C   UNL d   1      52.956  35.898  54.475  0.00  0.00     0.126 C 
ATOM     25  C   UNL d   1      53.459  36.545  54.348  0.00  0.00     0.029 C 
ENDBRANCH  23  24
ENDBRANCH  21  23
ENDBRANCH   1  21
TORSDOF 7
ENDMDL
MODEL 3
REMARK VINA RESULT:      -7.9      0.853      3.934
REMARK  7 active torsions:
REMARK  status: ('A' for Active; 'I' for Inactive)
REMARK    1  A    between atoms: C_7  and  C_1 
REMARK    2  A    between atoms: C_8  and  C_2 
REMARK    3  A    between atoms: C_10  and  C_3 
REMARK    4  A    between atoms: O_14  and  C_7 
REMARK    5  A    between atoms: O_15  and  C_8 
REMARK    6  A    between atoms: C_19  and  O_14 
REMARK    7  A    between atoms: C_20  and  O_15 
ROOT
ATOM      1  C   UNL d   1      52.929  32.756  53.343  0.00  0.00     0.100 A 
ATOM      2  C   UNL d   1      52.607  34.024  53.915  0.00  0.00     0.103 A 
ATOM      3  C   UNL d   1      53.111  33.367  53.862  0.00  0.00     0.016 A 
ATOM      4  C   UNL d   1      52.243  32.793  52.873  0.00  0.00     0.171 A 
ATOM      5  C   UNL d   1      51.921  34.062  53.445  0.00  0.00     0.204 A 
ATOM      6  C   UNL d   1      51.741  33.443  52.923  0.00  0.00     0.081 A 
ATOM      7  O   UNL d   1      51.461  34.578  53.441  0.00  0.00    -0.286 OA
ATOM      8  O   UNL d   1      52.545  32.229  52.733  0.00  0.00    -0.289 OA
ATOM      9  C   UNL d   1      51.818  32.614  52.453  0.00  0.00     0.042 C 
ENDROOT
BRANCH   3  10
ATOM     10  C   UNL d   1      53.785  33.330  54.324  0.00  0.00     0.001 A 
ATOM     11  C   UNL d   1      54.514  33.568  54.022  0.00  0.00     0.000 A 
ATOM     12  C   UNL d   1      55.194  33.531  54.487  0.00  0.00     0.000 A 
ATOM     13  C   UNL d   1      55.150  33.255  55.259  0.00  0.00     0.000 A 
ATOM     14  C   UNL d   1      54.422  33.014  55.572  0.00  0.00     0.000 A 
ATOM     15  C   UNL d   1      53.742  33.051  55.106  0.00  0.00     0.000 A 
ENDBRANCH   3  10
BRANCH   2  16
ATOM     16  C   UNL d   1      52.788  34.638  54.435  0.00  0.00     0.303 C 
ATOM     17  O   UNL d   1      52.668  34.556  55.251  0.00  0.00    -0.259 OA
BRANCH  16  18
ATOM     18  O   UNL d   1      53.093  35.353  54.167  0.00  0.00    -0.271 OA
BRANCH  18  19
ATOM     19  C   UNL d   1      52.976  36.048  54.606  0.00  0.00     0.126 C 
ATOM     20  C   UNL d   1      53.459  36.709  54.476  0.00  0.00     0.029 C 
ENDBRANCH  18  19
ENDBRANCH  16  18
ENDBRANCH   2  16
BRANCH   1  21
ATOM     21  C   UNL d   1      53.433  32.102  53.291  0.00  0.00     0.303 C 
ATOM     22  O   UNL d   1      54.116  32.155  52.863  0.00  0.00    -0.259 OA
BRANCH  21  23
ATOM     23  O   UNL d   1      53.259  31.383  53.669  0.00  0.00    -0.271 OA
BRANCH  23  24
ATOM     24  C   UNL d   1      53.586  30.682  53.391  0.00  0.00     0.126 C 
ATOM     25  C   UNL d   1      53.424  29.969  53.781  0.00  0.00     0.029 C 
ENDBRANCH  23  24
ENDBRANCH  21  23
ENDBRANCH   1  21
TORSDOF 7
ENDMDL
MODEL 4
REMARK VINA RESULT:      -7.9      0.230      3.203
REMARK  7 active torsions:
REMARK  status: ('A' for Active; 'I' for Inactive)
REMARK    1  A    between atoms: C_7  and  C_1 
REMARK    2  A    between atoms: C_8  and  C_2 
REMARK    3  A    between atoms: C_10  and  C_3 
REMARK    4  A    between atoms: O_14  and  C_7 
REMARK    5  A    between atoms: O_15  and  C_8 
REMARK    6  A    between atoms: C_19  and  O_14 
REMARK    7  A    between atoms: C_20  and  O_15 
ROOT
ATOM      1  C   UNL d   1      53.452  32.637  53.662  0.00  0.00     0.100 A 
ATOM      2  C   UNL d   1      53.383  33.857  54.402  0.00  0.00     0.103 A 
ATOM      3  C   UNL d   1      53.059  33.336  53.844  0.00  0.00     0.016 A 
ATOM      4  C   UNL d   1      54.173  32.451  54.036  0.00  0.00     0.171 A 
ATOM      5  C   UNL d   1      54.104  33.671  54.776  0.00  0.00     0.204 A 
ATOM      6  C   UNL d   1      54.498  32.965  54.590  0.00  0.00     0.081 A 
ATOM      7  O   UNL d   1      54.427  34.060  55.247  0.00  0.00    -0.286 OA
ATOM      8  O   UNL d   1      54.034  31.961  53.625  0.00  0.00    -0.289 OA
ATOM      9  C   UNL d   1      54.685  32.125  54.176  0.00  0.00     0.042 C 
ENDROOT
BRANCH   3  10
ATOM     10  C   UNL d   1      52.351  33.519  53.477  0.00  0.00     0.001 A 
ATOM     11  C   UNL d   1      51.633  33.304  53.820  0.00  0.00     0.000 A 
ATOM     12  C   UNL d   1      50.919  33.488  53.450  0.00  0.00     0.000 A 
ATOM     13  C   UNL d   1      50.918  33.889  52.734  0.00  0.00     0.000 A 
ATOM     14  C   UNL d   1      51.634  34.109  52.381  0.00  0.00     0.000 A 
ATOM     15  C   UNL d   1      52.347  33.924  52.751  0.00  0.00     0.000 A 
ENDBRANCH   3  10
BRANCH   2  16
ATOM     16  C   UNL d   1      52.990  34.558  54.585  0.00  0.00     0.303 C 
ATOM     17  O   UNL d   1      52.306  34.554  55.054  0.00  0.00    -0.259 OA
BRANCH  16  18
ATOM     18  O   UNL d   1      53.258  35.286  54.311  0.00  0.00    -0.271 OA
BRANCH  18  19
ATOM     19  C   UNL d   1      53.097  35.979  54.741  0.00  0.00     0.126 C 
ATOM     20  C   UNL d   1      53.386  36.709  54.476  0.00  0.00     0.029 C 
ENDBRANCH  18  19
ENDBRANCH  16  18
ENDBRANCH   2  16
BRANCH   1  21
ATOM     21  C   UNL d   1      53.127  32.119  53.106  0.00  0.00     0.303 C 
ATOM     22  O   UNL d   1      53.184  32.291  52.317  0.00  0.00    -0.259 OA
BRANCH  21  23
ATOM     23  O   UNL d   1      52.740  31.420  53.330  0.00  0.00    -0.271 OA
BRANCH  23  24
ATOM     24  C   UNL d   1      52.712  30.780  52.815  0.00  0.00     0.126 C 
ATOM     25  C   UNL d   1      52.361  30.070  53.059  0.00  0.00     0.029 C 
ENDBRANCH  23  24
ENDBRANCH  21  23
ENDBRANCH   1  21
TORSDOF 7
ENDMDL
MODEL 5
REMARK VINA RESULT:      -7.8      1.084      2.637
REMARK  7 active torsions:
REMARK  status: ('A' for Active; 'I' for Inactive)
REMARK    1  A    between atoms: C_7  and  C_1 
REMARK    2  A    between atoms: C_8  and  C_2 
REMARK    3  A    between atoms: C_10  and  C_3 
REMARK    4  A    between atoms: O_14  and  C_7 
REMARK    5  A    between atoms: O_15  and  C_8 
REMARK    6  A    between atoms: C_19  and  O_14 
REMARK    7  A    between atoms: C_20  and  O_15 
ROOT
ATOM      1  C   UNL d   1      53.383  32.961  53.997  0.00  0.00     0.100 A 
ATOM      2  C   UNL d   1      52.359  33.279  53.054  0.00  0.00     0.103 A 
ATOM      3  C   UNL d   1      52.872  33.512  53.662  0.00  0.00     0.016 A 
ATOM      4  C   UNL d   1      53.386  32.173  53.729  0.00  0.00     0.171 A 
ATOM      5  C   UNL d   1      52.362  32.491  52.785  0.00  0.00     0.204 A 
ATOM      6  C   UNL d   1      52.878  31.938  53.125  0.00  0.00     0.081 A 
ATOM      7  O   UNL d   1      51.961  32.233  52.284  0.00  0.00    -0.286 OA
ATOM      8  O   UNL d   1      53.833  32.219  54.204  0.00  0.00    -0.289 OA
ATOM      9  C   UNL d   1      53.554  31.574  53.694  0.00  0.00     0.042 C 
ENDROOT
BRANCH   3  10
ATOM     10  C   UNL d   1      52.869  34.286  53.927  0.00  0.00     0.001 A 
ATOM     11  C   UNL d   1      53.275  34.872  53.512  0.00  0.00     0.000 A 
ATOM     12  C   UNL d   1      53.272  35.653  53.779  0.00  0.00     0.000 A 
ATOM     13  C   UNL d   1      52.862  35.854  54.461  0.00  0.00     0.000 A 
ATOM     14  C   UNL d   1      52.451  35.272  54.884  0.00  0.00     0.000 A 
ATOM     15  C   UNL d   1      52.454  34.492  54.617  0.00  0.00     0.000 A 
ENDBRANCH   3  10
BRANCH   2  16
ATOM     16  C   UNL d   1      51.846  33.830  52.717  0.00  0.00     0.303 C 
ATOM     17  O   UNL d   1      52.111  34.361  52.138  0.00  0.00    -0.259 OA
BRANCH  16  18
ATOM     18  O   UNL d   1      51.056  33.876  52.941  0.00  0.00    -0.271 OA
BRANCH  18  19
ATOM     19  C   UNL d   1      50.484  34.145  52.401  0.00  0.00     0.126 C 
ATOM     20  C   UNL d   1      49.737  34.381  52.671  0.00  0.00     0.029 C 
ENDBRANCH  18  19
ENDBRANCH  16  18
ENDBRANCH   2  16
BRANCH   1  21
ATOM     21  C   UNL d   1      53.894  33.195  54.604  0.00  0.00     0.303 C 
ATOM     22  O   UNL d   1      53.634  33.192  55.370  0.00  0.00    -0.259 OA
BRANCH  21  23
ATOM     23  O   UNL d   1      54.673  33.436  54.452  0.00  0.00    -0.271 OA
BRANCH  23  24
ATOM     24  C   UNL d   1      55.221  33.471  55.065  0.00  0.00     0.126 C 
ATOM     25  C   UNL d   1      55.937  33.875  54.955  0.00  0.00     0.029 C 
ENDBRANCH  23  24
ENDBRANCH  21  23
ENDBRANCH   1  21
TORSDOF 7
ENDMDL
MODEL 6
REMARK VINA RESULT:      -7.2      1.069      2.964
REMARK  7 active torsions:
REMARK  status: ('A' for Active; 'I' for Inactive)
REMARK    1  A    between atoms: C_7  and  C_1 
REMARK    2  A    between atoms: C_8  and  C_2 
REMARK    3  A    between atoms: C_10  and  C_3 
REMARK    4  A    between atoms: O_14  and  C_7 
REMARK    5  A    between atoms: O_15  and  C_8 
REMARK    6  A    between atoms: C_19  and  O_14 
REMARK    7  A    between atoms: C_20  and  O_15 
ROOT
ATOM      1  C   UNL d   1      52.388  33.186  53.115  0.00  0.00     0.100 A 
ATOM      2  C   UNL d   1      53.401  32.953  54.094  0.00  0.00     0.103 A 
ATOM      3  C   UNL d   1      52.887  33.472  53.702  0.00  0.00     0.016 A 
ATOM      4  C   UNL d   1      52.397  32.378  52.913  0.00  0.00     0.171 A 
ATOM      5  C   UNL d   1      53.410  32.144  53.892  0.00  0.00     0.204 A 
ATOM      6  C   UNL d   1      52.905  31.859  53.299  0.00  0.00     0.081 A 
ATOM      7  O   UNL d   1      53.812  31.661  54.178  0.00  0.00    -0.286 OA
ATOM      8  O   UNL d   1      51.951  32.669  52.531  0.00  0.00    -0.289 OA
ATOM      9  C   UNL d   1      52.239  31.854  52.614  0.00  0.00     0.042 C 
ENDROOT
BRANCH   3  10
ATOM     10  C   UNL d   1      52.878  34.266  53.900  0.00  0.00     0.001 A 
ATOM     11  C   UNL d   1      53.277  34.818  53.437  0.00  0.00     0.000 A 
ATOM     12  C   UNL d   1      53.268  35.619  53.637  0.00  0.00     0.000 A 
ATOM     13  C   UNL d   1      52.859  35.872  54.302  0.00  0.00     0.000 A 
ATOM     14  C   UNL d   1      52.455  35.325  54.774  0.00  0.00     0.000 A 
ATOM     15  C   UNL d   1      52.464  34.525  54.574  0.00  0.00     0.000 A 
ENDBRANCH   3  10
BRANCH   2  16
ATOM     16  C   UNL d   1      53.902  33.239  54.683  0.00  0.00     0.303 C 
ATOM     17  O   UNL d   1      53.637  33.323  55.464  0.00  0.00    -0.259 OA
BRANCH  16  18
ATOM     18  O   UNL d   1      54.679  33.450  54.521  0.00  0.00    -0.271 OA
BRANCH  18  19
ATOM     19  C   UNL d   1      55.241  33.477  55.133  0.00  0.00     0.126 C 
ATOM     20  C   UNL d   1      55.938  33.915  55.039  0.00  0.00     0.029 C 
ENDBRANCH  18  19
ENDBRANCH  16  18
ENDBRANCH   2  16
BRANCH   1  21
ATOM     21  C   UNL d   1      51.876  33.705  52.725  0.00  0.00     0.303 C 
ATOM     22  O   UNL d   1      52.149  34.149  52.107  0.00  0.00    -0.259 OA
BRANCH  21  23
ATOM     23  O   UNL d   1      51.081  33.788  52.949  0.00  0.00    -0.271 OA
BRANCH  23  24
ATOM     24  C   UNL d   1      50.531  34.085  52.415  0.00  0.00     0.126 C 
ATOM     25  C   UNL d   1      49.780  34.314  52.682  0.00  0.00     0.029 C 
ENDBRANCH  23  24
ENDBRANCH  21  23
ENDBRANCH   1  21
TORSDOF 7
ENDMDL
MODEL 7
REMARK VINA RESULT:      -5.9      1.197      2.779
REMARK  7 active torsions:
REMARK  status: ('A' for Active; 'I' for Inactive)
REMARK    1  A    between atoms: C_7  and  C_1 
REMARK    2  A    between atoms: C_8  and  C_2 
REMARK    3  A    between atoms: C_10  and  C_3 
REMARK    4  A    between atoms: O_14  and  C_7 
REMARK    5  A    between atoms: O_15  and  C_8 
REMARK    6  A    between atoms: C_19  and  O_14 
REMARK    7  A    between atoms: C_20  and  O_15 
ROOT
ATOM      1  C   UNL d   1      53.111  34.018  54.369  0.00  0.00     0.100 A 
ATOM      2  C   UNL d   1      51.929  34.120  53.575  0.00  0.00     0.103 A 
ATOM      3  C   UNL d   1      52.583  33.682  53.836  0.00  0.00     0.016 A 
ATOM      4  C   UNL d   1      52.993  34.795  54.646  0.00  0.00     0.171 A 
ATOM      5  C   UNL d   1      51.810  34.897  53.851  0.00  0.00     0.204 A 
ATOM      6  C   UNL d   1      52.346  35.233  54.389  0.00  0.00     0.081 A 
ATOM      7  O   UNL d   1      51.288  35.314  53.674  0.00  0.00    -0.286 OA
ATOM      8  O   UNL d   1      53.538  34.568  54.929  0.00  0.00    -0.289 OA
ATOM      9  C   UNL d   1      53.101  35.318  54.967  0.00  0.00     0.042 C 
ENDROOT
BRANCH   3  10
ATOM     10  C   UNL d   1      52.699  32.919  53.565  0.00  0.00     0.001 A 
ATOM     11  C   UNL d   1      53.152  32.779  52.890  0.00  0.00     0.000 A 
ATOM     12  C   UNL d   1      53.270  32.010  52.616  0.00  0.00     0.000 A 
ATOM     13  C   UNL d   1      52.935  31.375  53.015  0.00  0.00     0.000 A 
ATOM     14  C   UNL d   1      52.479  31.506  53.693  0.00  0.00     0.000 A 
ATOM     15  C   UNL d   1      52.361  32.275  53.967  0.00  0.00     0.000 A 
ENDBRANCH   3  10
BRANCH   2  16
ATOM     16  C   UNL d   1      51.398  33.784  53.040  0.00  0.00     0.303 C 
ATOM     17  O   UNL d   1      50.850  33.213  53.286  0.00  0.00    -0.259 OA
BRANCH  16  18
ATOM     18  O   UNL d   1      51.391  34.001  52.248  0.00  0.00    -0.271 OA
BRANCH  18  19
ATOM     19  C   UNL d   1      50.677  34.003  51.822  0.00  0.00     0.126 C 
ATOM     20  C   UNL d   1      50.661  34.274  51.038  0.00  0.00     0.029 C 
ENDBRANCH  18  19
ENDBRANCH  16  18
ENDBRANCH   2  16
BRANCH   1  21
ATOM     21  C   UNL d   1      53.762  33.580  54.629  0.00  0.00     0.303 C 
ATOM     22  O   UNL d   1      53.668  33.031  55.216  0.00  0.00    -0.259 OA
BRANCH  21  23
ATOM     23  O   UNL d   1      54.519  33.685  54.306  0.00  0.00    -0.271 OA
BRANCH  23  24
ATOM     24  C   UNL d   1      55.187  33.524  54.758  0.00  0.00     0.126 C 
ATOM     25  C   UNL d   1      55.939  33.711  54.463  0.00  0.00     0.029 C 
ENDBRANCH  23  24
ENDBRANCH  21  23
ENDBRANCH   1  21
TORSDOF 7
ENDMDL
