MODEL 1
REMARK VINA RESULT:      25.9      0.000      0.000
REMARK  5 active torsions:
REMARK  status: ('A' for Active; 'I' for Inactive)
REMARK    1  A    between atoms: C_10  and  N_1 
REMARK    2  A    between atoms: C_7  and  C_2 
REMARK    3  A    between atoms: C_3  and  C_11 
REMARK    4  A    between atoms: O_14  and  C_10 
REMARK    5  A    between atoms: C_11  and  O_14 
ROOT
ATOM      1  C   UNL d   1      45.634 -15.468  43.830  0.00  0.00     0.305 C 
ATOM      2  O   UNL d   1      45.944 -15.059  43.178  0.00  0.00    -0.259 OA
ENDROOT
BRANCH   1   3
ATOM      3  C   UNL d   1      44.992 -15.162  44.242  0.00  0.00     0.108 A 
ATOM      4  C   UNL d   1      44.822 -14.359  44.356  0.00  0.00     0.118 A 
ATOM      5  N   UNL d   1      44.134 -14.296  44.795  0.00  0.00    -0.126 NA
ATOM      6  O   UNL d   1      43.875 -15.072  44.955  0.00  0.00    -0.211 OA
ATOM      7  C   UNL d   1      44.406 -15.599  44.612  0.00  0.00     0.132 A 
ATOM      8  C   UNL d   1      44.353 -16.414  44.639  0.00  0.00     0.029 C 
BRANCH   4   9
ATOM      9  C   UNL d   1      45.268 -13.724  44.077  0.00  0.00     0.058 A 
ATOM     10  C   UNL d   1      46.012 -13.573  44.388  0.00  0.00     0.061 A 
ATOM     11 CL   UNL d   1      46.636 -13.801  44.953  0.00  0.00    -0.082 Cl
ATOM     12  C   UNL d   1      46.460 -12.944  44.114  0.00  0.00     0.012 A 
ATOM     13  C   UNL d   1      46.158 -12.461  43.522  0.00  0.00     0.003 A 
ATOM     14  C   UNL d   1      45.399 -12.608  43.199  0.00  0.00     0.030 A 
ATOM     15  C   UNL d   1      44.965 -13.238  43.481  0.00  0.00     0.142 A 
ATOM     16  F   UNL d   1      44.218 -13.396  43.175  0.00  0.00    -0.204 F 
ENDBRANCH   4   9
ENDBRANCH   1   3
BRANCH   1  17
ATOM     17  O   UNL d   1      45.976 -16.188  44.067  0.00  0.00    -0.252 OA
BRANCH  17  18
ATOM     18  C   UNL d   1      46.484 -16.593  43.550  0.00  0.00     0.216 C 
BRANCH  18  19
ATOM     19  N   UNL d   1      46.463 -17.420  43.517  0.00  0.00    -0.218 N 
ATOM     20  C   UNL d   1      46.395 -17.927  44.156  0.00  0.00     0.269 A 
ATOM     21  C   UNL d   1      46.397 -18.704  43.876  0.00  0.00     0.061 A 
ATOM     22  O   UNL d   1      46.335 -17.700  44.954  0.00  0.00    -0.267 OA
ATOM     23  C   UNL d   1      46.344 -19.435  44.257  0.00  0.00     0.005 A 
ATOM     24  C   UNL d   1      46.467 -18.672  43.047  0.00  0.00     0.061 A 
ATOM     25  C   UNL d   1      46.361 -20.129  43.818  0.00  0.00     0.000 A 
ATOM     26  C   UNL d   1      46.431 -20.097  42.989  0.00  0.00     0.000 A 
ATOM     27  C   UNL d   1      46.484 -19.372  42.608  0.00  0.00     0.005 A 
ATOM     28  C   UNL d   1      46.509 -17.876  42.818  0.00  0.00     0.269 A 
ATOM     29  O   UNL d   1      46.581 -17.589  42.053  0.00  0.00    -0.267 OA
ENDBRANCH  18  19
ENDBRANCH  17  18
ENDBRANCH   1  17
TORSDOF 5
ENDMDL
