MODEL 1
REMARK VINA RESULT:      12.3      0.000      0.000
REMARK  3 active torsions:
REMARK  status: ('A' for Active; 'I' for Inactive)
REMARK    1  A    between atoms: C_2  and  N_1 
REMARK    2  A    between atoms: O_14  and  C_5 
REMARK    3  A    between atoms: O_15  and  C_12 
ROOT
ATOM      1  C   UNL d   1     -51.979  25.335  33.336  0.00  0.00     0.092 A 
ATOM      2  C   UNL d   1     -51.575  24.625  33.359  0.00  0.00     0.112 A 
ATOM      3  C   UNL d   1     -51.994  23.913  33.370  0.00  0.00     0.050 A 
ATOM      4  C   UNL d   1     -52.799  25.353  33.324  0.00  0.00     0.022 A 
ATOM      5  C   UNL d   1     -52.819  23.929  33.358  0.00  0.00     0.096 A 
ATOM      6  C   UNL d   1     -53.220  24.651  33.335  0.00  0.00     0.026 A 
ENDROOT
BRANCH   1   7
ATOM      7  N   UNL d   1     -51.559  26.050  33.325  0.00  0.00    -0.240 N 
ATOM      8  C   UNL d   1     -50.742  26.143  33.317  0.00  0.00     0.267 A 
ATOM      9  C   UNL d   1     -50.569  26.940  33.307  0.00  0.00     0.066 A 
ATOM     10  O   UNL d   1     -50.188  25.527  33.319  0.00  0.00    -0.267 OA
ATOM     11  C   UNL d   1     -51.286  27.360  33.308  0.00  0.00     0.066 A 
ATOM     12  C   UNL d   1     -51.898  26.809  33.319  0.00  0.00     0.267 A 
ATOM     13  O   UNL d   1     -52.760  26.997  33.325  0.00  0.00    -0.267 OA
ENDBRANCH   1   7
BRANCH   2  14
ATOM     14  O   UNL d   1     -50.746  24.608  33.371  0.00  0.00    -0.327 OA
ATOM     15  C   UNL d   1     -50.342  23.888  33.313  0.00  0.00     0.181 C 
ENDBRANCH   2  14
BRANCH   5  16
ATOM     16  O   UNL d   1     -53.247  23.215  33.369  0.00  0.00    -0.328 OA
ATOM     17  C   UNL d   1     -54.071  23.222  33.431  0.00  0.00     0.181 C 
ENDBRANCH   5  16
TORSDOF 3
ENDMDL
