MODEL 1
REMARK VINA RESULT:      43.7      0.000      0.000
REMARK  6 active torsions:
REMARK  status: ('A' for Active; 'I' for Inactive)
REMARK    1  A    between atoms: C_2  and  S_1 
REMARK    2  A    between atoms: N_8  and  S_1 
REMARK    3  A    between atoms: C_13  and  N_8 
REMARK    4  A    between atoms: N_9  and  C_14 
REMARK    5  A    between atoms: O_15  and  C_10 
REMARK    6  A    between atoms: C_14  and  C_13 
ROOT
ATOM      1  C   UNL d   1     -51.390  25.718  33.364  0.00  0.00     0.105 A 
ATOM      2  C   UNL d   1     -51.358  24.902  33.355  0.00  0.00     0.014 A 
ATOM      3  C   UNL d   1     -52.053  24.459  33.384  0.00  0.00     0.023 A 
ATOM      4  C   UNL d   1     -52.123  26.103  33.403  0.00  0.00     0.015 A 
ATOM      5  C   UNL d   1     -52.778  24.831  33.422  0.00  0.00     0.094 A 
ATOM      6  C   UNL d   1     -52.818  25.659  33.432  0.00  0.00     0.025 A 
ATOM      7  C   UNL d   1     -50.628  24.522  33.317  0.00  0.00     0.001 A 
ATOM      8  C   UNL d   1     -52.016  23.635  33.375  0.00  0.00     0.002 A 
ATOM      9  C   UNL d   1     -50.591  23.698  33.307  0.00  0.00     0.000 A 
ATOM     10  C   UNL d   1     -51.286  23.254  33.337  0.00  0.00     0.000 A 
ENDROOT
BRANCH   1  11
ATOM     11  S   UNL d   1     -50.695  26.162  33.335  0.00  0.00     0.285 S 
ATOM     12  O   UNL d   1     -50.248  25.461  33.306  0.00  0.00    -0.198 OA
ATOM     13  O   UNL d   1     -51.132  26.849  33.363  0.00  0.00    -0.198 OA
BRANCH  11  14
ATOM     14  N   UNL d   1     -50.000  26.606  33.306  0.00  0.00    -0.155 NA
BRANCH  14  15
ATOM     15  C   UNL d   1     -49.877  27.216  33.835  0.00  0.00     0.131 C 
BRANCH  15  16
ATOM     16  C   UNL d   1     -49.112  27.481  33.996  0.00  0.00     0.102 C 
BRANCH  16  17
ATOM     17  N   UNL d   1     -48.938  27.817  34.728  0.00  0.00    -0.298 N 
ATOM     18  C   UNL d   1     -48.408  28.447  34.778  0.00  0.00     0.107 A 
ATOM     19  C   UNL d   1     -48.231  28.787  35.513  0.00  0.00     0.142 A 
ATOM     20  O   UNL d   1     -48.587  28.493  36.197  0.00  0.00    -0.300 OA
ATOM     21  C   UNL d   1     -49.120  27.859  36.146  0.00  0.00     0.142 A 
ATOM     22  C   UNL d   1     -49.294  27.523  35.412  0.00  0.00     0.107 A 
ENDBRANCH  16  17
ENDBRANCH  15  16
ENDBRANCH  14  15
ENDBRANCH  11  14
ENDBRANCH   1  11
BRANCH   5  23
ATOM     23  O   UNL d   1     -53.478  24.393  33.452  0.00  0.00    -0.328 OA
ATOM     24  C   UNL d   1     -54.204  24.754  33.312  0.00  0.00     0.181 C 
ENDBRANCH   5  23
TORSDOF 6
ENDMDL
