MODEL 1
REMARK VINA RESULT:      -1.8      0.000      0.000
REMARK  4 active torsions:
REMARK  status: ('A' for Active; 'I' for Inactive)
REMARK    1  A    between atoms: C_2  and  N_1 
REMARK    2  A    between atoms: C_12  and  C_5 
REMARK    3  A    between atoms: O_20  and  C_12 
REMARK    4  A    between atoms: C_21  and  C_13 
ROOT
ATOM      1  N   UNL d   1      58.351   0.233  30.439  0.00  0.00    -0.237 N 
ATOM      2  C   UNL d   1      57.545   0.442  30.359  0.00  0.00     0.263 A 
ATOM      3  C   UNL d   1      58.518   0.153  31.250  0.00  0.00     0.263 A 
ATOM      4  C   UNL d   1      57.823   0.310  31.670  0.00  0.00     0.039 A 
ATOM      5  C   UNL d   1      57.221   0.489  31.116  0.00  0.00     0.039 A 
ATOM      6  C   UNL d   1      57.656   0.315  32.492  0.00  0.00     0.049 A 
ATOM      7  C   UNL d   1      56.446   0.674  31.381  0.00  0.00     0.049 A 
ATOM      8  C   UNL d   1      56.870   0.502  32.750  0.00  0.00    -0.026 A 
ATOM      9  C   UNL d   1      56.275   0.680  32.193  0.00  0.00    -0.026 A 
ATOM     10  C   UNL d   1      57.383   0.418  31.754  0.00  0.00     0.018 A 
ATOM     11  O   UNL d   1      59.222  -0.040  31.552  0.00  0.00    -0.267 OA
ATOM     12  O   UNL d   1      57.170   0.569  29.677  0.00  0.00    -0.267 OA
ENDROOT
BRANCH   1  13
ATOM     13  C   UNL d   1      58.869   0.130  29.832  0.00  0.00     0.105 A 
ATOM     14  C   UNL d   1      58.976  -0.544  29.427  0.00  0.00     0.086 A 
ATOM     15  C   UNL d   1      59.540  -0.411  28.872  0.00  0.00     0.014 A 
ATOM     16  C   UNL d   1      59.767   0.343  28.948  0.00  0.00     0.031 A 
ATOM     17  S   UNL d   1      59.362   0.682  29.534  0.00  0.00    -0.069 SA
BRANCH  14  18
ATOM     18  C   UNL d   1      58.591  -1.232  29.550  0.00  0.00     0.298 C 
ATOM     19  O   UNL d   1      57.805  -1.282  29.421  0.00  0.00    -0.259 OA
BRANCH  18  20
ATOM     20  O   UNL d   1      58.997  -1.880  29.806  0.00  0.00    -0.296 OA
ATOM     21  C   UNL d   1      58.749  -2.550  29.468  0.00  0.00     0.185 C 
ENDBRANCH  18  20
ENDBRANCH  14  18
BRANCH  16  22
ATOM     22  C   UNL d   1      60.332   0.632  28.458  0.00  0.00     0.006 C 
ATOM     23  C   UNL d   1      61.121   0.520  28.628  0.00  0.00     0.001 C 
ENDBRANCH  16  22
ENDBRANCH   1  13
TORSDOF 4
ENDMDL
MODEL 2
REMARK VINA RESULT:      -1.5      0.223      1.120
REMARK  4 active torsions:
REMARK  status: ('A' for Active; 'I' for Inactive)
REMARK    1  A    between atoms: C_2  and  N_1 
REMARK    2  A    between atoms: C_12  and  C_5 
REMARK    3  A    between atoms: O_20  and  C_12 
REMARK    4  A    between atoms: C_21  and  C_13 
ROOT
ATOM      1  N   UNL d   1      58.417   0.258  30.542  0.00  0.00    -0.237 N 
ATOM      2  C   UNL d   1      58.655   0.316  31.342  0.00  0.00     0.263 A 
ATOM      3  C   UNL d   1      57.590   0.348  30.512  0.00  0.00     0.263 A 
ATOM      4  C   UNL d   1      57.318   0.461  31.285  0.00  0.00     0.039 A 
ATOM      5  C   UNL d   1      57.979   0.441  31.798  0.00  0.00     0.039 A 
ATOM      6  C   UNL d   1      56.548   0.581  31.594  0.00  0.00     0.049 A 
ATOM      7  C   UNL d   1      57.875   0.541  32.625  0.00  0.00     0.049 A 
ATOM      8  C   UNL d   1      56.451   0.682  32.430  0.00  0.00    -0.026 A 
ATOM      9  C   UNL d   1      57.115   0.661  32.936  0.00  0.00    -0.026 A 
ATOM     10  C   UNL d   1      57.324   0.510  31.743  0.00  0.00     0.018 A 
ATOM     11  O   UNL d   1      57.155   0.327  29.853  0.00  0.00    -0.267 OA
ATOM     12  O   UNL d   1      59.397   0.260  31.604  0.00  0.00    -0.267 OA
ENDROOT
BRANCH   1  13
ATOM     13  C   UNL d   1      58.907   0.136  29.917  0.00  0.00     0.105 A 
ATOM     14  C   UNL d   1      59.005  -0.554  29.534  0.00  0.00     0.086 A 
ATOM     15  C   UNL d   1      59.540  -0.437  28.949  0.00  0.00     0.014 A 
ATOM     16  C   UNL d   1      59.760   0.322  28.983  0.00  0.00     0.031 A 
ATOM     17  S   UNL d   1      59.378   0.681  29.573  0.00  0.00    -0.069 SA
BRANCH  14  18
ATOM     18  C   UNL d   1      58.636  -1.240  29.704  0.00  0.00     0.298 C 
ATOM     19  O   UNL d   1      57.882  -1.361  29.470  0.00  0.00    -0.259 OA
BRANCH  18  20
ATOM     20  O   UNL d   1      59.025  -1.816  30.113  0.00  0.00    -0.296 OA
ATOM     21  C   UNL d   1      58.968  -2.527  29.771  0.00  0.00     0.185 C 
ENDBRANCH  18  20
ENDBRANCH  14  18
BRANCH  16  22
ATOM     22  C   UNL d   1      60.298   0.598  28.455  0.00  0.00     0.006 C 
ATOM     23  C   UNL d   1      61.086   0.412  28.537  0.00  0.00     0.001 C 
ENDBRANCH  16  22
ENDBRANCH   1  13
TORSDOF 4
ENDMDL
MODEL 3
REMARK VINA RESULT:      -1.3      2.326      4.489
REMARK  4 active torsions:
REMARK  status: ('A' for Active; 'I' for Inactive)
REMARK    1  A    between atoms: C_2  and  N_1 
REMARK    2  A    between atoms: C_12  and  C_5 
REMARK    3  A    between atoms: O_20  and  C_12 
REMARK    4  A    between atoms: C_21  and  C_13 
ROOT
ATOM      1  N   UNL d   1      56.631   0.224  32.553  0.00  0.00    -0.237 N 
ATOM      2  C   UNL d   1      57.400   0.406  32.826  0.00  0.00     0.263 A 
ATOM      3  C   UNL d   1      56.655   0.182  31.722  0.00  0.00     0.263 A 
ATOM      4  C   UNL d   1      57.431   0.336  31.482  0.00  0.00     0.039 A 
ATOM      5  C   UNL d   1      57.892   0.475  32.168  0.00  0.00     0.039 A 
ATOM      6  C   UNL d   1      57.785   0.369  30.722  0.00  0.00     0.049 A 
ATOM      7  C   UNL d   1      58.710   0.648  32.098  0.00  0.00     0.049 A 
ATOM      8  C   UNL d   1      58.612   0.544  30.661  0.00  0.00    -0.026 A 
ATOM      9  C   UNL d   1      59.065   0.681  31.349  0.00  0.00    -0.026 A 
ATOM     10  C   UNL d   1      57.881   0.434  31.507  0.00  0.00     0.018 A 
ATOM     11  O   UNL d   1      56.037   0.022  31.257  0.00  0.00    -0.267 OA
ATOM     12  O   UNL d   1      57.609   0.495  33.582  0.00  0.00    -0.267 OA
ENDROOT
BRANCH   1  13
ATOM     13  C   UNL d   1      55.985   0.111  33.018  0.00  0.00     0.105 A 
ATOM     14  C   UNL d   1      55.719  -0.591  33.276  0.00  0.00     0.086 A 
ATOM     15  C   UNL d   1      55.065  -0.458  33.722  0.00  0.00     0.014 A 
ATOM     16  C   UNL d   1      54.942   0.323  33.728  0.00  0.00     0.031 A 
ATOM     17  S   UNL d   1      55.501   0.680  33.299  0.00  0.00    -0.069 SA
BRANCH  14  18
ATOM     18  C   UNL d   1      56.045  -1.302  33.120  0.00  0.00     0.298 C 
ATOM     19  O   UNL d   1      56.646  -1.577  33.568  0.00  0.00    -0.259 OA
BRANCH  18  20
ATOM     20  O   UNL d   1      55.767  -1.746  32.507  0.00  0.00    -0.296 OA
ATOM     21  C   UNL d   1      55.503  -2.455  32.738  0.00  0.00     0.185 C 
ENDBRANCH  18  20
ENDBRANCH  14  18
BRANCH  16  22
ATOM     22  C   UNL d   1      54.318   0.618  34.136  0.00  0.00     0.006 C 
ATOM     23  C   UNL d   1      54.350   0.682  34.947  0.00  0.00     0.001 C 
ENDBRANCH  16  22
ENDBRANCH   1  13
TORSDOF 4
ENDMDL
MODEL 4
REMARK VINA RESULT:      -1.0      2.710      3.842
REMARK  4 active torsions:
REMARK  status: ('A' for Active; 'I' for Inactive)
REMARK    1  A    between atoms: C_2  and  N_1 
REMARK    2  A    between atoms: C_12  and  C_5 
REMARK    3  A    between atoms: O_20  and  C_12 
REMARK    4  A    between atoms: C_21  and  C_13 
ROOT
ATOM      1  N   UNL d   1      56.034   0.248  33.396  0.00  0.00    -0.237 N 
ATOM      2  C   UNL d   1      55.212   0.316  33.534  0.00  0.00     0.263 A 
ATOM      3  C   UNL d   1      56.425   0.334  34.126  0.00  0.00     0.263 A 
ATOM      4  C   UNL d   1      55.852   0.454  34.710  0.00  0.00     0.039 A 
ATOM      5  C   UNL d   1      55.100   0.443  34.341  0.00  0.00     0.039 A 
ATOM      6  C   UNL d   1      55.914   0.573  35.538  0.00  0.00     0.049 A 
ATOM      7  C   UNL d   1      54.404   0.551  34.798  0.00  0.00     0.049 A 
ATOM      8  C   UNL d   1      55.206   0.682  35.992  0.00  0.00    -0.026 A 
ATOM      9  C   UNL d   1      54.460   0.669  35.618  0.00  0.00    -0.026 A 
ATOM     10  C   UNL d   1      55.438   0.507  34.906  0.00  0.00     0.018 A 
ATOM     11  O   UNL d   1      57.208   0.304  34.228  0.00  0.00    -0.267 OA
ATOM     12  O   UNL d   1      54.649   0.266  32.982  0.00  0.00    -0.267 OA
ENDROOT
BRANCH   1  13
ATOM     13  C   UNL d   1      56.379   0.122  32.681  0.00  0.00     0.105 A 
ATOM     14  C   UNL d   1      56.496  -0.588  32.344  0.00  0.00     0.086 A 
ATOM     15  C   UNL d   1      56.854  -0.468  31.637  0.00  0.00     0.014 A 
ATOM     16  C   UNL d   1      56.951   0.313  31.554  0.00  0.00     0.031 A 
ATOM     17  S   UNL d   1      56.662   0.682  32.189  0.00  0.00    -0.069 SA
BRANCH  14  18
ATOM     18  C   UNL d   1      56.292  -1.293  32.654  0.00  0.00     0.298 C 
ATOM     19  O   UNL d   1      56.775  -1.660  33.174  0.00  0.00    -0.259 OA
BRANCH  18  20
ATOM     20  O   UNL d   1      55.595  -1.640  32.442  0.00  0.00    -0.296 OA
ATOM     21  C   UNL d   1      55.603  -2.426  32.537  0.00  0.00     0.185 C 
ENDBRANCH  18  20
ENDBRANCH  14  18
BRANCH  16  22
ATOM     22  C   UNL d   1      57.300   0.596  30.889  0.00  0.00     0.006 C 
ATOM     23  C   UNL d   1      58.110   0.653  30.843  0.00  0.00     0.001 C 
ENDBRANCH  16  22
ENDBRANCH   1  13
TORSDOF 4
ENDMDL
MODEL 5
REMARK VINA RESULT:      -0.4      1.165      1.581
REMARK  4 active torsions:
REMARK  status: ('A' for Active; 'I' for Inactive)
REMARK    1  A    between atoms: C_2  and  N_1 
REMARK    2  A    between atoms: C_12  and  C_5 
REMARK    3  A    between atoms: O_20  and  C_12 
REMARK    4  A    between atoms: C_21  and  C_13 
ROOT
ATOM      1  N   UNL d   1      58.128  -0.593  30.822  0.00  0.00    -0.237 N 
ATOM      2  C   UNL d   1      57.513  -1.144  30.952  0.00  0.00     0.263 A 
ATOM      3  C   UNL d   1      58.017   0.046  31.343  0.00  0.00     0.263 A 
ATOM      4  C   UNL d   1      57.339  -0.106  31.791  0.00  0.00     0.039 A 
ATOM      5  C   UNL d   1      57.028  -0.845  31.548  0.00  0.00     0.039 A 
ATOM      6  C   UNL d   1      56.958   0.333  32.396  0.00  0.00     0.049 A 
ATOM      7  C   UNL d   1      56.333  -1.150  31.908  0.00  0.00     0.049 A 
ATOM      8  C   UNL d   1      56.258   0.018  32.754  0.00  0.00    -0.026 A 
ATOM      9  C   UNL d   1      55.953  -0.719  32.507  0.00  0.00    -0.026 A 
ATOM     10  C   UNL d   1      56.965  -0.323  31.950  0.00  0.00     0.018 A 
ATOM     11  O   UNL d   1      58.484   0.682  31.389  0.00  0.00    -0.267 OA
ATOM     12  O   UNL d   1      57.421  -1.827  30.568  0.00  0.00    -0.267 OA
ENDROOT
BRANCH   1  13
ATOM     13  C   UNL d   1      58.722  -0.673  30.285  0.00  0.00     0.105 A 
ATOM     14  C   UNL d   1      58.663  -0.529  29.506  0.00  0.00     0.086 A 
ATOM     15  C   UNL d   1      59.377  -0.678  29.174  0.00  0.00     0.014 A 
ATOM     16  C   UNL d   1      59.861  -0.910  29.755  0.00  0.00     0.031 A 
ATOM     17  S   UNL d   1      59.468  -0.910  30.439  0.00  0.00    -0.069 SA
BRANCH  14  18
ATOM     18  C   UNL d   1      58.008  -0.281  29.124  0.00  0.00     0.298 C 
ATOM     19  O   UNL d   1      57.517  -0.810  28.782  0.00  0.00    -0.259 OA
BRANCH  18  20
ATOM     20  O   UNL d   1      57.841   0.507  29.082  0.00  0.00    -0.296 OA
ATOM     21  C   UNL d   1      57.337   0.682  28.498  0.00  0.00     0.185 C 
ENDBRANCH  18  20
ENDBRANCH  14  18
BRANCH  16  22
ATOM     22  C   UNL d   1      60.621  -1.097  29.580  0.00  0.00     0.006 C 
ATOM     23  C   UNL d   1      61.131  -0.527  29.300  0.00  0.00     0.001 C 
ENDBRANCH  16  22
ENDBRANCH   1  13
TORSDOF 4
ENDMDL
