MODEL 1
REMARK VINA RESULT:     134.0      0.000      0.000
REMARK  7 active torsions:
REMARK  status: ('A' for Active; 'I' for Inactive)
REMARK    1  A    between atoms: C_7  and  C_1 
REMARK    2  A    between atoms: N_5  and  C_2 
REMARK       I    between atoms: C_8  and  N_5 
REMARK    3  A    between atoms: N_9  and  C_7 
REMARK    4  A    between atoms: C_11  and  C_7 
REMARK    5  A    between atoms: C_15  and  C_8 
REMARK    6  A    between atoms: O_25  and  C_20 
REMARK    7  A    between atoms: C_29  and  O_25 
ROOT
ATOM      1  C   UNL d   1      60.751  48.072  51.425  0.00  0.00     0.066 C 
ENDROOT
BRANCH   1   2
ATOM      2  C   UNL d   1      60.913  47.292  51.223  0.00  0.00     0.041 A 
ATOM      3  C   UNL d   1      61.382  46.972  50.627  0.00  0.00     0.115 A 
ATOM      4  S   UNL d   1      61.336  46.149  50.690  0.00  0.00    -0.068 SA
ATOM      5  C   UNL d   1      60.841  45.978  51.323  0.00  0.00     0.031 A 
ATOM      6  C   UNL d   1      60.576  46.683  51.657  0.00  0.00     0.009 A 
ATOM      7  C   UNL d   1      60.656  45.176  51.564  0.00  0.00     0.007 C 
ATOM      8  C   UNL d   1      60.058  46.788  52.317  0.00  0.00     0.001 C 
BRANCH   3   9
ATOM      9  N   UNL d   1      61.825  47.372  50.059  0.00  0.00    -0.201 NA
ATOM     10  C   UNL d   1      62.130  46.974  49.402  0.00  0.00     0.280 C 
ATOM     11  O   UNL d   1      62.580  47.395  48.832  0.00  0.00    -0.265 OA
BRANCH  10  12
ATOM     12  C   UNL d   1      61.989  46.174  49.316  0.00  0.00     0.058 A 
ATOM     13  C   UNL d   1      61.328  45.920  48.915  0.00  0.00     0.005 A 
ATOM     14  C   UNL d   1      61.185  45.125  48.829  0.00  0.00     0.000 A 
ATOM     15  C   UNL d   1      61.698  44.580  49.140  0.00  0.00     0.000 A 
ATOM     16  C   UNL d   1      62.369  44.828  49.547  0.00  0.00     0.000 A 
ATOM     17  C   UNL d   1      62.519  45.629  49.637  0.00  0.00     0.005 A 
ENDBRANCH  10  12
ENDBRANCH   3   9
ENDBRANCH   1   2
BRANCH   1  18
ATOM     18  N   UNL d   1      61.240  48.474  51.962  0.00  0.00    -0.301 N 
ATOM     19  C   UNL d   1      61.286  48.228  52.769  0.00  0.00     0.100 A 
ATOM     20  C   UNL d   1      61.790  48.655  53.290  0.00  0.00     0.100 A 
ATOM     21  N   UNL d   1      62.238  49.302  53.042  0.00  0.00    -0.299 N 
ATOM     22  C   UNL d   1      62.192  49.548  52.235  0.00  0.00     0.100 A 
ATOM     23  C   UNL d   1      62.730  49.707  53.580  0.00  0.00     0.100 C 
ATOM     24  C   UNL d   1      61.700  49.135  51.714  0.00  0.00     0.100 A 
ENDBRANCH   1  18
BRANCH   1  25
ATOM     25  C   UNL d   1      60.102  48.469  51.100  0.00  0.00     0.016 A 
ATOM     26  C   UNL d   1      60.176  49.256  50.887  0.00  0.00     0.004 A 
ATOM     27  C   UNL d   1      59.550  49.667  50.564  0.00  0.00     0.025 A 
ATOM     28  C   UNL d   1      58.815  49.293  50.443  0.00  0.00     0.100 A 
ATOM     29  C   UNL d   1      58.719  48.475  50.659  0.00  0.00     0.025 A 
ATOM     30  C   UNL d   1      59.377  48.063  50.992  0.00  0.00     0.004 A 
BRANCH  28  31
ATOM     31  O   UNL d   1      58.183  49.708  50.118  0.00  0.00    -0.305 OA
BRANCH  31  32
ATOM     32  C   UNL d   1      57.482  49.312  49.907  0.00  0.00     0.123 C 
ATOM     33  C   UNL d   1      57.014  49.589  49.284  0.00  0.00     0.029 C 
ENDBRANCH  31  32
ENDBRANCH  28  31
ENDBRANCH   1  25
TORSDOF 7
ENDMDL
