MODEL 1
REMARK VINA RESULT:      -5.4      0.000      0.000
REMARK  4 active torsions:
REMARK  status: ('A' for Active; 'I' for Inactive)
REMARK    1  A    between atoms: C_9  and  C_2 
REMARK    2  A    between atoms: C_7  and  C_9 
REMARK       I    between atoms: N_13  and  C_7 
REMARK    3  A    between atoms: C_10  and  C_19 
REMARK    4  A    between atoms: C_19  and  N_13 
ROOT
ATOM      1  C   UNL d   1      56.762   0.035  32.106  0.00  0.00     0.100 A 
ATOM      2  C   UNL d   1      57.487  -0.438  31.094  0.00  0.00     0.032 A 
ATOM      3  O   UNL d   1      57.176   0.658  31.772  0.00  0.00    -0.305 OA
ATOM      4  C   UNL d   1      56.953  -0.652  31.686  0.00  0.00     0.025 A 
ATOM      5  C   UNL d   1      57.629   0.367  31.141  0.00  0.00     0.123 A 
ATOM      6  C   UNL d   1      56.233   0.003  32.740  0.00  0.00     0.023 A 
ATOM      7  C   UNL d   1      56.615  -1.368  31.901  0.00  0.00     0.002 A 
ATOM      8  C   UNL d   1      55.894  -0.723  32.955  0.00  0.00     0.002 A 
ATOM      9  C   UNL d   1      56.088  -1.409  32.532  0.00  0.00     0.000 A 
ATOM     10  C   UNL d   1      56.042   0.682  33.158  0.00  0.00     0.002 C 
ATOM     11  C   UNL d   1      55.369  -0.761  33.583  0.00  0.00     0.000 C 
ENDROOT
BRANCH   2  12
ATOM     12  C   UNL d   1      57.829  -0.952  30.538  0.00  0.00     0.065 C 
BRANCH  12  13
ATOM     13  C   UNL d   1      58.301  -0.659  29.932  0.00  0.00     0.279 C 
ATOM     14  N   UNL d   1      58.692  -1.177  29.429  0.00  0.00    -0.204 NA
ATOM     15  O   UNL d   1      58.381   0.154  29.829  0.00  0.00    -0.265 OA
BRANCH  14  16
ATOM     16  C   UNL d   1      58.619  -1.990  29.522  0.00  0.00     0.127 C 
BRANCH  16  17
ATOM     17  C   UNL d   1      59.155  -2.503  29.171  0.00  0.00     0.119 A 
ATOM     18  O   UNL d   1      59.961  -2.396  29.111  0.00  0.00    -0.304 OA
ATOM     19  C   UNL d   1      60.282  -3.051  28.716  0.00  0.00     0.123 A 
ATOM     20  C   UNL d   1      59.664  -3.567  28.531  0.00  0.00     0.029 A 
ATOM     21  C   UNL d   1      58.964  -3.230  28.812  0.00  0.00     0.028 A 
ENDBRANCH  16  17
ENDBRANCH  14  16
ENDBRANCH  12  13
ENDBRANCH   2  12
TORSDOF 4
ENDMDL
MODEL 2
REMARK VINA RESULT:      -5.0      1.978      2.217
REMARK  4 active torsions:
REMARK  status: ('A' for Active; 'I' for Inactive)
REMARK    1  A    between atoms: C_9  and  C_2 
REMARK    2  A    between atoms: C_7  and  C_9 
REMARK       I    between atoms: N_13  and  C_7 
REMARK    3  A    between atoms: C_10  and  C_19 
REMARK    4  A    between atoms: C_19  and  N_13 
ROOT
ATOM      1  C   UNL d   1      56.471  -0.647  32.257  0.00  0.00     0.100 A 
ATOM      2  C   UNL d   1      57.324  -0.077  31.408  0.00  0.00     0.032 A 
ATOM      3  O   UNL d   1      56.636  -1.183  31.659  0.00  0.00    -0.305 OA
ATOM      4  C   UNL d   1      56.898   0.045  32.104  0.00  0.00     0.025 A 
ATOM      5  C   UNL d   1      57.167  -0.831  31.128  0.00  0.00     0.123 A 
ATOM      6  C   UNL d   1      55.986  -0.699  32.924  0.00  0.00     0.023 A 
ATOM      7  C   UNL d   1      56.839   0.682  32.617  0.00  0.00     0.002 A 
ATOM      8  C   UNL d   1      55.928  -0.053  33.441  0.00  0.00     0.002 A 
ATOM      9  C   UNL d   1      56.358   0.638  33.284  0.00  0.00     0.000 A 
ATOM     10  C   UNL d   1      55.561  -1.384  33.077  0.00  0.00     0.002 C 
ATOM     11  C   UNL d   1      55.448  -0.099  34.103  0.00  0.00     0.000 C 
ENDROOT
BRANCH   2  12
ATOM     12  C   UNL d   1      57.830   0.471  31.044  0.00  0.00     0.065 C 
BRANCH  12  13
ATOM     13  C   UNL d   1      57.789   0.608  30.234  0.00  0.00     0.279 C 
ATOM     14  N   UNL d   1      58.478   0.680  29.794  0.00  0.00    -0.204 NA
ATOM     15  O   UNL d   1      57.055   0.672  29.865  0.00  0.00    -0.265 OA
BRANCH  14  16
ATOM     16  C   UNL d   1      59.215   0.618  30.151  0.00  0.00     0.127 C 
BRANCH  16  17
ATOM     17  C   UNL d   1      59.888   0.477  29.704  0.00  0.00     0.119 A 
ATOM     18  O   UNL d   1      59.980   0.618  28.907  0.00  0.00    -0.304 OA
ATOM     19  C   UNL d   1      60.748   0.394  28.689  0.00  0.00     0.123 A 
ATOM     20  C   UNL d   1      61.133   0.111  29.362  0.00  0.00     0.029 A 
ATOM     21  C   UNL d   1      60.604   0.161  29.993  0.00  0.00     0.028 A 
ENDBRANCH  16  17
ENDBRANCH  14  16
ENDBRANCH  12  13
ENDBRANCH   2  12
TORSDOF 4
ENDMDL
MODEL 3
REMARK VINA RESULT:      -4.7      0.968      4.697
REMARK  4 active torsions:
REMARK  status: ('A' for Active; 'I' for Inactive)
REMARK    1  A    between atoms: C_9  and  C_2 
REMARK    2  A    between atoms: C_7  and  C_9 
REMARK       I    between atoms: N_13  and  C_7 
REMARK    3  A    between atoms: C_10  and  C_19 
REMARK    4  A    between atoms: C_19  and  N_13 
ROOT
ATOM      1  C   UNL d   1      59.705  -1.456  29.188  0.00  0.00     0.100 A 
ATOM      2  C   UNL d   1      58.706  -0.859  29.836  0.00  0.00     0.032 A 
ATOM      3  O   UNL d   1      59.900  -0.666  29.290  0.00  0.00    -0.305 OA
ATOM      4  C   UNL d   1      58.961  -1.581  29.527  0.00  0.00     0.025 A 
ATOM      5  C   UNL d   1      59.279  -0.291  29.693  0.00  0.00     0.123 A 
ATOM      6  C   UNL d   1      60.111  -2.080  28.829  0.00  0.00     0.023 A 
ATOM      7  C   UNL d   1      58.624  -2.328  29.506  0.00  0.00     0.002 A 
ATOM      8  C   UNL d   1      59.767  -2.835  28.810  0.00  0.00     0.002 A 
ATOM      9  C   UNL d   1      59.022  -2.955  29.151  0.00  0.00     0.000 A 
ATOM     10  C   UNL d   1      60.848  -1.958  28.492  0.00  0.00     0.002 C 
ATOM     11  C   UNL d   1      60.165  -3.457  28.455  0.00  0.00     0.000 C 
ENDROOT
BRANCH   2  12
ATOM     12  C   UNL d   1      57.987  -0.723  30.228  0.00  0.00     0.065 C 
BRANCH  12  13
ATOM     13  C   UNL d   1      57.730   0.043  30.381  0.00  0.00     0.279 C 
ATOM     14  N   UNL d   1      57.231   0.190  31.015  0.00  0.00    -0.204 NA
ATOM     15  O   UNL d   1      57.975   0.663  29.897  0.00  0.00    -0.265 OA
BRANCH  14  16
ATOM     16  C   UNL d   1      56.980  -0.420  31.504  0.00  0.00     0.127 C 
BRANCH  16  17
ATOM     17  C   UNL d   1      56.455  -0.278  32.118  0.00  0.00     0.119 A 
ATOM     18  O   UNL d   1      56.148   0.445  32.337  0.00  0.00    -0.304 OA
ATOM     19  C   UNL d   1      55.642   0.328  32.984  0.00  0.00     0.123 A 
ATOM     20  C   UNL d   1      55.639  -0.478  33.165  0.00  0.00     0.029 A 
ATOM     21  C   UNL d   1      56.141  -0.856  32.630  0.00  0.00     0.028 A 
ENDBRANCH  16  17
ENDBRANCH  14  16
ENDBRANCH  12  13
ENDBRANCH   2  12
TORSDOF 4
ENDMDL
MODEL 4
REMARK VINA RESULT:      -4.0      1.794      2.467
REMARK  4 active torsions:
REMARK  status: ('A' for Active; 'I' for Inactive)
REMARK    1  A    between atoms: C_9  and  C_2 
REMARK    2  A    between atoms: C_7  and  C_9 
REMARK       I    between atoms: N_13  and  C_7 
REMARK    3  A    between atoms: C_10  and  C_19 
REMARK    4  A    between atoms: C_19  and  N_13 
ROOT
ATOM      1  C   UNL d   1      56.508   0.632  33.906  0.00  0.00     0.100 A 
ATOM      2  C   UNL d   1      57.315   0.664  32.847  0.00  0.00     0.032 A 
ATOM      3  O   UNL d   1      57.283   0.643  34.173  0.00  0.00    -0.305 OA
ATOM      4  C   UNL d   1      56.523   0.645  33.078  0.00  0.00     0.025 A 
ATOM      5  C   UNL d   1      57.788   0.663  33.515  0.00  0.00     0.123 A 
ATOM      6  C   UNL d   1      55.787   0.612  34.310  0.00  0.00     0.023 A 
ATOM      7  C   UNL d   1      55.819   0.637  32.658  0.00  0.00     0.002 A 
ATOM      8  C   UNL d   1      55.077   0.605  33.881  0.00  0.00     0.002 A 
ATOM      9  C   UNL d   1      55.097   0.617  33.053  0.00  0.00     0.000 A 
ATOM     10  C   UNL d   1      55.770   0.600  35.129  0.00  0.00     0.002 C 
ATOM     11  C   UNL d   1      54.360   0.585  34.276  0.00  0.00     0.000 C 
ENDROOT
BRANCH   2  12
ATOM     12  C   UNL d   1      57.594   0.681  32.065  0.00  0.00     0.065 C 
BRANCH  12  13
ATOM     13  C   UNL d   1      58.393   0.581  31.902  0.00  0.00     0.279 C 
ATOM     14  N   UNL d   1      58.637   0.383  31.144  0.00  0.00    -0.204 NA
ATOM     15  O   UNL d   1      58.950   0.681  32.501  0.00  0.00    -0.265 OA
BRANCH  14  16
ATOM     16  C   UNL d   1      58.090   0.281  30.539  0.00  0.00     0.127 C 
BRANCH  16  17
ATOM     17  C   UNL d   1      58.333   0.073  29.783  0.00  0.00     0.119 A 
ATOM     18  O   UNL d   1      58.737  -0.603  29.573  0.00  0.00    -0.304 OA
ATOM     19  C   UNL d   1      58.867  -0.585  28.754  0.00  0.00     0.123 A 
ATOM     20  C   UNL d   1      58.538   0.112  28.457  0.00  0.00     0.029 A 
ATOM     21  C   UNL d   1      58.206   0.522  29.092  0.00  0.00     0.028 A 
ENDBRANCH  16  17
ENDBRANCH  14  16
ENDBRANCH  12  13
ENDBRANCH   2  12
TORSDOF 4
ENDMDL
MODEL 5
REMARK VINA RESULT:      -3.9      2.215      4.982
REMARK  4 active torsions:
REMARK  status: ('A' for Active; 'I' for Inactive)
REMARK    1  A    between atoms: C_9  and  C_2 
REMARK    2  A    between atoms: C_7  and  C_9 
REMARK       I    between atoms: N_13  and  C_7 
REMARK    3  A    between atoms: C_10  and  C_19 
REMARK    4  A    between atoms: C_19  and  N_13 
ROOT
ATOM      1  C   UNL d   1      58.664   0.473  29.724  0.00  0.00     0.100 A 
ATOM      2  C   UNL d   1      57.773   0.397  30.711  0.00  0.00     0.032 A 
ATOM      3  O   UNL d   1      57.918   0.397  29.392  0.00  0.00    -0.305 OA
ATOM      4  C   UNL d   1      58.578   0.474  30.547  0.00  0.00     0.025 A 
ATOM      5  C   UNL d   1      57.360   0.349  30.005  0.00  0.00     0.123 A 
ATOM      6  C   UNL d   1      59.413   0.542  29.383  0.00  0.00     0.023 A 
ATOM      7  C   UNL d   1      59.240   0.544  31.026  0.00  0.00     0.002 A 
ATOM      8  C   UNL d   1      60.081   0.613  29.870  0.00  0.00     0.002 A 
ATOM      9  C   UNL d   1      59.990   0.613  30.693  0.00  0.00     0.000 A 
ATOM     10  C   UNL d   1      59.501   0.542  28.568  0.00  0.00     0.002 C 
ATOM     11  C   UNL d   1      60.826   0.682  29.537  0.00  0.00     0.000 C 
ENDROOT
BRANCH   2  12
ATOM     12  C   UNL d   1      57.429   0.372  31.466  0.00  0.00     0.065 C 
BRANCH  12  13
ATOM     13  C   UNL d   1      56.973  -0.271  31.699  0.00  0.00     0.279 C 
ATOM     14  N   UNL d   1      56.474  -0.208  32.347  0.00  0.00    -0.204 NA
ATOM     15  O   UNL d   1      57.018  -0.979  31.281  0.00  0.00    -0.265 OA
BRANCH  14  16
ATOM     16  C   UNL d   1      56.421   0.494  32.772  0.00  0.00     0.127 C 
BRANCH  16  17
ATOM     17  C   UNL d   1      55.922   0.556  33.420  0.00  0.00     0.119 A 
ATOM     18  O   UNL d   1      56.147   0.639  34.199  0.00  0.00    -0.304 OA
ATOM     19  C   UNL d   1      55.463   0.681  34.665  0.00  0.00     0.123 A 
ATOM     20  C   UNL d   1      54.808   0.624  34.165  0.00  0.00     0.029 A 
ATOM     21  C   UNL d   1      55.089   0.547  33.393  0.00  0.00     0.028 A 
ENDBRANCH  16  17
ENDBRANCH  14  16
ENDBRANCH  12  13
ENDBRANCH   2  12
TORSDOF 4
ENDMDL
MODEL 6
REMARK VINA RESULT:      -3.3      8.826      9.613
REMARK  4 active torsions:
REMARK  status: ('A' for Active; 'I' for Inactive)
REMARK    1  A    between atoms: C_9  and  C_2 
REMARK    2  A    between atoms: C_7  and  C_9 
REMARK       I    between atoms: N_13  and  C_7 
REMARK    3  A    between atoms: C_10  and  C_19 
REMARK    4  A    between atoms: C_19  and  N_13 
ROOT
ATOM      1  C   UNL d   1      58.663  -9.817  30.583  0.00  0.00     0.100 A 
ATOM      2  C   UNL d   1      59.231  -9.816  31.787  0.00  0.00     0.032 A 
ATOM      3  O   UNL d   1      59.476  -9.816  30.484  0.00  0.00    -0.305 OA
ATOM      4  C   UNL d   1      58.504  -9.817  31.395  0.00  0.00     0.025 A 
ATOM      5  C   UNL d   1      59.833  -9.816  31.233  0.00  0.00     0.123 A 
ATOM      6  C   UNL d   1      58.043  -9.817  30.037  0.00  0.00     0.023 A 
ATOM      7  C   UNL d   1      57.728  -9.818  31.659  0.00  0.00     0.002 A 
ATOM      8  C   UNL d   1      57.258  -9.818  30.306  0.00  0.00     0.002 A 
ATOM      9  C   UNL d   1      57.104  -9.818  31.121  0.00  0.00     0.000 A 
ATOM     10  C   UNL d   1      58.197  -9.817  29.231  0.00  0.00     0.002 C 
ATOM     11  C   UNL d   1      56.640  -9.818  29.770  0.00  0.00     0.000 C 
ENDROOT
BRANCH   2  12
ATOM     12  C   UNL d   1      59.339  -9.817  32.611  0.00  0.00     0.065 C 
BRANCH  12  13
ATOM     13  C   UNL d   1      60.055  -9.581  32.940  0.00  0.00     0.279 C 
ATOM     14  N   UNL d   1      60.088  -9.344  33.724  0.00  0.00    -0.204 NA
ATOM     15  O   UNL d   1      60.739  -9.584  32.480  0.00  0.00    -0.265 OA
BRANCH  14  16
ATOM     16  C   UNL d   1      59.413  -9.337  34.191  0.00  0.00     0.127 C 
BRANCH  16  17
ATOM     17  C   UNL d   1      59.448  -9.105  34.978  0.00  0.00     0.119 A 
ATOM     18  O   UNL d   1      59.603  -8.355  35.256  0.00  0.00    -0.304 OA
ATOM     19  C   UNL d   1      59.583  -8.375  36.085  0.00  0.00     0.123 A 
ATOM     20  C   UNL d   1      59.413  -9.148  36.319  0.00  0.00     0.029 A 
ATOM     21  C   UNL d   1      59.328  -9.604  35.635  0.00  0.00     0.028 A 
ENDBRANCH  16  17
ENDBRANCH  14  16
ENDBRANCH  12  13
ENDBRANCH   2  12
TORSDOF 4
ENDMDL
