MODEL 1
REMARK VINA RESULT:      -0.3      0.000      0.000
REMARK  5 active torsions:
REMARK  status: ('A' for Active; 'I' for Inactive)
REMARK    1  A    between atoms: C_7  and  C_1 
REMARK    2  A    between atoms: C_10  and  C_6 
REMARK    3  A    between atoms: O_18  and  C_7 
REMARK    4  A    between atoms: N_8  and  C_10 
REMARK    5  A    between atoms: C_23  and  O_18 
ROOT
ATOM      1  C   UNL d   1      58.815   0.156  30.588  0.00  0.00     0.081 A 
ATOM      2  C   UNL d   1      59.614   0.185  30.386  0.00  0.00     0.069 A 
ATOM      3  C   UNL d   1      58.754   0.323  31.405  0.00  0.00     0.027 A 
ATOM      4  N   UNL d   1      60.049   0.367  31.060  0.00  0.00    -0.304 N 
ATOM      5  C   UNL d   1      59.515   0.454  31.696  0.00  0.00     0.065 A 
ATOM      6  C   UNL d   1      58.108   0.370  31.901  0.00  0.00     0.058 A 
ATOM      7  C   UNL d   1      59.634   0.632  32.485  0.00  0.00     0.021 A 
ATOM      8  C   UNL d   1      58.221   0.549  32.698  0.00  0.00     0.197 A 
ATOM      9  C   UNL d   1      58.985   0.680  32.990  0.00  0.00     0.044 A 
ATOM     10  C   UNL d   1      59.920   0.052  29.623  0.00  0.00     0.019 C 
ATOM     11  C   UNL d   1      60.870   0.451  31.105  0.00  0.00     0.099 C 
ATOM     12  O   UNL d   1      57.568   0.598  33.210  0.00  0.00    -0.286 OA
ENDROOT
BRANCH   6  13
ATOM     13  C   UNL d   1      57.349   0.239  31.607  0.00  0.00     0.083 C 
BRANCH  13  14
ATOM     14  N   UNL d   1      56.743   0.014  32.123  0.00  0.00    -0.302 N 
ATOM     15  C   UNL d   1      56.170   0.560  32.343  0.00  0.00     0.080 A 
ATOM     16  C   UNL d   1      55.562   0.333  32.862  0.00  0.00     0.019 A 
ATOM     17  C   UNL d   1      55.535  -0.435  33.155  0.00  0.00     0.003 A 
ATOM     18  C   UNL d   1      56.110  -0.983  32.934  0.00  0.00     0.019 A 
ATOM     19  C   UNL d   1      54.930  -0.656  33.669  0.00  0.00     0.000 C 
ATOM     20  C   UNL d   1      56.718  -0.756  32.415  0.00  0.00     0.080 A 
ENDBRANCH  13  14
ENDBRANCH   6  13
BRANCH   1  21
ATOM     21  C   UNL d   1      58.183  -0.009  30.082  0.00  0.00     0.302 C 
ATOM     22  O   UNL d   1      57.845  -0.766  30.072  0.00  0.00    -0.259 OA
BRANCH  21  23
ATOM     23  O   UNL d   1      57.895   0.585  29.591  0.00  0.00    -0.271 OA
BRANCH  23  24
ATOM     24  C   UNL d   1      57.542   0.387  28.869  0.00  0.00     0.126 C 
ATOM     25  C   UNL d   1      56.788   0.663  28.688  0.00  0.00     0.029 C 
ENDBRANCH  23  24
ENDBRANCH  21  23
ENDBRANCH   1  21
TORSDOF 5
ENDMDL
MODEL 2
REMARK VINA RESULT:       0.6      1.318      3.592
REMARK  5 active torsions:
REMARK  status: ('A' for Active; 'I' for Inactive)
REMARK    1  A    between atoms: C_7  and  C_1 
REMARK    2  A    between atoms: C_10  and  C_6 
REMARK    3  A    between atoms: O_18  and  C_7 
REMARK    4  A    between atoms: N_8  and  C_10 
REMARK    5  A    between atoms: C_23  and  O_18 
ROOT
ATOM      1  C   UNL d   1      56.992   0.175  33.029  0.00  0.00     0.081 A 
ATOM      2  C   UNL d   1      57.056   0.287  33.844  0.00  0.00     0.069 A 
ATOM      3  C   UNL d   1      57.745   0.317  32.695  0.00  0.00     0.027 A 
ATOM      4  N   UNL d   1      57.832   0.493  34.021  0.00  0.00    -0.304 N 
ATOM      5  C   UNL d   1      58.263   0.513  33.307  0.00  0.00     0.065 A 
ATOM      6  C   UNL d   1      58.009   0.289  31.923  0.00  0.00     0.058 A 
ATOM      7  C   UNL d   1      59.047   0.682  33.149  0.00  0.00     0.021 A 
ATOM      8  C   UNL d   1      58.798   0.459  31.758  0.00  0.00     0.197 A 
ATOM      9  C   UNL d   1      59.319   0.656  32.372  0.00  0.00     0.044 A 
ATOM     10  C   UNL d   1      56.432   0.201  34.389  0.00  0.00     0.019 C 
ATOM     11  C   UNL d   1      58.136   0.655  34.773  0.00  0.00     0.099 C 
ATOM     12  O   UNL d   1      59.074   0.433  30.975  0.00  0.00    -0.286 OA
ENDROOT
BRANCH   6  13
ATOM     13  C   UNL d   1      57.488   0.093  31.314  0.00  0.00     0.083 C 
BRANCH  13  14
ATOM     14  N   UNL d   1      57.786  -0.194  30.598  0.00  0.00    -0.302 N 
ATOM     15  C   UNL d   1      57.971  -0.990  30.522  0.00  0.00     0.080 A 
ATOM     16  C   UNL d   1      58.271  -1.277  29.802  0.00  0.00     0.019 A 
ATOM     17  C   UNL d   1      58.381  -0.765  29.167  0.00  0.00     0.003 A 
ATOM     18  C   UNL d   1      58.194   0.035  29.244  0.00  0.00     0.019 A 
ATOM     19  C   UNL d   1      58.678  -1.053  28.455  0.00  0.00     0.000 C 
ATOM     20  C   UNL d   1      57.895   0.321  29.964  0.00  0.00     0.080 A 
ENDBRANCH  13  14
ENDBRANCH   6  13
BRANCH   1  21
ATOM     21  C   UNL d   1      56.312  -0.037  32.611  0.00  0.00     0.302 C 
ATOM     22  O   UNL d   1      55.836   0.549  32.267  0.00  0.00    -0.259 OA
BRANCH  21  23
ATOM     23  O   UNL d   1      56.113  -0.831  32.541  0.00  0.00    -0.271 OA
BRANCH  23  24
ATOM     24  C   UNL d   1      55.365  -1.093  32.781  0.00  0.00     0.126 C 
ATOM     25  C   UNL d   1      55.241  -1.886  32.957  0.00  0.00     0.029 C 
ENDBRANCH  23  24
ENDBRANCH  21  23
ENDBRANCH   1  21
TORSDOF 5
ENDMDL
