MODEL 1
REMARK VINA RESULT:      -7.3      0.000      0.000
REMARK  5 active torsions:
REMARK  status: ('A' for Active; 'I' for Inactive)
REMARK    1  A    between atoms: N_2  and  S_1 
REMARK    2  A    between atoms: C_6  and  S_1 
REMARK       I    between atoms: C_3  and  N_4 
REMARK    3  A    between atoms: C_5  and  C_3 
REMARK    4  A    between atoms: O_20  and  C_21 
REMARK    5  A    between atoms: C_24  and  O_20 
ROOT
ATOM      1  S   UNL d   1     -48.562  11.535  23.146  0.00  0.00     0.271 S 
ATOM      2  O   UNL d   1     -49.261  11.118  23.268  0.00  0.00    -0.200 OA
ATOM      3  O   UNL d   1     -48.127  10.871  23.363  0.00  0.00    -0.200 OA
ENDROOT
BRANCH   1   4
ATOM      4  N   UNL d   1     -48.995  12.202  22.927  0.00  0.00    -0.226 N 
ATOM      5  C   UNL d   1     -49.102  12.821  23.453  0.00  0.00     0.111 A 
ATOM      6  C   UNL d   1     -49.534  13.485  23.231  0.00  0.00     0.103 A 
ATOM      7  N   UNL d   1     -49.859  13.522  22.477  0.00  0.00    -0.267 N 
ATOM      8  C   UNL d   1     -50.291  14.186  22.255  0.00  0.00     0.288 C 
ATOM      9  C   UNL d   1     -49.757  12.907  21.946  0.00  0.00     0.103 A 
ATOM     10  O   UNL d   1     -50.621  14.233  21.501  0.00  0.00    -0.264 OA
ATOM     11  C   UNL d   1     -49.323  12.240  22.164  0.00  0.00     0.111 A 
BRANCH   8  12
ATOM     12  C   UNL d   1     -50.399  14.811  22.786  0.00  0.00     0.156 A 
ATOM     13  O   UNL d   1     -51.064  14.950  23.258  0.00  0.00    -0.300 OA
ATOM     14  C   UNL d   1     -50.932  15.629  23.698  0.00  0.00     0.123 A 
ATOM     15  C   UNL d   1     -50.182  15.922  23.506  0.00  0.00     0.029 A 
ATOM     16  C   UNL d   1     -49.855  15.411  22.940  0.00  0.00     0.032 A 
ENDBRANCH   8  12
ENDBRANCH   1   4
BRANCH   1  17
ATOM     17  C   UNL d   1     -47.860  11.951  23.024  0.00  0.00     0.104 A 
ATOM     18  C   UNL d   1     -47.430  12.253  23.663  0.00  0.00     0.015 A 
ATOM     19  C   UNL d   1     -46.732  12.666  23.535  0.00  0.00     0.025 A 
ATOM     20  C   UNL d   1     -46.460  12.780  22.770  0.00  0.00     0.100 A 
ATOM     21  C   UNL d   1     -46.881  12.482  22.125  0.00  0.00     0.025 A 
ATOM     22  C   UNL d   1     -47.581  12.068  22.249  0.00  0.00     0.015 A 
BRANCH  20  23
ATOM     23  O   UNL d   1     -45.752  13.199  22.644  0.00  0.00    -0.307 OA
BRANCH  23  24
ATOM     24  C   UNL d   1     -45.063  12.786  22.436  0.00  0.00     0.100 A 
ATOM     25  C   UNL d   1     -44.634  12.996  21.756  0.00  0.00     0.025 A 
ATOM     26  C   UNL d   1     -43.950  12.581  21.555  0.00  0.00     0.002 A 
ATOM     27  C   UNL d   1     -43.692  11.958  22.030  0.00  0.00     0.000 A 
ATOM     28  C   UNL d   1     -44.121  11.748  22.710  0.00  0.00     0.002 A 
ATOM     29  C   UNL d   1     -44.806  12.163  22.912  0.00  0.00     0.025 A 
ENDBRANCH  23  24
ENDBRANCH  20  23
ENDBRANCH   1  17
TORSDOF 5
ENDMDL
MODEL 2
REMARK VINA RESULT:      -6.3      8.584     10.185
REMARK  5 active torsions:
REMARK  status: ('A' for Active; 'I' for Inactive)
REMARK    1  A    between atoms: N_2  and  S_1 
REMARK    2  A    between atoms: C_6  and  S_1 
REMARK       I    between atoms: C_3  and  N_4 
REMARK    3  A    between atoms: C_5  and  C_3 
REMARK    4  A    between atoms: O_20  and  C_21 
REMARK    5  A    between atoms: C_24  and  O_20 
ROOT
ATOM      1  S   UNL d   1     -40.784  14.465  18.971  0.00  0.00     0.271 S 
ATOM      2  O   UNL d   1     -41.495  14.493  19.386  0.00  0.00    -0.200 OA
ATOM      3  O   UNL d   1     -41.196  14.307  18.276  0.00  0.00    -0.200 OA
ENDROOT
BRANCH   1   4
ATOM      4  N   UNL d   1     -40.369  14.624  19.666  0.00  0.00    -0.226 N 
ATOM      5  C   UNL d   1     -40.043  14.014  20.106  0.00  0.00     0.111 A 
ATOM      6  C   UNL d   1     -39.630  14.176  20.798  0.00  0.00     0.103 A 
ATOM      7  N   UNL d   1     -39.546  14.956  21.045  0.00  0.00    -0.267 N 
ATOM      8  C   UNL d   1     -39.132  15.117  21.738  0.00  0.00     0.288 C 
ATOM      9  C   UNL d   1     -39.868  15.570  20.611  0.00  0.00     0.103 A 
ATOM     10  O   UNL d   1     -39.042  15.896  21.994  0.00  0.00    -0.264 OA
ATOM     11  C   UNL d   1     -40.284  15.412  19.916  0.00  0.00     0.111 A 
BRANCH   8  12
ATOM     12  C   UNL d   1     -38.803  14.502  22.181  0.00  0.00     0.156 A 
ATOM     13  O   UNL d   1     -38.023  14.229  22.146  0.00  0.00    -0.300 OA
ATOM     14  C   UNL d   1     -37.941  13.612  22.681  0.00  0.00     0.123 A 
ATOM     15  C   UNL d   1     -38.668  13.493  23.056  0.00  0.00     0.029 A 
ATOM     16  C   UNL d   1     -39.200  14.048  22.743  0.00  0.00     0.032 A 
ENDBRANCH   8  12
ENDBRANCH   1   4
BRANCH   1  17
ATOM     17  C   UNL d   1     -40.074  14.437  18.553  0.00  0.00     0.104 A 
ATOM     18  C   UNL d   1     -39.662  13.725  18.464  0.00  0.00     0.015 A 
ATOM     19  C   UNL d   1     -38.955  13.703  18.047  0.00  0.00     0.025 A 
ATOM     20  C   UNL d   1     -38.656  14.392  17.716  0.00  0.00     0.100 A 
ATOM     21  C   UNL d   1     -39.059  15.108  17.798  0.00  0.00     0.025 A 
ATOM     22  C   UNL d   1     -39.767  15.133  18.216  0.00  0.00     0.015 A 
BRANCH  20  23
ATOM     23  O   UNL d   1     -37.940  14.366  17.293  0.00  0.00    -0.307 OA
BRANCH  23  24
ATOM     24  C   UNL d   1     -37.950  14.211  16.478  0.00  0.00     0.100 A 
ATOM     25  C   UNL d   1     -37.970  14.834  15.929  0.00  0.00     0.025 A 
ATOM     26  C   UNL d   1     -37.980  14.672  15.121  0.00  0.00     0.002 A 
ATOM     27  C   UNL d   1     -37.970  13.890  14.858  0.00  0.00     0.000 A 
ATOM     28  C   UNL d   1     -37.950  13.267  15.407  0.00  0.00     0.002 A 
ATOM     29  C   UNL d   1     -37.940  13.428  16.216  0.00  0.00     0.025 A 
ENDBRANCH  23  24
ENDBRANCH  20  23
ENDBRANCH   1  17
TORSDOF 5
ENDMDL
MODEL 3
REMARK VINA RESULT:      -5.5      1.653      2.449
REMARK  5 active torsions:
REMARK  status: ('A' for Active; 'I' for Inactive)
REMARK    1  A    between atoms: N_2  and  S_1 
REMARK    2  A    between atoms: C_6  and  S_1 
REMARK       I    between atoms: C_3  and  N_4 
REMARK    3  A    between atoms: C_5  and  C_3 
REMARK    4  A    between atoms: O_20  and  C_21 
REMARK    5  A    between atoms: C_24  and  O_20 
ROOT
ATOM      1  S   UNL d   1     -47.265  14.676  22.689  0.00  0.00     0.271 S 
ATOM      2  O   UNL d   1     -47.777  15.315  22.768  0.00  0.00    -0.200 OA
ATOM      3  O   UNL d   1     -46.624  15.172  22.827  0.00  0.00    -0.200 OA
ENDROOT
BRANCH   1   4
ATOM      4  N   UNL d   1     -47.906  14.176  22.549  0.00  0.00    -0.226 N 
ATOM      5  C   UNL d   1     -48.266  13.776  23.167  0.00  0.00     0.111 A 
ATOM      6  C   UNL d   1     -48.905  13.278  23.024  0.00  0.00     0.103 A 
ATOM      7  N   UNL d   1     -49.180  13.185  22.255  0.00  0.00    -0.267 N 
ATOM      8  C   UNL d   1     -49.819  12.687  22.112  0.00  0.00     0.288 C 
ATOM      9  C   UNL d   1     -48.826  13.581  21.632  0.00  0.00     0.103 A 
ATOM     10  O   UNL d   1     -50.103  12.587  21.344  0.00  0.00    -0.264 OA
ATOM     11  C   UNL d   1     -48.184  14.081  21.771  0.00  0.00     0.111 A 
BRANCH   8  12
ATOM     12  C   UNL d   1     -50.182  12.284  22.736  0.00  0.00     0.156 A 
ATOM     13  O   UNL d   1     -49.905  11.601  23.111  0.00  0.00    -0.300 OA
ATOM     14  C   UNL d   1     -50.439  11.393  23.698  0.00  0.00     0.123 A 
ATOM     15  C   UNL d   1     -51.055  11.944  23.697  0.00  0.00     0.029 A 
ATOM     16  C   UNL d   1     -50.892  12.495  23.098  0.00  0.00     0.032 A 
ENDBRANCH   8  12
ENDBRANCH   1   4
BRANCH   1  17
ATOM     17  C   UNL d   1     -46.750  14.037  22.609  0.00  0.00     0.104 A 
ATOM     18  C   UNL d   1     -46.444  13.828  21.870  0.00  0.00     0.015 A 
ATOM     19  C   UNL d   1     -45.931  13.191  21.798  0.00  0.00     0.025 A 
ATOM     20  C   UNL d   1     -45.721  12.759  22.463  0.00  0.00     0.100 A 
ATOM     21  C   UNL d   1     -46.020  12.959  23.207  0.00  0.00     0.025 A 
ATOM     22  C   UNL d   1     -46.534  13.597  23.282  0.00  0.00     0.015 A 
BRANCH  20  23
ATOM     23  O   UNL d   1     -45.201  12.114  22.387  0.00  0.00    -0.307 OA
BRANCH  23  24
ATOM     24  C   UNL d   1     -44.412  12.248  22.168  0.00  0.00     0.100 A 
ATOM     25  C   UNL d   1     -43.791  11.875  22.576  0.00  0.00     0.025 A 
ATOM     26  C   UNL d   1     -43.009  12.013  22.353  0.00  0.00     0.002 A 
ATOM     27  C   UNL d   1     -42.844  12.521  21.725  0.00  0.00     0.000 A 
ATOM     28  C   UNL d   1     -43.465  12.893  21.316  0.00  0.00     0.002 A 
ATOM     29  C   UNL d   1     -44.247  12.756  21.539  0.00  0.00     0.025 A 
ENDBRANCH  23  24
ENDBRANCH  20  23
ENDBRANCH   1  17
TORSDOF 5
ENDMDL
MODEL 4
REMARK VINA RESULT:      -4.8      1.527      2.546
REMARK  5 active torsions:
REMARK  status: ('A' for Active; 'I' for Inactive)
REMARK    1  A    between atoms: N_2  and  S_1 
REMARK    2  A    between atoms: C_6  and  S_1 
REMARK       I    between atoms: C_3  and  N_4 
REMARK    3  A    between atoms: C_5  and  C_3 
REMARK    4  A    between atoms: O_20  and  C_21 
REMARK    5  A    between atoms: C_24  and  O_20 
ROOT
ATOM      1  S   UNL d   1     -46.788  14.631  22.525  0.00  0.00     0.271 S 
ATOM      2  O   UNL d   1     -46.885  15.427  22.342  0.00  0.00    -0.200 OA
ATOM      3  O   UNL d   1     -45.971  14.722  22.492  0.00  0.00    -0.200 OA
ENDROOT
BRANCH   1   4
ATOM      4  N   UNL d   1     -47.607  14.535  22.559  0.00  0.00    -0.226 N 
ATOM      5  C   UNL d   1     -47.989  14.020  22.050  0.00  0.00     0.111 A 
ATOM      6  C   UNL d   1     -48.805  13.928  22.086  0.00  0.00     0.103 A 
ATOM      7  N   UNL d   1     -49.235  14.358  22.640  0.00  0.00    -0.267 N 
ATOM      8  C   UNL d   1     -50.052  14.265  22.677  0.00  0.00     0.288 C 
ATOM      9  C   UNL d   1     -48.861  14.874  23.153  0.00  0.00     0.103 A 
ATOM     10  O   UNL d   1     -50.493  14.691  23.228  0.00  0.00    -0.264 OA
ATOM     11  C   UNL d   1     -48.042  14.970  23.119  0.00  0.00     0.111 A 
BRANCH   8  12
ATOM     12  C   UNL d   1     -50.437  13.745  22.162  0.00  0.00     0.156 A 
ATOM     13  O   UNL d   1     -50.722  13.919  21.405  0.00  0.00    -0.300 OA
ATOM     14  C   UNL d   1     -51.063  13.241  21.095  0.00  0.00     0.123 A 
ATOM     15  C   UNL d   1     -50.996  12.636  21.654  0.00  0.00     0.029 A 
ATOM     16  C   UNL d   1     -50.607  12.953  22.315  0.00  0.00     0.032 A 
ENDBRANCH   8  12
ENDBRANCH   1   4
BRANCH   1  17
ATOM     17  C   UNL d   1     -46.688  13.833  22.709  0.00  0.00     0.104 A 
ATOM     18  C   UNL d   1     -46.631  13.264  22.111  0.00  0.00     0.015 A 
ATOM     19  C   UNL d   1     -46.532  12.471  22.300  0.00  0.00     0.025 A 
ATOM     20  C   UNL d   1     -46.488  12.242  23.086  0.00  0.00     0.100 A 
ATOM     21  C   UNL d   1     -46.543  12.801  23.692  0.00  0.00     0.025 A 
ATOM     22  C   UNL d   1     -46.643  13.597  23.505  0.00  0.00     0.015 A 
BRANCH  20  23
ATOM     23  O   UNL d   1     -46.387  11.437  23.274  0.00  0.00    -0.307 OA
BRANCH  23  24
ATOM     24  C   UNL d   1     -45.621  11.124  23.334  0.00  0.00     0.100 A 
ATOM     25  C   UNL d   1     -45.501  10.352  23.616  0.00  0.00     0.025 A 
ATOM     26  C   UNL d   1     -44.737  10.046  23.672  0.00  0.00     0.002 A 
ATOM     27  C   UNL d   1     -44.092  10.509  23.448  0.00  0.00     0.000 A 
ATOM     28  C   UNL d   1     -44.212  11.282  23.166  0.00  0.00     0.002 A 
ATOM     29  C   UNL d   1     -44.976  11.588  23.109  0.00  0.00     0.025 A 
ENDBRANCH  23  24
ENDBRANCH  20  23
ENDBRANCH   1  17
TORSDOF 5
ENDMDL
