MODEL 1
REMARK VINA RESULT:       4.3      0.000      0.000
REMARK  3 active torsions:
REMARK  status: ('A' for Active; 'I' for Inactive)
REMARK    1  A    between atoms: C_11  and  C_2 
REMARK    2  A    between atoms: C_12  and  C_3 
REMARK    3  A    between atoms: N_7  and  C_6 
ROOT
ATOM      1  C   UNL d   1      29.338  16.741 -23.614  0.00  0.00     0.078 A 
ATOM      2  C   UNL d   1      30.724  17.005 -23.839  0.00  0.00     0.029 A 
ATOM      3  C   UNL d   1      30.905  16.232 -23.600  0.00  0.00     0.102 A 
ATOM      4  C   UNL d   1      29.522  15.969 -23.375  0.00  0.00     0.187 A 
ATOM      5  O   UNL d   1      30.304  15.724 -23.371  0.00  0.00    -0.289 OA
ATOM      6  C   UNL d   1      28.546  16.993 -23.619  0.00  0.00     0.153 A 
ATOM      7  N   UNL d   1      28.918  15.457 -23.145  0.00  0.00    -0.200 NA
ATOM      8  N   UNL d   1      27.952  16.474 -23.388  0.00  0.00    -0.206 NA
ATOM      9  C   UNL d   1      28.133  15.700 -23.148  0.00  0.00     0.202 A 
ENDROOT
BRANCH   2  10
ATOM     10  C   UNL d   1      31.328  17.516 -24.069  0.00  0.00     0.002 A 
ATOM     11  C   UNL d   1      31.679  18.006 -23.519  0.00  0.00     0.000 A 
ATOM     12  C   UNL d   1      32.285  18.518 -23.754  0.00  0.00     0.000 A 
ATOM     13  C   UNL d   1      32.535  18.535 -24.544  0.00  0.00     0.000 A 
ATOM     14  C   UNL d   1      32.176  18.037 -25.097  0.00  0.00     0.000 A 
ATOM     15  C   UNL d   1      31.570  17.524 -24.863  0.00  0.00     0.000 A 
ENDBRANCH   2  10
BRANCH   3  16
ATOM     16  C   UNL d   1      31.687  15.978 -23.593  0.00  0.00     0.023 A 
ATOM     17  C   UNL d   1      32.110  16.003 -22.892  0.00  0.00     0.002 A 
ATOM     18  C   UNL d   1      32.892  15.749 -22.884  0.00  0.00     0.000 A 
ATOM     19  C   UNL d   1      33.240  15.475 -23.580  0.00  0.00     0.000 A 
ATOM     20  C   UNL d   1      32.804  15.454 -24.280  0.00  0.00     0.000 A 
ATOM     21  C   UNL d   1      32.030  15.707 -24.277  0.00  0.00     0.002 A 
ENDBRANCH   3  16
BRANCH   6  22
ATOM     22  N   UNL d   1      28.363  17.762 -23.857  0.00  0.00    -0.285 N 
ATOM     23  C   UNL d   1      28.164  18.334 -23.302  0.00  0.00     0.108 A 
ATOM     24  C   UNL d   1      27.980  19.106 -23.541  0.00  0.00     0.142 A 
ATOM     25  O   UNL d   1      27.994  19.306 -24.335  0.00  0.00    -0.300 OA
ATOM     26  C   UNL d   1      28.196  18.723 -24.900  0.00  0.00     0.142 A 
ATOM     27  C   UNL d   1      28.379  17.958 -24.663  0.00  0.00     0.108 A 
ENDBRANCH   6  22
TORSDOF 3
ENDMDL
