MODEL 1
REMARK VINA RESULT:      45.2      0.000      0.000
REMARK  4 active torsions:
REMARK  status: ('A' for Active; 'I' for Inactive)
REMARK    1  A    between atoms: C_7  and  N_1 
REMARK    2  A    between atoms: C_8  and  C_7 
REMARK       I    between atoms: N_9  and  C_8 
REMARK    3  A    between atoms: C_13  and  N_9 
REMARK    4  A    between atoms: O_19  and  C_14 
ROOT
ATOM      1  C   UNL d   1     -51.992  25.848  33.311  0.00  0.00     0.148 C 
ENDROOT
BRANCH   1   2
ATOM      2  N   UNL d   1     -52.100  25.029  33.350  0.00  0.00    -0.235 N 
ATOM      3  C   UNL d   1     -52.868  24.715  33.391  0.00  0.00     0.273 A 
ATOM      4  C   UNL d   1     -52.975  23.905  33.429  0.00  0.00     0.086 A 
ATOM      5  O   UNL d   1     -53.523  25.224  33.393  0.00  0.00    -0.266 OA
ATOM      6  C   UNL d   1     -53.746  23.591  33.471  0.00  0.00     0.012 C 
ATOM      7  S   UNL d   1     -52.333  23.394  33.428  0.00  0.00    -0.077 SA
ATOM      8  C   UNL d   1     -51.570  23.700  33.387  0.00  0.00     0.086 A 
ATOM      9  C   UNL d   1     -51.446  24.516  33.348  0.00  0.00     0.273 A 
ATOM     10  C   UNL d   1     -50.920  23.191  33.385  0.00  0.00     0.012 C 
ATOM     11  O   UNL d   1     -50.683  24.826  33.307  0.00  0.00    -0.266 OA
ENDBRANCH   1   2
BRANCH   1  12
ATOM     12  C   UNL d   1     -51.347  26.194  33.692  0.00  0.00     0.297 C 
ATOM     13  N   UNL d   1     -50.959  26.852  33.351  0.00  0.00    -0.207 NA
ATOM     14  O   UNL d   1     -51.088  25.887  34.414  0.00  0.00    -0.264 OA
BRANCH  13  15
ATOM     15  C   UNL d   1     -50.317  27.187  33.743  0.00  0.00     0.085 A 
ATOM     16  C   UNL d   1     -49.563  27.096  33.421  0.00  0.00     0.021 A 
ATOM     17  C   UNL d   1     -48.909  27.422  33.795  0.00  0.00     0.026 A 
ATOM     18  C   UNL d   1     -49.016  27.847  34.506  0.00  0.00     0.094 A 
ATOM     19  C   UNL d   1     -49.776  27.929  34.813  0.00  0.00     0.026 A 
ATOM     20  C   UNL d   1     -50.417  27.602  34.436  0.00  0.00     0.021 A 
BRANCH  18  21
ATOM     21  O   UNL d   1     -48.363  28.176  34.884  0.00  0.00    -0.328 OA
ATOM     22  C   UNL d   1     -48.476  28.626  35.563  0.00  0.00     0.181 C 
ENDBRANCH  18  21
ENDBRANCH  13  15
ENDBRANCH   1  12
TORSDOF 4
ENDMDL
