MODEL 1
REMARK VINA RESULT:      22.1      0.000      0.000
REMARK  8 active torsions:
REMARK  status: ('A' for Active; 'I' for Inactive)
REMARK    1  A    between atoms: C_7  and  C_1 
REMARK    2  A    between atoms: N_5  and  C_2 
REMARK       I    between atoms: C_8  and  N_5 
REMARK    3  A    between atoms: N_9  and  C_7 
REMARK    4  A    between atoms: C_12  and  C_7 
REMARK    5  A    between atoms: C_10  and  C_8 
REMARK    6  A    between atoms: C_11  and  C_14 
REMARK    7  A    between atoms: O_25  and  C_11 
REMARK    8  A    between atoms: C_31  and  O_25 
ROOT
ATOM      1  C   UNL d   1     -42.483-121.772 -51.577  0.00  0.00     0.068 C 
ENDROOT
BRANCH   1   2
ATOM      2  C   UNL d   1     -43.164-122.062 -51.200  0.00  0.00     0.041 A 
ATOM      3  C   UNL d   1     -43.259-122.494 -50.508  0.00  0.00     0.115 A 
ATOM      4  S   UNL d   1     -44.067-122.626 -50.407  0.00  0.00    -0.068 SA
ATOM      5  C   UNL d   1     -44.461-122.274 -51.038  0.00  0.00     0.031 A 
ATOM      6  C   UNL d   1     -43.898-121.917 -51.541  0.00  0.00     0.009 A 
ATOM      7  C   UNL d   1     -45.292-122.279 -51.148  0.00  0.00     0.007 C 
ATOM      8  C   UNL d   1     -44.053-121.503 -52.238  0.00  0.00     0.001 C 
BRANCH   3   9
ATOM      9  N   UNL d   1     -42.651-122.762 -49.985  0.00  0.00    -0.200 NA
ATOM     10  C   UNL d   1     -42.852-123.040 -49.217  0.00  0.00     0.302 C 
ATOM     11  O   UNL d   1     -43.628-123.046 -48.990  0.00  0.00    -0.263 OA
BRANCH  10  12
ATOM     12  C   UNL d   1     -42.242-123.301 -48.711  0.00  0.00     0.158 A 
ATOM     13  O   UNL d   1     -41.528-123.680 -48.883  0.00  0.00    -0.300 OA
ATOM     14  C   UNL d   1     -41.141-123.806 -48.158  0.00  0.00     0.123 A 
ATOM     15  C   UNL d   1     -41.647-123.490 -47.550  0.00  0.00     0.029 A 
ATOM     16  C   UNL d   1     -42.316-123.186 -47.919  0.00  0.00     0.032 A 
ENDBRANCH  10  12
ENDBRANCH   3   9
ENDBRANCH   1   2
BRANCH   1  17
ATOM     17  N   UNL d   1     -42.223-122.084 -52.317  0.00  0.00    -0.304 N 
ATOM     18  C   UNL d   1     -41.758-121.642 -52.840  0.00  0.00     0.080 A 
ATOM     19  C   UNL d   1     -41.523-121.974 -53.551  0.00  0.00     0.024 A 
ATOM     20  C   UNL d   1     -41.742-122.731 -53.745  0.00  0.00     0.067 A 
ATOM     21  C   UNL d   1     -42.202-123.194 -53.247  0.00  0.00     0.024 A 
ATOM     22  C   UNL d   1     -42.449-122.871 -52.523  0.00  0.00     0.080 A 
BRANCH  20  23
ATOM     23  C   UNL d   1     -41.487-123.020 -54.457  0.00  0.00     0.300 C 
ATOM     24  O   UNL d   1     -41.570-123.812 -54.660  0.00  0.00    -0.259 OA
BRANCH  23  25
ATOM     25  O   UNL d   1     -41.126-122.527 -55.026  0.00  0.00    -0.271 OA
BRANCH  25  26
ATOM     26  C   UNL d   1     -41.792-121.999 -55.379  0.00  0.00     0.126 C 
ATOM     27  C   UNL d   1     -41.629-121.775 -56.097  0.00  0.00     0.029 C 
ENDBRANCH  25  26
ENDBRANCH  23  25
ENDBRANCH  20  23
ENDBRANCH   1  17
BRANCH   1  28
ATOM     28  C   UNL d   1     -42.022-121.155 -51.238  0.00  0.00     0.035 A 
ATOM     29  C   UNL d   1     -41.603-121.296 -50.544  0.00  0.00     0.100 A 
ATOM     30  N   UNL d   1     -41.153-120.698 -50.212  0.00  0.00    -0.242 NA
ATOM     31  C   UNL d   1     -41.124-119.914 -50.599  0.00  0.00     0.099 A 
ATOM     32  C   UNL d   1     -41.568-119.817 -51.306  0.00  0.00     0.021 A 
ATOM     33  C   UNL d   1     -42.006-120.418 -51.620  0.00  0.00     0.005 A 
ENDBRANCH   1  28
TORSDOF 8
ENDMDL
