MODEL 1
REMARK VINA RESULT:      67.0      0.000      0.000
REMARK  2 active torsions:
REMARK  status: ('A' for Active; 'I' for Inactive)
REMARK    1  A    between atoms: N_9  and  C_3 
REMARK    2  A    between atoms: C_11  and  C_4 
ROOT
ATOM      1  N   UNL d   1      59.940  49.495  51.717  0.00  0.00    -0.196 N 
ATOM      2  C   UNL d   1      59.352  49.481  51.101  0.00  0.00     0.167 A 
ATOM      3  C   UNL d   1      60.715  49.395  51.515  0.00  0.00     0.152 A 
ATOM      4  C   UNL d   1      58.568  49.579  51.285  0.00  0.00     0.057 A 
ATOM      5  N   UNL d   1      58.911  49.708  52.676  0.00  0.00    -0.161 NA
ATOM      6  N   UNL d   1      59.579  49.368  50.325  0.00  0.00    -0.227 NA
ATOM      7  C   UNL d   1      60.954  49.281  50.735  0.00  0.00     0.057 A 
ATOM      8  C   UNL d   1      58.341  49.694  52.080  0.00  0.00     0.124 A 
ATOM      9  C   UNL d   1      60.376  49.267  50.129  0.00  0.00     0.086 A 
ATOM     10  C   UNL d   1      60.615  49.149  49.311  0.00  0.00     0.021 C 
ENDROOT
BRANCH   4  11
ATOM     11  C   UNL d   1      57.998  49.566  50.688  0.00  0.00     0.005 A 
ATOM     12  C   UNL d   1      57.219  49.422  50.876  0.00  0.00     0.001 A 
ATOM     13  C   UNL d   1      56.658  49.409  50.289  0.00  0.00     0.011 A 
ATOM     14  C   UNL d   1      56.869  49.539  49.505  0.00  0.00     0.058 A 
ATOM     15  C   UNL d   1      57.649  49.683  49.318  0.00  0.00     0.011 A 
ATOM     16 CL   UNL d   1      56.272  49.525  48.879  0.00  0.00    -0.082 Cl
ATOM     17  C   UNL d   1      58.219  49.696  49.915  0.00  0.00     0.001 A 
ENDBRANCH   4  11
BRANCH   3  18
ATOM     18  N   UNL d   1      61.312  49.409  52.134  0.00  0.00    -0.289 N 
ATOM     19  C   UNL d   1      62.104  49.690  51.967  0.00  0.00     0.082 A 
ATOM     20  C   UNL d   1      62.697  49.705  52.577  0.00  0.00     0.019 A 
ATOM     21  C   UNL d   1      62.504  49.435  53.374  0.00  0.00     0.003 A 
ATOM     22  C   UNL d   1      61.707  49.154  53.535  0.00  0.00     0.019 A 
ATOM     23  C   UNL d   1      61.114  49.139  52.925  0.00  0.00     0.082 A 
ENDBRANCH   3  18
TORSDOF 2
ENDMDL
