MODEL 1
REMARK VINA RESULT:      -8.0      0.000      0.000
REMARK  9 active torsions:
REMARK  status: ('A' for Active; 'I' for Inactive)
REMARK    1  A    between atoms: N_3  and  C_1 
REMARK    2  A    between atoms: C_20  and  N_2 
REMARK       I    between atoms: C_7  and  N_3 
REMARK    3  A    between atoms: C_10  and  C_7 
REMARK    4  A    between atoms: C_9  and  C_10 
REMARK    5  A    between atoms: C_15  and  C_9 
REMARK       I    between atoms: C_12  and  N_13 
REMARK    6  A    between atoms: N_13  and  C_14 
REMARK    7  A    between atoms: C_26  and  C_20 
REMARK    8  A    between atoms: O_22  and  C_26 
REMARK    9  A    between atoms: C_27  and  O_22 
ROOT
ATOM      1  C   UNL d   1      51.920  33.332  52.970  0.00  0.00     0.182 A 
ATOM      2  N   UNL d   1      52.698  33.350  53.230  0.00  0.00    -0.283 N 
ATOM      3  S   UNL d   1      51.711  32.544  52.849  0.00  0.00    -0.048 SA
ATOM      4  C   UNL d   1      52.366  32.073  53.036  0.00  0.00     0.050 A 
ATOM      5  C   UNL d   1      52.979  32.573  53.273  0.00  0.00     0.072 A 
ATOM      6  C   UNL d   1      52.482  31.258  53.022  0.00  0.00     0.027 A 
ATOM      7  C   UNL d   1      53.707  32.258  53.495  0.00  0.00     0.020 A 
ATOM      8  C   UNL d   1      53.209  30.942  53.244  0.00  0.00     0.085 A 
ATOM      9  C   UNL d   1      53.822  31.442  53.480  0.00  0.00     0.021 A 
ENDROOT
BRANCH   1  10
ATOM     10  N   UNL d   1      51.438  33.991  52.852  0.00  0.00    -0.184 NA
ATOM     11  C   UNL d   1      50.620  33.909  52.898  0.00  0.00     0.281 C 
ATOM     12  O   UNL d   1      50.291  33.172  53.060  0.00  0.00    -0.265 OA
BRANCH  11  13
ATOM     13  C   UNL d   1      50.131  34.565  52.782  0.00  0.00     0.063 C 
BRANCH  13  14
ATOM     14  C   UNL d   1      49.497  34.519  52.264  0.00  0.00     0.006 C 
BRANCH  14  15
ATOM     15  C   UNL d   1      48.876  35.050  52.309  0.00  0.00     0.011 A 
ATOM     16  C   UNL d   1      48.360  35.138  51.665  0.00  0.00     0.058 A 
ATOM     17 CL   UNL d   1      48.480  34.683  50.975  0.00  0.00    -0.082 Cl
ATOM     18  C   UNL d   1      47.724  35.682  51.709  0.00  0.00     0.011 A 
ATOM     19  C   UNL d   1      47.602  36.129  52.379  0.00  0.00     0.001 A 
ATOM     20  C   UNL d   1      48.115  36.044  53.023  0.00  0.00     0.000 A 
ATOM     21  C   UNL d   1      48.745  35.507  52.983  0.00  0.00     0.001 A 
ENDBRANCH  14  15
ENDBRANCH  13  14
ENDBRANCH  11  13
ENDBRANCH   1  10
BRANCH   2  22
ATOM     22  C   UNL d   1      53.135  34.026  53.420  0.00  0.00     0.109 C 
BRANCH  22  23
ATOM     23  C   UNL d   1      53.121  34.332  54.184  0.00  0.00     0.142 C 
BRANCH  23  24
ATOM     24  O   UNL d   1      53.490  35.044  54.348  0.00  0.00    -0.302 OA
BRANCH  24  25
ATOM     25  C   UNL d   1      53.259  35.511  54.993  0.00  0.00     0.123 C 
ATOM     26  C   UNL d   1      53.151  36.326  54.910  0.00  0.00     0.029 C 
ENDBRANCH  24  25
ENDBRANCH  23  24
ENDBRANCH  22  23
ENDBRANCH   2  22
BRANCH   8  27
ATOM     27  N   UNL d   1      53.328  30.114  53.229  0.00  0.00    -0.208 NA
ATOM     28  C   UNL d   1      53.265  29.684  53.921  0.00  0.00     0.279 C 
ATOM     29  O   UNL d   1      53.382  28.868  53.904  0.00  0.00    -0.265 OA
ATOM     30  C   UNL d   1      53.084  30.054  54.637  0.00  0.00     0.068 C 
ENDBRANCH   8  27
TORSDOF 9
ENDMDL
MODEL 2
REMARK VINA RESULT:      -7.8      1.428      3.058
REMARK  9 active torsions:
REMARK  status: ('A' for Active; 'I' for Inactive)
REMARK    1  A    between atoms: N_3  and  C_1 
REMARK    2  A    between atoms: C_20  and  N_2 
REMARK       I    between atoms: C_7  and  N_3 
REMARK    3  A    between atoms: C_10  and  C_7 
REMARK    4  A    between atoms: C_9  and  C_10 
REMARK    5  A    between atoms: C_15  and  C_9 
REMARK       I    between atoms: C_12  and  N_13 
REMARK    6  A    between atoms: N_13  and  C_14 
REMARK    7  A    between atoms: C_26  and  C_20 
REMARK    8  A    between atoms: O_22  and  C_26 
REMARK    9  A    between atoms: C_27  and  O_22 
ROOT
ATOM      1  C   UNL d   1      52.135  33.404  53.096  0.00  0.00     0.182 A 
ATOM      2  N   UNL d   1      52.666  32.780  53.049  0.00  0.00    -0.283 N 
ATOM      3  S   UNL d   1      52.487  34.004  53.539  0.00  0.00    -0.048 SA
ATOM      4  C   UNL d   1      53.241  33.747  53.765  0.00  0.00     0.050 A 
ATOM      5  C   UNL d   1      53.352  32.987  53.461  0.00  0.00     0.072 A 
ATOM      6  C   UNL d   1      53.837  34.105  54.207  0.00  0.00     0.027 A 
ATOM      7  C   UNL d   1      54.059  32.586  53.598  0.00  0.00     0.020 A 
ATOM      8  C   UNL d   1      54.544  33.705  54.345  0.00  0.00     0.085 A 
ATOM      9  C   UNL d   1      54.654  32.945  54.040  0.00  0.00     0.021 A 
ENDROOT
BRANCH   1  10
ATOM     10  N   UNL d   1      51.383  33.421  52.758  0.00  0.00    -0.184 NA
ATOM     11  C   UNL d   1      50.973  34.135  52.715  0.00  0.00     0.281 C 
ATOM     12  O   UNL d   1      51.317  34.823  53.008  0.00  0.00    -0.265 OA
BRANCH  11  13
ATOM     13  C   UNL d   1      50.219  34.160  52.378  0.00  0.00     0.063 C 
BRANCH  13  14
ATOM     14  C   UNL d   1      49.686  34.740  52.603  0.00  0.00     0.006 C 
BRANCH  14  15
ATOM     15  C   UNL d   1      49.027  34.908  52.148  0.00  0.00     0.011 A 
ATOM     16  C   UNL d   1      48.428  35.395  52.452  0.00  0.00     0.058 A 
ATOM     17 CL   UNL d   1      48.504  35.711  53.221  0.00  0.00    -0.082 Cl
ATOM     18  C   UNL d   1      47.753  35.568  51.987  0.00  0.00     0.011 A 
ATOM     19  C   UNL d   1      47.673  35.263  51.236  0.00  0.00     0.001 A 
ATOM     20  C   UNL d   1      48.269  34.776  50.929  0.00  0.00     0.000 A 
ATOM     21  C   UNL d   1      48.939  34.603  51.387  0.00  0.00     0.001 A 
ENDBRANCH  14  15
ENDBRANCH  13  14
ENDBRANCH  11  13
ENDBRANCH   1  10
BRANCH   2  22
ATOM     22  C   UNL d   1      52.543  32.063  52.657  0.00  0.00     0.109 C 
BRANCH  22  23
ATOM     23  C   UNL d   1      52.449  31.364  53.083  0.00  0.00     0.142 C 
BRANCH  23  24
ATOM     24  O   UNL d   1      52.500  30.641  52.704  0.00  0.00    -0.302 OA
BRANCH  24  25
ATOM     25  C   UNL d   1      52.295  29.936  53.088  0.00  0.00     0.123 C 
ATOM     26  C   UNL d   1      52.872  29.463  53.445  0.00  0.00     0.029 C 
ENDBRANCH  24  25
ENDBRANCH  23  24
ENDBRANCH  22  23
ENDBRANCH   2  22
BRANCH   8  27
ATOM     27  N   UNL d   1      55.150  34.067  54.793  0.00  0.00    -0.208 NA
ATOM     28  C   UNL d   1      55.231  33.886  55.585  0.00  0.00     0.279 C 
ATOM     29  O   UNL d   1      55.829  34.244  56.025  0.00  0.00    -0.265 OA
ATOM     30  C   UNL d   1      54.722  33.349  55.952  0.00  0.00     0.068 C 
ENDBRANCH   8  27
TORSDOF 9
ENDMDL
