MODEL 1
REMARK VINA RESULT:      -4.3      0.000      0.000
REMARK  5 active torsions:
REMARK  status: ('A' for Active; 'I' for Inactive)
REMARK    1  A    between atoms: N_8  and  C_1 
REMARK    2  A    between atoms: C_3  and  S_13 
REMARK       I    between atoms: C_12  and  N_8 
REMARK    3  A    between atoms: C_16  and  C_9 
REMARK    4  A    between atoms: C_15  and  C_12 
REMARK    5  A    between atoms: S_13  and  C_15 
ROOT
ATOM      1  C   UNL d   1      57.351   0.240  31.393  0.00  0.00     0.100 C 
ENDROOT
BRANCH   1   2
ATOM      2  S   UNL d   1      57.001  -0.358  31.844  0.00  0.00    -0.056 SA
BRANCH   2   3
ATOM      3  C   UNL d   1      56.556  -0.151  32.501  0.00  0.00     0.141 A 
ATOM      4  N   UNL d   1      55.737  -0.236  32.597  0.00  0.00    -0.232 NA
ATOM      5  C   UNL d   1      55.525   0.043  33.342  0.00  0.00     0.088 A 
ATOM      6  C   UNL d   1      54.799   0.098  33.740  0.00  0.00     0.020 A 
ATOM      7  C   UNL d   1      56.220   0.308  33.722  0.00  0.00     0.049 A 
ATOM      8  C   UNL d   1      54.766   0.412  34.502  0.00  0.00     0.002 A 
ATOM      9  C   UNL d   1      55.452   0.671  34.869  0.00  0.00     0.001 A 
ATOM     10  C   UNL d   1      56.188   0.619  34.477  0.00  0.00     0.008 A 
ATOM     11  S   UNL d   1      56.854   0.186  33.199  0.00  0.00    -0.060 SA
ENDBRANCH   2   3
ENDBRANCH   1   2
BRANCH   1  12
ATOM     12  C   UNL d   1      57.792   0.037  30.728  0.00  0.00     0.288 C 
ATOM     13  N   UNL d   1      58.297   0.591  30.384  0.00  0.00    -0.181 NA
ATOM     14  O   UNL d   1      57.735  -0.713  30.402  0.00  0.00    -0.265 OA
BRANCH  13  15
ATOM     15  C   UNL d   1      58.740   0.398  29.722  0.00  0.00     0.219 A 
ATOM     16  S   UNL d   1      59.556   0.309  29.690  0.00  0.00    -0.026 SA
ATOM     17  C   UNL d   1      59.766   0.113  28.916  0.00  0.00     0.135 A 
ATOM     18  N   UNL d   1      59.070   0.083  28.469  0.00  0.00    -0.139 NA
ATOM     19  N   UNL d   1      58.438   0.258  28.966  0.00  0.00    -0.121 NA
BRANCH  17  20
ATOM     20  C   UNL d   1      60.526  -0.027  28.634  0.00  0.00     0.028 C 
ATOM     21  C   UNL d   1      61.083  -0.382  29.133  0.00  0.00     0.002 C 
ENDBRANCH  17  20
ENDBRANCH  13  15
ENDBRANCH   1  12
TORSDOF 5
ENDMDL
MODEL 2
REMARK VINA RESULT:      -4.2      0.935      5.539
REMARK  5 active torsions:
REMARK  status: ('A' for Active; 'I' for Inactive)
REMARK    1  A    between atoms: N_8  and  C_1 
REMARK    2  A    between atoms: C_3  and  S_13 
REMARK       I    between atoms: C_12  and  N_8 
REMARK    3  A    between atoms: C_16  and  C_9 
REMARK    4  A    between atoms: C_15  and  C_12 
REMARK    5  A    between atoms: S_13  and  C_15 
ROOT
ATOM      1  C   UNL d   1      57.824  -0.014  31.249  0.00  0.00     0.100 C 
ENDROOT
BRANCH   1   2
ATOM      2  S   UNL d   1      57.811   0.044  30.424  0.00  0.00    -0.056 SA
BRANCH   2   3
ATOM      3  C   UNL d   1      58.518  -0.003  30.011  0.00  0.00     0.141 A 
ATOM      4  N   UNL d   1      59.105   0.579  29.957  0.00  0.00    -0.232 NA
ATOM      5  C   UNL d   1      59.719   0.298  29.487  0.00  0.00     0.088 A 
ATOM      6  C   UNL d   1      60.440   0.626  29.240  0.00  0.00     0.020 A 
ATOM      7  C   UNL d   1      59.517  -0.475  29.240  0.00  0.00     0.049 A 
ATOM      8  C   UNL d   1      60.950   0.193  28.758  0.00  0.00     0.002 A 
ATOM      9  C   UNL d   1      60.745  -0.564  28.519  0.00  0.00     0.001 A 
ATOM     10  C   UNL d   1      60.021  -0.904  28.762  0.00  0.00     0.008 A 
ATOM     11  S   UNL d   1      58.774  -0.656  29.567  0.00  0.00    -0.060 SA
ENDBRANCH   2   3
ENDBRANCH   1   2
BRANCH   1  12
ATOM     12  C   UNL d   1      57.122   0.076  31.671  0.00  0.00     0.288 C 
ATOM     13  N   UNL d   1      57.017  -0.322  32.385  0.00  0.00    -0.181 NA
ATOM     14  O   UNL d   1      56.524   0.560  31.386  0.00  0.00    -0.265 OA
BRANCH  13  15
ATOM     15  C   UNL d   1      56.322  -0.238  32.811  0.00  0.00     0.219 A 
ATOM     16  S   UNL d   1      56.176   0.316  33.400  0.00  0.00    -0.026 SA
ATOM     17  C   UNL d   1      55.407   0.202  33.678  0.00  0.00     0.135 A 
ATOM     18  N   UNL d   1      55.079  -0.428  33.255  0.00  0.00    -0.139 NA
ATOM     19  N   UNL d   1      55.643  -0.699  32.720  0.00  0.00    -0.121 NA
BRANCH  17  20
ATOM     20  C   UNL d   1      55.029   0.634  34.269  0.00  0.00     0.028 C 
ATOM     21  C   UNL d   1      55.377   0.682  35.019  0.00  0.00     0.002 C 
ENDBRANCH  17  20
ENDBRANCH  13  15
ENDBRANCH   1  12
TORSDOF 5
ENDMDL
MODEL 3
REMARK VINA RESULT:      -2.7      9.812     10.690
REMARK  5 active torsions:
REMARK  status: ('A' for Active; 'I' for Inactive)
REMARK    1  A    between atoms: N_8  and  C_1 
REMARK    2  A    between atoms: C_3  and  S_13 
REMARK       I    between atoms: C_12  and  N_8 
REMARK    3  A    between atoms: C_16  and  C_9 
REMARK    4  A    between atoms: C_15  and  C_12 
REMARK    5  A    between atoms: S_13  and  C_15 
ROOT
ATOM      1  C   UNL d   1      58.938  -9.601  32.236  0.00  0.00     0.100 C 
ENDROOT
BRANCH   1   2
ATOM      2  S   UNL d   1      58.163  -9.818  32.042  0.00  0.00    -0.056 SA
BRANCH   2   3
ATOM      3  C   UNL d   1      57.934  -9.813  31.255  0.00  0.00     0.141 A 
ATOM      4  N   UNL d   1      58.429  -9.813  30.591  0.00  0.00    -0.232 NA
ATOM      5  C   UNL d   1      57.965  -9.807  29.911  0.00  0.00     0.088 A 
ATOM      6  C   UNL d   1      58.146  -9.805  29.101  0.00  0.00     0.020 A 
ATOM      7  C   UNL d   1      57.164  -9.802  30.150  0.00  0.00     0.049 A 
ATOM      8  C   UNL d   1      57.541  -9.798  28.540  0.00  0.00     0.002 A 
ATOM      9  C   UNL d   1      56.758  -9.794  28.782  0.00  0.00     0.001 A 
ATOM     10  C   UNL d   1      56.565  -9.796  29.595  0.00  0.00     0.008 A 
ATOM     11  S   UNL d   1      57.151  -9.806  30.981  0.00  0.00    -0.060 SA
ENDBRANCH   2   3
ENDBRANCH   1   2
BRANCH   1  12
ATOM     12  C   UNL d   1      59.144  -9.503  33.027  0.00  0.00     0.288 C 
ATOM     13  N   UNL d   1      59.885  -9.202  33.225  0.00  0.00    -0.181 NA
ATOM     14  O   UNL d   1      58.616  -9.702  33.623  0.00  0.00    -0.265 OA
BRANCH  13  15
ATOM     15  C   UNL d   1      60.098  -9.102  34.010  0.00  0.00     0.219 A 
ATOM     16  S   UNL d   1      60.092  -8.396  34.430  0.00  0.00    -0.026 SA
ATOM     17  C   UNL d   1      60.347  -8.549  35.200  0.00  0.00     0.135 A 
ATOM     18  N   UNL d   1      60.511  -9.358  35.252  0.00  0.00    -0.139 NA
ATOM     19  N   UNL d   1      60.358  -9.699  34.519  0.00  0.00    -0.121 NA
BRANCH  17  20
ATOM     20  C   UNL d   1      60.425  -8.002  35.810  0.00  0.00     0.028 C 
ATOM     21  C   UNL d   1      59.768  -7.826  36.282  0.00  0.00     0.002 C 
ENDBRANCH  17  20
ENDBRANCH  13  15
ENDBRANCH   1  12
TORSDOF 5
ENDMDL
