MODEL 1
REMARK VINA RESULT:      -5.7      0.000      0.000
REMARK  6 active torsions:
REMARK  status: ('A' for Active; 'I' for Inactive)
REMARK    1  A    between atoms: C_6  and  N_1 
REMARK    2  A    between atoms: C_5  and  C_3 
REMARK    3  A    between atoms: C_9  and  C_4 
REMARK    4  A    between atoms: N_12  and  C_6 
REMARK    5  A    between atoms: O_21  and  C_8 
REMARK    6  A    between atoms: O_22  and  C_16 
ROOT
ATOM      1  N   UNL d   1      53.223  32.506  53.714  0.00  0.00    -0.203 N 
ATOM      2  N   UNL d   1      52.777  33.146  53.481  0.00  0.00    -0.163 NA
ATOM      3  C   UNL d   1      52.779  31.813  53.582  0.00  0.00     0.089 A 
ATOM      4  C   UNL d   1      52.067  32.892  53.206  0.00  0.00     0.103 A 
ATOM      5  C   UNL d   1      52.051  32.060  53.263  0.00  0.00     0.040 A 
ENDROOT
BRANCH   3   6
ATOM      6  C   UNL d   1      52.992  31.029  53.730  0.00  0.00     0.042 A 
ATOM      7  C   UNL d   1      53.116  30.519  53.094  0.00  0.00     0.096 A 
ATOM      8  C   UNL d   1      53.330  29.730  53.226  0.00  0.00     0.026 A 
ATOM      9  C   UNL d   1      53.416  29.470  53.994  0.00  0.00     0.026 A 
ATOM     10  C   UNL d   1      53.292  29.979  54.632  0.00  0.00     0.094 A 
ATOM     11  C   UNL d   1      53.078  30.766  54.481  0.00  0.00     0.028 A 
BRANCH   7  12
ATOM     12  O   UNL d   1      53.029  30.784  52.295  0.00  0.00    -0.328 OA
ATOM     13  C   UNL d   1      53.101  30.251  51.676  0.00  0.00     0.181 C 
ENDBRANCH   7  12
BRANCH  10  14
ATOM     14  O   UNL d   1      53.382  29.702  55.441  0.00  0.00    -0.328 OA
ATOM     15  C   UNL d   1      53.338  28.905  55.613  0.00  0.00     0.181 C 
ENDBRANCH  10  14
ENDBRANCH   3   6
BRANCH   1  16
ATOM     16  C   UNL d   1      53.998  32.541  54.031  0.00  0.00     0.222 C 
ATOM     17  S   UNL d   1      54.094  32.590  54.860  0.00  0.00    -0.037 SA
BRANCH  16  18
ATOM     18  N   UNL d   1      54.664  32.526  53.522  0.00  0.00    -0.214 NA
ATOM     19  C   UNL d   1      55.312  33.038  53.651  0.00  0.00     0.122 C 
ENDBRANCH  16  18
ENDBRANCH   1  16
BRANCH   4  20
ATOM     20  C   UNL d   1      51.481  33.388  52.926  0.00  0.00     0.019 A 
ATOM     21  C   UNL d   1      51.597  33.825  52.258  0.00  0.00     0.002 A 
ATOM     22  C   UNL d   1      51.010  34.326  51.972  0.00  0.00     0.000 A 
ATOM     23  C   UNL d   1      50.286  34.372  52.392  0.00  0.00     0.000 A 
ATOM     24  C   UNL d   1      50.174  33.922  53.075  0.00  0.00     0.000 A 
ATOM     25  C   UNL d   1      49.684  34.868  52.124  0.00  0.00     0.000 C 
ATOM     26  C   UNL d   1      50.767  33.433  53.342  0.00  0.00     0.002 A 
ENDBRANCH   4  20
TORSDOF 6
ENDMDL
MODEL 2
REMARK VINA RESULT:      -5.4      1.895      4.095
REMARK  6 active torsions:
REMARK  status: ('A' for Active; 'I' for Inactive)
REMARK    1  A    between atoms: C_6  and  N_1 
REMARK    2  A    between atoms: C_5  and  C_3 
REMARK    3  A    between atoms: C_9  and  C_4 
REMARK    4  A    between atoms: N_12  and  C_6 
REMARK    5  A    between atoms: O_21  and  C_8 
REMARK    6  A    between atoms: O_22  and  C_16 
ROOT
ATOM      1  N   UNL d   1      54.141  32.785  53.923  0.00  0.00    -0.203 N 
ATOM      2  N   UNL d   1      54.174  31.973  53.877  0.00  0.00    -0.163 NA
ATOM      3  C   UNL d   1      53.343  33.020  53.870  0.00  0.00     0.089 A 
ATOM      4  C   UNL d   1      53.433  31.679  53.796  0.00  0.00     0.103 A 
ATOM      5  C   UNL d   1      52.900  32.320  53.790  0.00  0.00     0.040 A 
ENDROOT
BRANCH   3   6
ATOM      6  C   UNL d   1      53.029  33.783  53.889  0.00  0.00     0.042 A 
ATOM      7  C   UNL d   1      52.571  34.046  53.256  0.00  0.00     0.096 A 
ATOM      8  C   UNL d   1      52.249  34.809  53.261  0.00  0.00     0.026 A 
ATOM      9  C   UNL d   1      52.393  35.292  53.902  0.00  0.00     0.026 A 
ATOM     10  C   UNL d   1      52.852  35.030  54.536  0.00  0.00     0.094 A 
ATOM     11  C   UNL d   1      53.166  34.263  54.514  0.00  0.00     0.028 A 
BRANCH   7  12
ATOM     12  O   UNL d   1      52.418  33.548  52.588  0.00  0.00    -0.328 OA
ATOM     13  C   UNL d   1      51.886  33.789  52.012  0.00  0.00     0.181 C 
ENDBRANCH   7  12
BRANCH  10  14
ATOM     14  O   UNL d   1      53.003  35.542  55.211  0.00  0.00    -0.328 OA
ATOM     15  C   UNL d   1      53.004  36.354  55.122  0.00  0.00     0.181 C 
ENDBRANCH  10  14
ENDBRANCH   3   6
BRANCH   1  16
ATOM     16  C   UNL d   1      54.799  33.296  54.010  0.00  0.00     0.222 C 
ATOM     17  S   UNL d   1      55.197  33.564  53.325  0.00  0.00    -0.037 SA
BRANCH  16  18
ATOM     18  N   UNL d   1      55.052  33.533  54.774  0.00  0.00    -0.214 NA
ATOM     19  C   UNL d   1      55.839  33.786  54.904  0.00  0.00     0.122 C 
ENDBRANCH  16  18
ENDBRANCH   1  16
BRANCH   4  20
ATOM     20  C   UNL d   1      53.261  30.882  53.734  0.00  0.00     0.019 A 
ATOM     21  C   UNL d   1      53.001  30.571  53.036  0.00  0.00     0.002 A 
ATOM     22  C   UNL d   1      52.827  29.770  52.967  0.00  0.00     0.000 A 
ATOM     23  C   UNL d   1      52.925  29.282  53.642  0.00  0.00     0.000 A 
ATOM     24  C   UNL d   1      53.191  29.607  54.352  0.00  0.00     0.000 A 
ATOM     25  C   UNL d   1      52.756  28.476  53.596  0.00  0.00     0.000 C 
ATOM     26  C   UNL d   1      53.358  30.401  54.400  0.00  0.00     0.002 A 
ENDBRANCH   4  20
TORSDOF 6
ENDMDL
MODEL 3
REMARK VINA RESULT:      -5.0      1.639      2.894
REMARK  6 active torsions:
REMARK  status: ('A' for Active; 'I' for Inactive)
REMARK    1  A    between atoms: C_6  and  N_1 
REMARK    2  A    between atoms: C_5  and  C_3 
REMARK    3  A    between atoms: C_9  and  C_4 
REMARK    4  A    between atoms: N_12  and  C_6 
REMARK    5  A    between atoms: O_21  and  C_8 
REMARK    6  A    between atoms: O_22  and  C_16 
ROOT
ATOM      1  N   UNL d   1      52.329  32.499  53.193  0.00  0.00    -0.203 N 
ATOM      2  N   UNL d   1      51.609  32.706  52.876  0.00  0.00    -0.163 NA
ATOM      3  C   UNL d   1      52.744  33.196  53.385  0.00  0.00     0.089 A 
ATOM      4  C   UNL d   1      51.544  33.505  52.857  0.00  0.00     0.103 A 
ATOM      5  C   UNL d   1      52.246  33.828  53.172  0.00  0.00     0.040 A 
ENDROOT
BRANCH   3   6
ATOM      6  C   UNL d   1      53.495  33.274  53.719  0.00  0.00     0.042 A 
ATOM      7  C   UNL d   1      53.574  33.655  54.445  0.00  0.00     0.096 A 
ATOM      8  C   UNL d   1      54.321  33.740  54.793  0.00  0.00     0.026 A 
ATOM      9  C   UNL d   1      54.972  33.440  54.403  0.00  0.00     0.026 A 
ATOM     10  C   UNL d   1      54.893  33.058  53.676  0.00  0.00     0.094 A 
ATOM     11  C   UNL d   1      54.138  32.982  53.343  0.00  0.00     0.028 A 
BRANCH   7  12
ATOM     12  O   UNL d   1      52.902  33.968  54.854  0.00  0.00    -0.328 OA
ATOM     13  C   UNL d   1      53.007  34.505  55.464  0.00  0.00     0.181 C 
ENDBRANCH   7  12
BRANCH  10  14
ATOM     14  O   UNL d   1      55.582  32.743  53.267  0.00  0.00    -0.328 OA
ATOM     15  C   UNL d   1      55.939  33.170  52.670  0.00  0.00     0.181 C 
ENDBRANCH  10  14
ENDBRANCH   3   6
BRANCH   1  16
ATOM     16  C   UNL d   1      52.605  31.716  53.307  0.00  0.00     0.222 C 
ATOM     17  S   UNL d   1      52.550  31.373  54.067  0.00  0.00    -0.037 SA
BRANCH  16  18
ATOM     18  N   UNL d   1      52.931  31.286  52.665  0.00  0.00    -0.214 NA
ATOM     19  C   UNL d   1      52.922  30.450  52.661  0.00  0.00     0.122 C 
ENDBRANCH  16  18
ENDBRANCH   1  16
BRANCH   4  20
ATOM     20  C   UNL d   1      50.891  33.905  52.572  0.00  0.00     0.019 A 
ATOM     21  C   UNL d   1      50.800  34.033  51.781  0.00  0.00     0.002 A 
ATOM     22  C   UNL d   1      50.145  34.435  51.488  0.00  0.00     0.000 A 
ATOM     23  C   UNL d   1      49.570  34.710  52.033  0.00  0.00     0.000 A 
ATOM     24  C   UNL d   1      49.669  34.575  52.842  0.00  0.00     0.000 A 
ATOM     25  C   UNL d   1      48.904  35.115  51.763  0.00  0.00     0.000 C 
ATOM     26  C   UNL d   1      50.324  34.175  53.111  0.00  0.00     0.002 A 
ENDBRANCH   4  20
TORSDOF 6
ENDMDL
MODEL 4
REMARK VINA RESULT:      -5.0      1.854      4.324
REMARK  6 active torsions:
REMARK  status: ('A' for Active; 'I' for Inactive)
REMARK    1  A    between atoms: C_6  and  N_1 
REMARK    2  A    between atoms: C_5  and  C_3 
REMARK    3  A    between atoms: C_9  and  C_4 
REMARK    4  A    between atoms: N_12  and  C_6 
REMARK    5  A    between atoms: O_21  and  C_8 
REMARK    6  A    between atoms: O_22  and  C_16 
ROOT
ATOM      1  N   UNL d   1      52.572  32.515  53.478  0.00  0.00    -0.203 N 
ATOM      2  N   UNL d   1      52.492  31.705  53.449  0.00  0.00    -0.163 NA
ATOM      3  C   UNL d   1      53.227  32.698  53.961  0.00  0.00     0.089 A 
ATOM      4  C   UNL d   1      53.067  31.363  53.893  0.00  0.00     0.103 A 
ATOM      5  C   UNL d   1      53.535  31.970  54.220  0.00  0.00     0.040 A 
ENDROOT
BRANCH   3   6
ATOM      6  C   UNL d   1      53.528  33.441  54.159  0.00  0.00     0.042 A 
ATOM      7  C   UNL d   1      54.302  33.630  53.946  0.00  0.00     0.096 A 
ATOM      8  C   UNL d   1      54.619  34.371  54.137  0.00  0.00     0.026 A 
ATOM      9  C   UNL d   1      54.152  34.906  54.538  0.00  0.00     0.026 A 
ATOM     10  C   UNL d   1      53.377  34.718  54.752  0.00  0.00     0.094 A 
ATOM     11  C   UNL d   1      53.076  33.971  54.552  0.00  0.00     0.028 A 
BRANCH   7  12
ATOM     12  O   UNL d   1      54.791  33.079  53.530  0.00  0.00    -0.328 OA
ATOM     13  C   UNL d   1      55.569  33.271  53.356  0.00  0.00     0.181 C 
ENDBRANCH   7  12
BRANCH  10  14
ATOM     14  O   UNL d   1      52.886  35.284  55.175  0.00  0.00    -0.328 OA
ATOM     15  C   UNL d   1      52.888  36.073  54.961  0.00  0.00     0.181 C 
ENDBRANCH  10  14
ENDBRANCH   3   6
BRANCH   1  16
ATOM     16  C   UNL d   1      52.079  33.068  53.088  0.00  0.00     0.222 C 
ATOM     17  S   UNL d   1      51.365  33.302  53.452  0.00  0.00    -0.037 SA
BRANCH  16  18
ATOM     18  N   UNL d   1      52.302  33.380  52.342  0.00  0.00    -0.214 NA
ATOM     19  C   UNL d   1      51.748  33.787  51.865  0.00  0.00     0.122 C 
ENDBRANCH  16  18
ENDBRANCH   1  16
BRANCH   4  20
ATOM     20  C   UNL d   1      53.152  30.556  53.987  0.00  0.00     0.019 A 
ATOM     21  C   UNL d   1      53.216  30.071  53.346  0.00  0.00     0.002 A 
ATOM     22  C   UNL d   1      53.302  29.258  53.435  0.00  0.00     0.000 A 
ATOM     23  C   UNL d   1      53.322  28.943  54.212  0.00  0.00     0.000 A 
ATOM     24  C   UNL d   1      53.255  29.444  54.864  0.00  0.00     0.000 A 
ATOM     25  C   UNL d   1      53.407  28.130  54.326  0.00  0.00     0.000 C 
ATOM     26  C   UNL d   1      53.171  30.246  54.754  0.00  0.00     0.002 A 
ENDBRANCH   4  20
TORSDOF 6
ENDMDL
MODEL 5
REMARK VINA RESULT:      -5.0      1.657      2.476
REMARK  6 active torsions:
REMARK  status: ('A' for Active; 'I' for Inactive)
REMARK    1  A    between atoms: C_6  and  N_1 
REMARK    2  A    between atoms: C_5  and  C_3 
REMARK    3  A    between atoms: C_9  and  C_4 
REMARK    4  A    between atoms: N_12  and  C_6 
REMARK    5  A    between atoms: O_21  and  C_8 
REMARK    6  A    between atoms: O_22  and  C_16 
ROOT
ATOM      1  N   UNL d   1      52.348  34.287  53.657  0.00  0.00    -0.203 N 
ATOM      2  N   UNL d   1      51.656  34.592  53.355  0.00  0.00    -0.163 NA
ATOM      3  C   UNL d   1      52.534  33.591  53.237  0.00  0.00     0.089 A 
ATOM      4  C   UNL d   1      51.392  34.122  52.761  0.00  0.00     0.103 A 
ATOM      5  C   UNL d   1      51.930  33.490  52.674  0.00  0.00     0.040 A 
ENDROOT
BRANCH   3   6
ATOM      6  C   UNL d   1      53.179  33.086  53.339  0.00  0.00     0.042 A 
ATOM      7  C   UNL d   1      53.049  32.273  53.394  0.00  0.00     0.096 A 
ATOM      8  C   UNL d   1      53.686  31.754  53.496  0.00  0.00     0.026 A 
ATOM      9  C   UNL d   1      54.441  32.062  53.540  0.00  0.00     0.026 A 
ATOM     10  C   UNL d   1      54.572  32.874  53.485  0.00  0.00     0.094 A 
ATOM     11  C   UNL d   1      53.922  33.380  53.383  0.00  0.00     0.028 A 
BRANCH   7  12
ATOM     12  O   UNL d   1      52.269  31.949  53.349  0.00  0.00    -0.328 OA
ATOM     13  C   UNL d   1      52.164  31.137  53.315  0.00  0.00     0.181 C 
ENDBRANCH   7  12
BRANCH  10  14
ATOM     14  O   UNL d   1      55.368  33.196  53.531  0.00  0.00    -0.328 OA
ATOM     15  C   UNL d   1      55.914  33.037  52.944  0.00  0.00     0.181 C 
ENDBRANCH  10  14
ENDBRANCH   3   6
BRANCH   1  16
ATOM     16  C   UNL d   1      52.795  34.618  54.283  0.00  0.00     0.222 C 
ATOM     17  S   UNL d   1      52.748  34.272  55.042  0.00  0.00    -0.037 SA
BRANCH  16  18
ATOM     18  N   UNL d   1      53.282  35.287  54.146  0.00  0.00    -0.214 NA
ATOM     19  C   UNL d   1      53.326  35.906  54.707  0.00  0.00     0.122 C 
ENDBRANCH  16  18
ENDBRANCH   1  16
BRANCH   4  20
ATOM     20  C   UNL d   1      50.710  34.264  52.334  0.00  0.00     0.019 A 
ATOM     21  C   UNL d   1      50.712  34.216  51.529  0.00  0.00     0.002 A 
ATOM     22  C   UNL d   1      50.029  34.358  51.093  0.00  0.00     0.000 A 
ATOM     23  C   UNL d   1      49.326  34.554  51.507  0.00  0.00     0.000 A 
ATOM     24  C   UNL d   1      49.331  34.600  52.331  0.00  0.00     0.000 A 
ATOM     25  C   UNL d   1      48.629  34.700  51.092  0.00  0.00     0.000 C 
ATOM     26  C   UNL d   1      50.018  34.456  52.743  0.00  0.00     0.002 A 
ENDBRANCH   4  20
TORSDOF 6
ENDMDL
MODEL 6
REMARK VINA RESULT:      -4.1      1.879      4.475
REMARK  6 active torsions:
REMARK  status: ('A' for Active; 'I' for Inactive)
REMARK    1  A    between atoms: C_6  and  N_1 
REMARK    2  A    between atoms: C_5  and  C_3 
REMARK    3  A    between atoms: C_9  and  C_4 
REMARK    4  A    between atoms: N_12  and  C_6 
REMARK    5  A    between atoms: O_21  and  C_8 
REMARK    6  A    between atoms: O_22  and  C_16 
ROOT
ATOM      1  N   UNL d   1      52.312  33.941  53.458  0.00  0.00    -0.203 N 
ATOM      2  N   UNL d   1      52.796  33.296  53.569  0.00  0.00    -0.163 NA
ATOM      3  C   UNL d   1      51.592  33.677  53.129  0.00  0.00     0.089 A 
ATOM      4  C   UNL d   1      52.418  32.632  53.325  0.00  0.00     0.103 A 
ATOM      5  C   UNL d   1      51.663  32.852  53.047  0.00  0.00     0.040 A 
ENDROOT
BRANCH   3   6
ATOM      6  C   UNL d   1      50.930  34.122  52.918  0.00  0.00     0.042 A 
ATOM      7  C   UNL d   1      50.778  34.265  52.120  0.00  0.00     0.096 A 
ATOM      8  C   UNL d   1      50.117  34.709  51.893  0.00  0.00     0.026 A 
ATOM      9  C   UNL d   1      49.622  35.000  52.472  0.00  0.00     0.026 A 
ATOM     10  C   UNL d   1      49.773  34.858  53.271  0.00  0.00     0.094 A 
ATOM     11  C   UNL d   1      50.440  34.411  53.480  0.00  0.00     0.028 A 
BRANCH   7  12
ATOM     12  O   UNL d   1      51.289  33.965  51.516  0.00  0.00    -0.328 OA
ATOM     13  C   UNL d   1      51.153  34.160  50.731  0.00  0.00     0.181 C 
ENDBRANCH   7  12
BRANCH  10  14
ATOM     14  O   UNL d   1      49.249  35.166  53.880  0.00  0.00    -0.328 OA
ATOM     15  C   UNL d   1      48.663  35.703  53.689  0.00  0.00     0.181 C 
ENDBRANCH  10  14
ENDBRANCH   3   6
BRANCH   1  16
ATOM     16  C   UNL d   1      52.506  34.734  53.643  0.00  0.00     0.222 C 
ATOM     17  S   UNL d   1      52.879  35.207  53.064  0.00  0.00    -0.037 SA
BRANCH  16  18
ATOM     18  N   UNL d   1      52.328  35.046  54.401  0.00  0.00    -0.214 NA
ATOM     19  C   UNL d   1      52.825  35.618  54.756  0.00  0.00     0.122 C 
ENDBRANCH  16  18
ENDBRANCH   1  16
BRANCH   4  20
ATOM     20  C   UNL d   1      52.742  31.882  53.357  0.00  0.00     0.019 A 
ATOM     21  C   UNL d   1      53.430  31.749  53.757  0.00  0.00     0.002 A 
ATOM     22  C   UNL d   1      53.761  30.996  53.792  0.00  0.00     0.000 A 
ATOM     23  C   UNL d   1      53.366  30.369  53.401  0.00  0.00     0.000 A 
ATOM     24  C   UNL d   1      52.663  30.512  52.994  0.00  0.00     0.000 A 
ATOM     25  C   UNL d   1      53.680  29.606  53.423  0.00  0.00     0.000 C 
ATOM     26  C   UNL d   1      52.352  31.263  52.971  0.00  0.00     0.002 A 
ENDBRANCH   4  20
TORSDOF 6
ENDMDL
