MODEL 1
REMARK VINA RESULT:      20.7      0.000      0.000
REMARK  3 active torsions:
REMARK  status: ('A' for Active; 'I' for Inactive)
REMARK    1  A    between atoms: N_9  and  C_5 
REMARK    2  A    between atoms: C_12  and  N_9 
REMARK    3  A    between atoms: C_13  and  C_12 
ROOT
ATOM      1  C   UNL d   1      45.805 -15.868  43.988  0.00  0.00     0.153 A 
ATOM      2  O   UNL d   1      46.233 -15.304  43.571  0.00  0.00    -0.302 OA
ATOM      3  C   UNL d   1      45.251 -15.474  44.457  0.00  0.00     0.111 A 
ATOM      4  C   UNL d   1      45.341 -14.661  44.323  0.00  0.00     0.043 A 
ATOM      5  C   UNL d   1      45.848 -16.696  44.003  0.00  0.00     0.189 A 
ATOM      6  C   UNL d   1      45.945 -14.559  43.780  0.00  0.00     0.102 A 
ATOM      7  N   UNL d   1      45.336 -17.125  44.487  0.00  0.00    -0.203 NA
ATOM      8  N   UNL d   1      44.743 -15.911  44.936  0.00  0.00    -0.222 NA
ATOM      9  C   UNL d   1      44.781 -16.731  44.955  0.00  0.00     0.201 A 
ATOM     10  C   UNL d   1      44.944 -14.016  44.635  0.00  0.00     0.004 A 
ATOM     11  C   UNL d   1      46.155 -13.798  43.544  0.00  0.00     0.025 A 
ATOM     12  C   UNL d   1      45.155 -13.256  44.399  0.00  0.00     0.000 A 
ATOM     13  C   UNL d   1      45.761 -13.146  43.853  0.00  0.00     0.002 A 
ENDROOT
BRANCH   5  14
ATOM     14  N   UNL d   1      46.406 -17.091  43.533  0.00  0.00    -0.222 NA
BRANCH  14  15
ATOM     15  C   UNL d   1      46.459 -17.913  43.569  0.00  0.00     0.120 C 
BRANCH  15  16
ATOM     16  C   UNL d   1      46.470 -18.349  42.869  0.00  0.00     0.101 A 
ATOM     17  N   UNL d   1      46.314 -19.159  42.885  0.00  0.00    -0.242 NA
ATOM     18  C   UNL d   1      46.323 -19.606  42.187  0.00  0.00     0.099 A 
ATOM     19  C   UNL d   1      46.491 -19.231  41.466  0.00  0.00     0.021 A 
ATOM     20  C   UNL d   1      46.646 -18.421  41.450  0.00  0.00     0.003 A 
ATOM     21  C   UNL d   1      46.635 -17.981  42.153  0.00  0.00     0.021 A 
ENDBRANCH  15  16
ENDBRANCH  14  15
ENDBRANCH   5  14
TORSDOF 3
ENDMDL
