MODEL 1
REMARK VINA RESULT:      23.6      0.000      0.000
REMARK  4 active torsions:
REMARK  status: ('A' for Active; 'I' for Inactive)
REMARK    1  A    between atoms: N_2  and  S_1 
REMARK    2  A    between atoms: C_4  and  S_1 
REMARK    3  A    between atoms: C_15  and  C_3 
REMARK    4  A    between atoms: O_16  and  C_12 
ROOT
ATOM      1  S   UNL d   1      45.934 -16.829  44.354  0.00  0.00     0.273 S 
ATOM      2  O   UNL d   1      45.302 -16.942  43.835  0.00  0.00    -0.200 OA
ATOM      3  O   UNL d   1      46.566 -16.716  44.872  0.00  0.00    -0.200 OA
ENDROOT
BRANCH   1   4
ATOM      4  N   UNL d   1      46.147 -17.624  44.267  0.00  0.00    -0.213 N 
ATOM      5  C   UNL d   1      46.320 -18.003  43.554  0.00  0.00     0.157 A 
ATOM      6  N   UNL d   1      46.505 -18.793  43.727  0.00  0.00    -0.226 NA
ATOM      7  C   UNL d   1      46.445 -18.898  44.543  0.00  0.00     0.101 A 
ATOM      8  C   UNL d   1      46.224 -18.173  44.880  0.00  0.00     0.112 A 
ATOM      9  C   UNL d   1      46.582 -19.599  44.954  0.00  0.00     0.022 C 
BRANCH   5  10
ATOM     10  C   UNL d   1      46.310 -17.660  42.810  0.00  0.00     0.038 C 
ATOM     11  C   UNL d   1      46.464 -18.120  42.145  0.00  0.00     0.003 C 
ENDBRANCH   5  10
ENDBRANCH   1   4
BRANCH   1  12
ATOM     12  C   UNL d   1      45.721 -16.037  44.440  0.00  0.00     0.106 A 
ATOM     13  C   UNL d   1      46.251 -15.441  44.224  0.00  0.00     0.037 A 
ATOM     14  C   UNL d   1      46.038 -14.650  44.310  0.00  0.00     0.095 A 
ATOM     15  C   UNL d   1      45.296 -14.452  44.613  0.00  0.00     0.022 A 
ATOM     16  C   UNL d   1      44.767 -15.047  44.828  0.00  0.00     0.003 A 
ATOM     17  C   UNL d   1      45.083 -13.659  44.699  0.00  0.00     0.002 C 
ATOM     18  C   UNL d   1      44.980 -15.838  44.742  0.00  0.00     0.012 A 
ATOM     19  C   UNL d   1      44.459 -16.431  44.955  0.00  0.00     0.001 C 
BRANCH  14  20
ATOM     20  O   UNL d   1      46.571 -14.053  44.092  0.00  0.00    -0.328 OA
ATOM     21  C   UNL d   1      46.352 -13.491  43.530  0.00  0.00     0.181 C 
ENDBRANCH  14  20
ENDBRANCH   1  12
TORSDOF 4
ENDMDL
MODEL 2
REMARK VINA RESULT:      25.4      0.762      1.573
REMARK  4 active torsions:
REMARK  status: ('A' for Active; 'I' for Inactive)
REMARK    1  A    between atoms: N_2  and  S_1 
REMARK    2  A    between atoms: C_4  and  S_1 
REMARK    3  A    between atoms: C_15  and  C_3 
REMARK    4  A    between atoms: O_16  and  C_12 
ROOT
ATOM      1  S   UNL d   1      46.023 -17.385  43.613  0.00  0.00     0.273 S 
ATOM      2  O   UNL d   1      46.647 -17.446  44.150  0.00  0.00    -0.200 OA
ATOM      3  O   UNL d   1      45.400 -17.324  43.076  0.00  0.00    -0.200 OA
ENDROOT
BRANCH   1   4
ATOM      4  N   UNL d   1      46.242 -18.109  43.277  0.00  0.00    -0.213 N 
ATOM      5  C   UNL d   1      46.477 -18.783  43.692  0.00  0.00     0.157 A 
ATOM      6  N   UNL d   1      46.644 -19.376  43.137  0.00  0.00    -0.226 NA
ATOM      7  C   UNL d   1      46.512 -19.066  42.384  0.00  0.00     0.101 A 
ATOM      8  C   UNL d   1      46.263 -18.280  42.469  0.00  0.00     0.112 A 
ATOM      9  C   UNL d   1      46.610 -19.466  41.669  0.00  0.00     0.022 C 
BRANCH   5  10
ATOM     10  C   UNL d   1      46.534 -18.853  44.507  0.00  0.00     0.038 C 
ATOM     11  C   UNL d   1      46.628 -19.596  44.848  0.00  0.00     0.003 C 
ENDBRANCH   5  10
ENDBRANCH   1   4
BRANCH   1  12
ATOM     12  C   UNL d   1      45.805 -16.663  43.948  0.00  0.00     0.106 A 
ATOM     13  C   UNL d   1      46.206 -15.973  43.739  0.00  0.00     0.037 A 
ATOM     14  C   UNL d   1      45.989 -15.252  44.073  0.00  0.00     0.095 A 
ATOM     15  C   UNL d   1      45.369 -15.220  44.619  0.00  0.00     0.022 A 
ATOM     16  C   UNL d   1      44.969 -15.910  44.828  0.00  0.00     0.003 A 
ATOM     17  C   UNL d   1      45.151 -14.498  44.954  0.00  0.00     0.002 C 
ATOM     18  C   UNL d   1      45.187 -16.631  44.493  0.00  0.00     0.012 A 
ATOM     19  C   UNL d   1      44.793 -17.317  44.697  0.00  0.00     0.001 C 
BRANCH  14  20
ATOM     20  O   UNL d   1      46.392 -14.559  43.861  0.00  0.00    -0.328 OA
ATOM     21  C   UNL d   1      46.037 -13.824  43.980  0.00  0.00     0.181 C 
ENDBRANCH  14  20
ENDBRANCH   1  12
TORSDOF 4
ENDMDL
