MODEL 1
REMARK VINA RESULT:      42.0      0.000      0.000
REMARK  3 active torsions:
REMARK  status: ('A' for Active; 'I' for Inactive)
REMARK    1  A    between atoms: C_5  and  C_1 
REMARK    2  A    between atoms: C_4  and  C_2 
REMARK       I    between atoms: N_8  and  C_4 
REMARK    3  A    between atoms: C_10  and  N_8 
ROOT
ATOM      1  C   UNL d   1      45.710 -19.221  42.741  0.00  0.00     0.118 A 
ATOM      2  C   UNL d   1      46.052 -18.852  43.397  0.00  0.00     0.103 A 
ATOM      3  N   UNL d   1      45.730 -20.030  42.886  0.00  0.00    -0.126 NA
ATOM      4  O   UNL d   1      46.075 -20.167  43.615  0.00  0.00    -0.211 OA
ATOM      5  C   UNL d   1      46.274 -19.432  43.932  0.00  0.00     0.131 A 
ATOM      6  C   UNL d   1      46.638 -19.294  44.664  0.00  0.00     0.029 C 
ENDROOT
BRANCH   2   7
ATOM      7  C   UNL d   1      46.148 -18.033  43.490  0.00  0.00     0.283 C 
ATOM      8  N   UNL d   1      45.805 -17.654  44.137  0.00  0.00    -0.204 NA
ATOM      9  O   UNL d   1      46.585 -17.618  42.935  0.00  0.00    -0.265 OA
BRANCH   8  10
ATOM     10  C   UNL d   1      45.900 -16.843  44.229  0.00  0.00     0.130 A 
ATOM     11  C   UNL d   1      45.372 -16.339  44.604  0.00  0.00     0.243 A 
ATOM     12  S   UNL d   1      45.681 -15.569  44.573  0.00  0.00    -0.044 SA
ATOM     13  O   UNL d   1      44.661 -16.550  44.951  0.00  0.00    -0.278 OA
ATOM     14  C   UNL d   1      46.401 -15.601  44.178  0.00  0.00     0.040 A 
ATOM     15  C   UNL d   1      46.539 -16.395  43.962  0.00  0.00     0.030 A 
ENDBRANCH   8  10
ENDBRANCH   2   7
BRANCH   1  16
ATOM     16  C   UNL d   1      45.410 -18.856  42.073  0.00  0.00     0.058 A 
ATOM     17  C   UNL d   1      44.637 -18.549  42.073  0.00  0.00     0.142 A 
ATOM     18  F   UNL d   1      44.178 -18.619  42.755  0.00  0.00    -0.204 F 
ATOM     19  C   UNL d   1      44.348 -18.186  41.398  0.00  0.00     0.030 A 
ATOM     20  C   UNL d   1      44.810 -18.118  40.719  0.00  0.00     0.003 A 
ATOM     21  C   UNL d   1      45.585 -18.426  40.722  0.00  0.00     0.012 A 
ATOM     22  C   UNL d   1      45.879 -18.792  41.396  0.00  0.00     0.061 A 
ATOM     23 CL   UNL d   1      46.647 -18.999  41.132  0.00  0.00    -0.082 Cl
ENDBRANCH   1  16
TORSDOF 3
ENDMDL
MODEL 2
REMARK VINA RESULT:      44.1      1.532      2.484
REMARK  3 active torsions:
REMARK  status: ('A' for Active; 'I' for Inactive)
REMARK    1  A    between atoms: C_5  and  C_1 
REMARK    2  A    between atoms: C_4  and  C_2 
REMARK       I    between atoms: N_8  and  C_4 
REMARK    3  A    between atoms: C_10  and  N_8 
ROOT
ATOM      1  C   UNL d   1      46.270 -18.658  42.646  0.00  0.00     0.118 A 
ATOM      2  C   UNL d   1      46.068 -17.867  42.515  0.00  0.00     0.103 A 
ATOM      3  N   UNL d   1      46.579 -18.946  41.941  0.00  0.00    -0.126 NA
ATOM      4  O   UNL d   1      46.572 -18.351  41.379  0.00  0.00    -0.211 OA
ATOM      5  C   UNL d   1      46.254 -17.681  41.739  0.00  0.00     0.131 A 
ATOM      6  C   UNL d   1      46.137 -16.941  41.384  0.00  0.00     0.029 C 
ENDROOT
BRANCH   2   7
ATOM      7  C   UNL d   1      45.736 -17.358  43.078  0.00  0.00     0.283 C 
ATOM      8  N   UNL d   1      46.096 -16.633  43.235  0.00  0.00    -0.204 NA
ATOM      9  O   UNL d   1      45.053 -17.586  43.469  0.00  0.00    -0.265 OA
BRANCH   8  10
ATOM     10  C   UNL d   1      45.767 -16.128  43.793  0.00  0.00     0.130 A 
ATOM     11  C   UNL d   1      45.972 -15.341  43.907  0.00  0.00     0.243 A 
ATOM     12  S   UNL d   1      45.507 -15.038  44.523  0.00  0.00    -0.044 SA
ATOM     13  O   UNL d   1      46.537 -14.921  43.489  0.00  0.00    -0.278 OA
ATOM     14  C   UNL d   1      45.015 -15.639  44.789  0.00  0.00     0.040 A 
ATOM     15  C   UNL d   1      45.176 -16.321  44.334  0.00  0.00     0.030 A 
ENDBRANCH   8  10
ENDBRANCH   2   7
BRANCH   1  16
ATOM     16  C   UNL d   1      46.182 -19.078  43.343  0.00  0.00     0.058 A 
ATOM     17  C   UNL d   1      45.917 -19.866  43.330  0.00  0.00     0.142 A 
ATOM     18  F   UNL d   1      45.745 -20.218  42.603  0.00  0.00    -0.204 F 
ATOM     19  C   UNL d   1      45.832 -20.275  44.034  0.00  0.00     0.030 A 
ATOM     20  C   UNL d   1      46.005 -19.920  44.757  0.00  0.00     0.003 A 
ATOM     21  C   UNL d   1      46.271 -19.130  44.768  0.00  0.00     0.012 A 
ATOM     22  C   UNL d   1      46.357 -18.714  44.064  0.00  0.00     0.061 A 
ATOM     23 CL   UNL d   1      46.626 -17.977  44.356  0.00  0.00    -0.082 Cl
ENDBRANCH   1  16
TORSDOF 3
ENDMDL
