MODEL 1
REMARK VINA RESULT:      -6.7      0.000      0.000
REMARK  4 active torsions:
REMARK  status: ('A' for Active; 'I' for Inactive)
REMARK       I    between atoms: N_3  and  C_1 
REMARK    1  A    between atoms: C_9  and  C_1 
REMARK    2  A    between atoms: C_2  and  N_3 
REMARK    3  A    between atoms: O_15  and  C_6 
REMARK    4  A    between atoms: O_16  and  C_8 
ROOT
ATOM      1  C   UNL d   1     -49.143  13.391  23.109  0.00  0.00     0.109 A 
ATOM      2  C   UNL d   1     -49.015  14.155  22.835  0.00  0.00     0.046 A 
ATOM      3  C   UNL d   1     -50.554  13.556  22.921  0.00  0.00     0.039 A 
ATOM      4  C   UNL d   1     -49.921  13.093  23.151  0.00  0.00     0.113 A 
ATOM      5  C   UNL d   1     -50.424  14.333  22.641  0.00  0.00     0.082 A 
ATOM      6  C   UNL d   1     -49.652  14.625  22.601  0.00  0.00     0.106 A 
ATOM      7 CL   UNL d   1     -51.064  14.801  22.408  0.00  0.00    -0.080 Cl
ENDROOT
BRANCH   1   8
ATOM      8  N   UNL d   1     -48.506  12.925  23.342  0.00  0.00    -0.206 NA
ATOM      9  C   UNL d   1     -47.920  12.732  22.798  0.00  0.00     0.279 C 
ATOM     10  O   UNL d   1     -47.970  13.006  22.021  0.00  0.00    -0.265 OA
BRANCH   9  11
ATOM     11  C   UNL d   1     -47.280  12.267  23.022  0.00  0.00     0.058 A 
ATOM     12  C   UNL d   1     -46.509  12.524  22.879  0.00  0.00     0.006 A 
ATOM     13  C   UNL d   1     -45.865  12.058  23.103  0.00  0.00     0.012 A 
ATOM     14  C   UNL d   1     -46.001  11.332  23.471  0.00  0.00     0.058 A 
ATOM     15  C   UNL d   1     -46.772  11.072  23.615  0.00  0.00     0.012 A 
ATOM     16 CL   UNL d   1     -45.362  10.860  23.698  0.00  0.00    -0.082 Cl
ATOM     17  C   UNL d   1     -47.406  11.544  23.388  0.00  0.00     0.006 A 
ENDBRANCH   9  11
ENDBRANCH   1   8
BRANCH   4  18
ATOM     18  O   UNL d   1     -50.045  12.326  23.428  0.00  0.00    -0.327 OA
ATOM     19  C   UNL d   1     -50.794  12.105  23.697  0.00  0.00     0.181 C 
ENDBRANCH   4  18
BRANCH   6  20
ATOM     20  O   UNL d   1     -49.523  15.399  22.322  0.00  0.00    -0.327 OA
ATOM     21  C   UNL d   1     -48.887  15.828  22.615  0.00  0.00     0.181 C 
ENDBRANCH   6  20
TORSDOF 4
ENDMDL
MODEL 2
REMARK VINA RESULT:      -5.8      9.424     10.294
REMARK  4 active torsions:
REMARK  status: ('A' for Active; 'I' for Inactive)
REMARK       I    between atoms: N_3  and  C_1 
REMARK    1  A    between atoms: C_9  and  C_1 
REMARK    2  A    between atoms: C_2  and  N_3 
REMARK    3  A    between atoms: O_15  and  C_6 
REMARK    4  A    between atoms: O_16  and  C_8 
ROOT
ATOM      1  C   UNL d   1     -39.509  14.255  18.549  0.00  0.00     0.109 A 
ATOM      2  C   UNL d   1     -39.933  14.941  18.396  0.00  0.00     0.046 A 
ATOM      3  C   UNL d   1     -39.203  14.128  17.155  0.00  0.00     0.039 A 
ATOM      4  C   UNL d   1     -39.142  13.848  17.921  0.00  0.00     0.113 A 
ATOM      5  C   UNL d   1     -39.636  14.827  16.999  0.00  0.00     0.082 A 
ATOM      6  C   UNL d   1     -39.998  15.226  17.624  0.00  0.00     0.106 A 
ATOM      7 CL   UNL d   1     -39.698  15.110  16.225  0.00  0.00    -0.080 Cl
ENDROOT
BRANCH   1   8
ATOM      8  N   UNL d   1     -39.446  13.973  19.319  0.00  0.00    -0.206 NA
ATOM      9  C   UNL d   1     -39.139  14.456  19.910  0.00  0.00     0.279 C 
ATOM     10  O   UNL d   1     -38.894  15.223  19.730  0.00  0.00    -0.265 OA
BRANCH   9  11
ATOM     11  C   UNL d   1     -39.073  14.182  20.682  0.00  0.00     0.058 A 
ATOM     12  C   UNL d   1     -38.350  13.900  20.962  0.00  0.00     0.006 A 
ATOM     13  C   UNL d   1     -38.282  13.624  21.738  0.00  0.00     0.012 A 
ATOM     14  C   UNL d   1     -38.944  13.633  22.229  0.00  0.00     0.058 A 
ATOM     15  C   UNL d   1     -39.670  13.915  21.951  0.00  0.00     0.012 A 
ATOM     16 CL   UNL d   1     -38.885  13.358  23.006  0.00  0.00    -0.082 Cl
ATOM     17  C   UNL d   1     -39.727  14.187  21.177  0.00  0.00     0.006 A 
ENDBRANCH   9  11
ENDBRANCH   1   8
BRANCH   4  18
ATOM     18  O   UNL d   1     -38.716  13.160  18.079  0.00  0.00    -0.327 OA
ATOM     19  C   UNL d   1     -38.477  12.675  17.454  0.00  0.00     0.181 C 
ENDBRANCH   4  18
BRANCH   6  20
ATOM     20  O   UNL d   1     -40.429  15.922  17.469  0.00  0.00    -0.327 OA
ATOM     21  C   UNL d   1     -41.242  15.922  17.581  0.00  0.00     0.181 C 
ENDBRANCH   6  20
TORSDOF 4
ENDMDL
MODEL 3
REMARK VINA RESULT:      -5.1      9.022     10.676
REMARK  4 active torsions:
REMARK  status: ('A' for Active; 'I' for Inactive)
REMARK       I    between atoms: N_3  and  C_1 
REMARK    1  A    between atoms: C_9  and  C_1 
REMARK    2  A    between atoms: C_2  and  N_3 
REMARK    3  A    between atoms: O_15  and  C_6 
REMARK    4  A    between atoms: O_16  and  C_8 
ROOT
ATOM      1  C   UNL d   1     -39.454  14.667  19.804  0.00  0.00     0.109 A 
ATOM      2  C   UNL d   1     -38.965  14.334  20.373  0.00  0.00     0.046 A 
ATOM      3  C   UNL d   1     -40.091  15.464  20.810  0.00  0.00     0.039 A 
ATOM      4  C   UNL d   1     -40.020  15.237  20.028  0.00  0.00     0.113 A 
ATOM      5  C   UNL d   1     -39.593  15.125  21.391  0.00  0.00     0.082 A 
ATOM      6  C   UNL d   1     -39.034  14.561  21.164  0.00  0.00     0.106 A 
ATOM      7 CL   UNL d   1     -39.664  15.354  22.182  0.00  0.00    -0.080 Cl
ENDROOT
BRANCH   1   8
ATOM      8  N   UNL d   1     -39.384  14.439  19.016  0.00  0.00    -0.206 NA
ATOM      9  C   UNL d   1     -38.664  14.526  18.627  0.00  0.00     0.279 C 
ATOM     10  O   UNL d   1     -38.014  14.842  19.026  0.00  0.00    -0.265 OA
BRANCH   9  11
ATOM     11  C   UNL d   1     -38.585  14.301  17.840  0.00  0.00     0.058 A 
ATOM     12  C   UNL d   1     -38.569  14.872  17.245  0.00  0.00     0.006 A 
ATOM     13  C   UNL d   1     -38.490  14.648  16.453  0.00  0.00     0.012 A 
ATOM     14  C   UNL d   1     -38.428  13.847  16.265  0.00  0.00     0.058 A 
ATOM     15  C   UNL d   1     -38.444  13.273  16.860  0.00  0.00     0.012 A 
ATOM     16 CL   UNL d   1     -38.348  13.614  15.476  0.00  0.00    -0.082 Cl
ATOM     17  C   UNL d   1     -38.523  13.507  17.645  0.00  0.00     0.006 A 
ENDBRANCH   9  11
ENDBRANCH   1   8
BRANCH   4  18
ATOM     18  O   UNL d   1     -40.509  15.569  19.453  0.00  0.00    -0.327 OA
ATOM     19  C   UNL d   1     -41.222  15.922  19.677  0.00  0.00     0.181 C 
ENDBRANCH   4  18
BRANCH   6  20
ATOM     20  O   UNL d   1     -38.538  14.223  21.742  0.00  0.00    -0.327 OA
ATOM     21  C   UNL d   1     -38.526  13.407  21.831  0.00  0.00     0.181 C 
ENDBRANCH   6  20
TORSDOF 4
ENDMDL
MODEL 4
REMARK VINA RESULT:      -5.0      1.703      4.166
REMARK  4 active torsions:
REMARK  status: ('A' for Active; 'I' for Inactive)
REMARK       I    between atoms: N_3  and  C_1 
REMARK    1  A    between atoms: C_9  and  C_1 
REMARK    2  A    between atoms: C_2  and  N_3 
REMARK    3  A    between atoms: O_15  and  C_6 
REMARK    4  A    between atoms: O_16  and  C_8 
ROOT
ATOM      1  C   UNL d   1     -46.695  12.921  22.705  0.00  0.00     0.109 A 
ATOM      2  C   UNL d   1     -46.184  12.286  22.802  0.00  0.00     0.046 A 
ATOM      3  C   UNL d   1     -45.638  13.688  22.115  0.00  0.00     0.039 A 
ATOM      4  C   UNL d   1     -46.416  13.626  22.358  0.00  0.00     0.113 A 
ATOM      5  C   UNL d   1     -45.117  13.040  22.214  0.00  0.00     0.082 A 
ATOM      6  C   UNL d   1     -45.398  12.344  22.558  0.00  0.00     0.106 A 
ATOM      7 CL   UNL d   1     -44.330  13.102  21.968  0.00  0.00    -0.080 Cl
ENDROOT
BRANCH   1   8
ATOM      8  N   UNL d   1     -47.479  12.860  22.949  0.00  0.00    -0.206 NA
ATOM      9  C   UNL d   1     -47.927  12.206  22.730  0.00  0.00     0.279 C 
ATOM     10  O   UNL d   1     -47.591  11.611  22.267  0.00  0.00    -0.265 OA
BRANCH   9  11
ATOM     11  C   UNL d   1     -48.710  12.137  22.970  0.00  0.00     0.058 A 
ATOM     12  C   UNL d   1     -49.269  12.692  22.725  0.00  0.00     0.006 A 
ATOM     13  C   UNL d   1     -50.057  12.626  22.965  0.00  0.00     0.012 A 
ATOM     14  C   UNL d   1     -50.279  11.997  23.451  0.00  0.00     0.058 A 
ATOM     15  C   UNL d   1     -49.721  11.440  23.698  0.00  0.00     0.012 A 
ATOM     16 CL   UNL d   1     -51.064  11.923  23.696  0.00  0.00    -0.082 Cl
ATOM     17  C   UNL d   1     -48.939  11.516  23.453  0.00  0.00     0.006 A 
ENDBRANCH   9  11
ENDBRANCH   1   8
BRANCH   4  18
ATOM     18  O   UNL d   1     -46.933  14.262  22.262  0.00  0.00    -0.327 OA
ATOM     19  C   UNL d   1     -46.834  14.941  22.722  0.00  0.00     0.181 C 
ENDBRANCH   4  18
BRANCH   6  20
ATOM     20  O   UNL d   1     -44.879  11.700  22.656  0.00  0.00    -0.327 OA
ATOM     21  C   UNL d   1     -44.944  11.233  23.328  0.00  0.00     0.181 C 
ENDBRANCH   6  20
TORSDOF 4
ENDMDL
MODEL 5
REMARK VINA RESULT:      -4.7      7.969      9.910
REMARK  4 active torsions:
REMARK  status: ('A' for Active; 'I' for Inactive)
REMARK       I    between atoms: N_3  and  C_1 
REMARK    1  A    between atoms: C_9  and  C_1 
REMARK    2  A    between atoms: C_2  and  N_3 
REMARK    3  A    between atoms: O_15  and  C_6 
REMARK    4  A    between atoms: O_16  and  C_8 
ROOT
ATOM      1  C   UNL d   1     -40.097  14.607  20.173  0.00  0.00     0.109 A 
ATOM      2  C   UNL d   1     -39.302  14.736  20.332  0.00  0.00     0.046 A 
ATOM      3  C   UNL d   1     -40.227  13.870  21.395  0.00  0.00     0.039 A 
ATOM      4  C   UNL d   1     -40.560  14.170  20.711  0.00  0.00     0.113 A 
ATOM      5  C   UNL d   1     -39.417  14.001  21.557  0.00  0.00     0.082 A 
ATOM      6  C   UNL d   1     -38.962  14.434  21.021  0.00  0.00     0.106 A 
ATOM      7 CL   UNL d   1     -39.080  13.698  22.248  0.00  0.00    -0.080 Cl
ENDROOT
BRANCH   1   8
ATOM      8  N   UNL d   1     -40.434  14.908  19.485  0.00  0.00    -0.206 NA
ATOM      9  C   UNL d   1     -40.097  14.737  18.754  0.00  0.00     0.279 C 
ATOM     10  O   UNL d   1     -39.422  14.264  18.711  0.00  0.00    -0.265 OA
BRANCH   9  11
ATOM     11  C   UNL d   1     -40.426  15.034  18.063  0.00  0.00     0.058 A 
ATOM     12  C   UNL d   1     -41.020  15.606  18.098  0.00  0.00     0.006 A 
ATOM     13  C   UNL d   1     -41.353  15.906  17.404  0.00  0.00     0.012 A 
ATOM     14  C   UNL d   1     -41.085  15.628  16.675  0.00  0.00     0.058 A 
ATOM     15  C   UNL d   1     -40.491  15.054  16.637  0.00  0.00     0.012 A 
ATOM     16 CL   UNL d   1     -41.413  15.922  15.976  0.00  0.00    -0.082 Cl
ATOM     17  C   UNL d   1     -40.166  14.762  17.334  0.00  0.00     0.006 A 
ENDBRANCH   9  11
ENDBRANCH   1   8
BRANCH   4  18
ATOM     18  O   UNL d   1     -41.359  14.043  20.548  0.00  0.00    -0.327 OA
ATOM     19  C   UNL d   1     -41.877  13.859  21.164  0.00  0.00     0.181 C 
ENDBRANCH   4  18
BRANCH   6  20
ATOM     20  O   UNL d   1     -38.155  14.565  21.183  0.00  0.00    -0.327 OA
ATOM     21  C   UNL d   1     -37.940  15.202  21.653  0.00  0.00     0.181 C 
ENDBRANCH   6  20
TORSDOF 4
ENDMDL
