MODEL 1
REMARK VINA RESULT:      45.5      0.000      0.000
REMARK  4 active torsions:
REMARK  status: ('A' for Active; 'I' for Inactive)
REMARK    1  A    between atoms: C_5  and  C_1 
REMARK    2  A    between atoms: C_2  and  C_5 
REMARK    3  A    between atoms: C_12  and  N_3 
REMARK    4  A    between atoms: C_13  and  N_4 
ROOT
ATOM      1  C   UNL d   1      14.727  13.756  -1.272  0.00  0.00     0.133 C 
ATOM      2 CL   UNL d   1      14.412  13.707  -2.044  0.00  0.00    -0.076 Cl
ENDROOT
BRANCH   1   3
ATOM      3  C   UNL d   1      14.937  13.077  -0.856  0.00  0.00     0.202 A 
ATOM      4  N   UNL d   1      14.691  12.354  -1.119  0.00  0.00    -0.191 N 
ATOM      5  N   UNL d   1      14.978  11.781  -0.604  0.00  0.00    -0.039 NA
ATOM      6  N   UNL d   1      15.402  12.153  -0.021  0.00  0.00    -0.022 NA
ATOM      7  N   UNL d   1      15.379  12.959  -0.175  0.00  0.00    -0.107 NA
BRANCH   4   8
ATOM      8  C   UNL d   1      14.236  12.212  -1.782  0.00  0.00     0.086 A 
ATOM      9  C   UNL d   1      13.425  12.079  -1.707  0.00  0.00     0.019 A 
ATOM     10  C   UNL d   1      12.967  11.937  -2.378  0.00  0.00     0.002 A 
ATOM     11  C   UNL d   1      13.320  11.928  -3.121  0.00  0.00     0.000 A 
ATOM     12  C   UNL d   1      14.133  12.061  -3.201  0.00  0.00     0.002 A 
ATOM     13  C   UNL d   1      12.858  11.783  -3.809  0.00  0.00     0.000 C 
ATOM     14  C   UNL d   1      14.587  12.203  -2.529  0.00  0.00     0.019 A 
ENDBRANCH   4   8
ENDBRANCH   1   3
BRANCH   1  15
ATOM     15  C   UNL d   1      14.829  14.501  -0.918  0.00  0.00     0.202 A 
ATOM     16  N   UNL d   1      14.800  15.224  -1.299  0.00  0.00    -0.191 N 
ATOM     17  N   UNL d   1      14.930  15.809  -0.739  0.00  0.00    -0.039 NA
ATOM     18  N   UNL d   1      15.038  15.441  -0.015  0.00  0.00    -0.022 NA
ATOM     19  N   UNL d   1      14.977  14.644  -0.119  0.00  0.00    -0.107 NA
BRANCH  16  20
ATOM     20  C   UNL d   1      14.667  15.378  -2.099  0.00  0.00     0.086 A 
ATOM     21  C   UNL d   1      14.026  15.028  -2.494  0.00  0.00     0.019 A 
ATOM     22  C   UNL d   1      13.893  15.182  -3.294  0.00  0.00     0.002 A 
ATOM     23  C   UNL d   1      14.400  15.688  -3.701  0.00  0.00     0.000 A 
ATOM     24  C   UNL d   1      15.032  16.036  -3.319  0.00  0.00     0.002 A 
ATOM     25  C   UNL d   1      14.272  15.850  -4.515  0.00  0.00     0.000 C 
ATOM     26  C   UNL d   1      15.166  15.881  -2.519  0.00  0.00     0.019 A 
ENDBRANCH  16  20
ENDBRANCH   1  15
TORSDOF 4
ENDMDL
