MODEL 1
REMARK VINA RESULT:      51.9      0.000      0.000
REMARK  4 active torsions:
REMARK  status: ('A' for Active; 'I' for Inactive)
REMARK    1  A    between atoms: C_10  and  N_3 
REMARK    2  A    between atoms: C_11  and  C_6 
REMARK    3  A    between atoms: C_16  and  C_10 
REMARK    4  A    between atoms: N_17  and  C_16 
ROOT
ATOM      1  C   UNL d   1     -51.684  24.918  33.411  0.00  0.00     0.083 A 
ATOM      2  C   UNL d   1     -52.179  25.562  33.373  0.00  0.00     0.161 A 
ATOM      3  N   UNL d   1     -50.944  26.001  33.421  0.00  0.00    -0.270 N 
ATOM      4  C   UNL d   1     -51.721  26.234  33.379  0.00  0.00     0.288 A 
ATOM      5  C   UNL d   1     -51.987  24.155  33.415  0.00  0.00     0.201 A 
ATOM      6  C   UNL d   1     -50.921  25.192  33.441  0.00  0.00     0.072 A 
ATOM      7  O   UNL d   1     -52.996  25.446  33.338  0.00  0.00    -0.302 OA
ATOM      8  C   UNL d   1     -52.801  24.051  33.379  0.00  0.00     0.062 A 
ATOM      9  C   UNL d   1     -53.299  24.699  33.341  0.00  0.00     0.103 A 
ATOM     10  O   UNL d   1     -52.003  27.014  33.348  0.00  0.00    -0.264 OA
ATOM     11  O   UNL d   1     -51.484  23.500  33.453  0.00  0.00    -0.286 OA
ATOM     12  C   UNL d   1     -53.114  23.287  33.382  0.00  0.00     0.005 A 
ATOM     13  C   UNL d   1     -54.113  24.586  33.306  0.00  0.00     0.025 A 
ATOM     14  C   UNL d   1     -53.917  23.192  33.347  0.00  0.00     0.000 A 
ATOM     15  C   UNL d   1     -54.415  23.840  33.309  0.00  0.00     0.002 A 
ENDROOT
BRANCH   6  16
ATOM     16  C   UNL d   1     -50.234  24.720  33.484  0.00  0.00     0.017 A 
ATOM     17  C   UNL d   1     -50.295  23.926  33.699  0.00  0.00     0.004 A 
ATOM     18  C   UNL d   1     -49.613  23.460  33.741  0.00  0.00     0.030 A 
ATOM     19  C   UNL d   1     -48.862  23.793  33.565  0.00  0.00     0.140 A 
ATOM     20  C   UNL d   1     -48.812  24.589  33.350  0.00  0.00     0.030 A 
ATOM     21  F   UNL d   1     -48.176  23.325  33.607  0.00  0.00    -0.204 F 
ATOM     22  C   UNL d   1     -49.497  25.059  33.308  0.00  0.00     0.004 A 
ENDBRANCH   6  16
BRANCH   3  23
ATOM     23  C   UNL d   1     -50.282  26.511  33.440  0.00  0.00     0.102 C 
BRANCH  23  24
ATOM     24  C   UNL d   1     -50.326  27.225  33.871  0.00  0.00     0.100 C 
BRANCH  24  25
ATOM     25  N   UNL d   1     -49.662  27.482  34.308  0.00  0.00    -0.299 N 
ATOM     26  C   UNL d   1     -49.052  27.897  33.924  0.00  0.00     0.100 C 
ATOM     27  C   UNL d   1     -49.616  27.322  35.120  0.00  0.00     0.100 C 
ENDBRANCH  24  25
ENDBRANCH  23  24
ENDBRANCH   3  23
TORSDOF 4
ENDMDL
