MODEL 1
REMARK VINA RESULT:      38.4      0.000      0.000
REMARK  4 active torsions:
REMARK  status: ('A' for Active; 'I' for Inactive)
REMARK    1  A    between atoms: C_8  and  C_1 
REMARK    2  A    between atoms: C_4  and  C_2 
REMARK    3  A    between atoms: O_16  and  C_8 
REMARK    4  A    between atoms: C_21  and  O_16 
ROOT
ATOM      1  C   UNL d   1      13.686  13.598  -3.381  0.00  0.00     0.099 A 
ATOM      2  C   UNL d   1      13.925  13.703  -2.598  0.00  0.00     0.096 A 
ATOM      3  C   UNL d   1      13.693  14.249  -3.908  0.00  0.00     0.093 A 
ATOM      4  C   UNL d   1      14.176  15.090  -2.861  0.00  0.00     0.369 A 
ATOM      5  N   UNL d   1      13.939  14.994  -3.643  0.00  0.00    -0.191 NA
ATOM      6  N   UNL d   1      14.169  14.448  -2.341  0.00  0.00    -0.191 NA
ATOM      7  O   UNL d   1      14.422  15.836  -2.597  0.00  0.00    -0.242 OA
ATOM      8  C   UNL d   1      13.458  14.155  -4.686  0.00  0.00     0.021 C 
ENDROOT
BRANCH   2   9
ATOM      9  C   UNL d   1      13.918  13.068  -2.084  0.00  0.00     0.057 A 
ATOM     10  C   UNL d   1      14.477  13.011  -1.481  0.00  0.00     0.005 A 
ATOM     11  C   UNL d   1      14.470  12.368  -0.961  0.00  0.00     0.000 A 
ATOM     12  C   UNL d   1      15.049  13.608  -1.402  0.00  0.00     0.000 A 
ATOM     13  C   UNL d   1      15.035  12.319  -0.359  0.00  0.00     0.000 A 
ATOM     14  C   UNL d   1      13.904  11.779  -1.041  0.00  0.00     0.003 A 
ATOM     15  C   UNL d   1      15.604  12.909  -0.277  0.00  0.00     0.000 A 
ATOM     16  C   UNL d   1      15.611  13.552  -0.798  0.00  0.00     0.000 A 
ATOM     17  C   UNL d   1      13.339  11.828  -1.643  0.00  0.00     0.042 A 
ATOM     18  C   UNL d   1      13.346  12.497  -2.184  0.00  0.00     0.197 A 
ATOM     19  O   UNL d   1      12.794  11.833  -2.189  0.00  0.00    -0.286 OA
ENDBRANCH   2   9
BRANCH   1  20
ATOM     20  C   UNL d   1      13.443  12.853  -3.632  0.00  0.00     0.303 C 
ATOM     21  O   UNL d   1      13.406  12.231  -3.100  0.00  0.00    -0.259 OA
BRANCH  20  22
ATOM     22  O   UNL d   1      13.240  12.743  -4.424  0.00  0.00    -0.271 OA
BRANCH  22  23
ATOM     23  C   UNL d   1      13.306  11.992  -4.750  0.00  0.00     0.126 C 
ATOM     24  C   UNL d   1      12.849  11.780  -5.396  0.00  0.00     0.029 C 
ENDBRANCH  22  23
ENDBRANCH  20  22
ENDBRANCH   1  20
TORSDOF 4
ENDMDL
MODEL 2
REMARK VINA RESULT:      38.6      1.153      3.119
REMARK  4 active torsions:
REMARK  status: ('A' for Active; 'I' for Inactive)
REMARK    1  A    between atoms: C_8  and  C_1 
REMARK    2  A    between atoms: C_4  and  C_2 
REMARK    3  A    between atoms: O_16  and  C_8 
REMARK    4  A    between atoms: C_21  and  O_16 
ROOT
ATOM      1  C   UNL d   1      14.571  14.011  -1.375  0.00  0.00     0.099 A 
ATOM      2  C   UNL d   1      14.349  13.951  -2.167  0.00  0.00     0.096 A 
ATOM      3  C   UNL d   1      14.849  14.743  -1.076  0.00  0.00     0.093 A 
ATOM      4  C   UNL d   1      14.676  15.333  -2.364  0.00  0.00     0.369 A 
ATOM      5  N   UNL d   1      14.900  15.402  -1.575  0.00  0.00    -0.191 NA
ATOM      6  N   UNL d   1      14.402  14.611  -2.658  0.00  0.00    -0.191 NA
ATOM      7  O   UNL d   1      14.727  15.992  -2.863  0.00  0.00    -0.242 OA
ATOM      8  C   UNL d   1      15.072  14.813  -0.291  0.00  0.00     0.021 C 
ENDROOT
BRANCH   2   9
ATOM      9  C   UNL d   1      14.078  13.237  -2.458  0.00  0.00     0.057 A 
ATOM     10  C   UNL d   1      13.642  13.208  -3.157  0.00  0.00     0.005 A 
ATOM     11  C   UNL d   1      13.368  12.485  -3.451  0.00  0.00     0.000 A 
ATOM     12  C   UNL d   1      13.481  13.914  -3.563  0.00  0.00     0.000 A 
ATOM     13  C   UNL d   1      12.931  12.466  -4.153  0.00  0.00     0.000 A 
ATOM     14  C   UNL d   1      13.528  11.789  -3.048  0.00  0.00     0.003 A 
ATOM     15  C   UNL d   1      12.770  13.164  -4.559  0.00  0.00     0.000 A 
ATOM     16  C   UNL d   1      13.044  13.886  -4.264  0.00  0.00     0.000 A 
ATOM     17  C   UNL d   1      13.965  11.808  -2.346  0.00  0.00     0.042 A 
ATOM     18  C   UNL d   1      14.250  12.560  -2.040  0.00  0.00     0.197 A 
ATOM     19  O   UNL d   1      14.367  11.779  -1.689  0.00  0.00    -0.286 OA
ENDBRANCH   2   9
BRANCH   1  20
ATOM     20  C   UNL d   1      14.517  13.349  -0.888  0.00  0.00     0.303 C 
ATOM     21  O   UNL d   1      13.827  13.202  -0.470  0.00  0.00    -0.259 OA
BRANCH  20  22
ATOM     22  O   UNL d   1      15.162  12.840  -0.829  0.00  0.00    -0.271 OA
BRANCH  22  23
ATOM     23  C   UNL d   1      15.387  12.569  -0.088  0.00  0.00     0.126 C 
ATOM     24  C   UNL d   1      15.979  12.007  -0.015  0.00  0.00     0.029 C 
ENDBRANCH  22  23
ENDBRANCH  20  22
ENDBRANCH   1  20
TORSDOF 4
ENDMDL
MODEL 3
REMARK VINA RESULT:      40.4      1.502      3.713
REMARK  4 active torsions:
REMARK  status: ('A' for Active; 'I' for Inactive)
REMARK    1  A    between atoms: C_8  and  C_1 
REMARK    2  A    between atoms: C_4  and  C_2 
REMARK    3  A    between atoms: O_16  and  C_8 
REMARK    4  A    between atoms: C_21  and  O_16 
ROOT
ATOM      1  C   UNL d   1      14.701  14.100  -1.323  0.00  0.00     0.099 A 
ATOM      2  C   UNL d   1      14.590  13.490  -1.866  0.00  0.00     0.096 A 
ATOM      3  C   UNL d   1      15.046  13.933  -0.577  0.00  0.00     0.093 A 
ATOM      4  C   UNL d   1      15.158  12.557  -0.937  0.00  0.00     0.369 A 
ATOM      5  N   UNL d   1      15.273  13.159  -0.389  0.00  0.00    -0.191 NA
ATOM      6  N   UNL d   1      14.818  12.722  -1.673  0.00  0.00    -0.191 NA
ATOM      7  O   UNL d   1      15.386  11.783  -0.749  0.00  0.00    -0.242 OA
ATOM      8  C   UNL d   1      15.160  14.532  -0.030  0.00  0.00     0.021 C 
ENDROOT
BRANCH   2   9
ATOM      9  C   UNL d   1      14.254  13.652  -2.593  0.00  0.00     0.057 A 
ATOM     10  C   UNL d   1      13.765  13.100  -2.961  0.00  0.00     0.005 A 
ATOM     11  C   UNL d   1      13.425  13.265  -3.697  0.00  0.00     0.000 A 
ATOM     12  C   UNL d   1      13.617  12.376  -2.584  0.00  0.00     0.000 A 
ATOM     13  C   UNL d   1      12.935  12.705  -4.059  0.00  0.00     0.000 A 
ATOM     14  C   UNL d   1      13.572  13.982  -4.068  0.00  0.00     0.003 A 
ATOM     15  C   UNL d   1      12.786  11.986  -3.688  0.00  0.00     0.000 A 
ATOM     16  C   UNL d   1      13.126  11.821  -2.952  0.00  0.00     0.000 A 
ATOM     17  C   UNL d   1      14.062  14.542  -3.706  0.00  0.00     0.042 A 
ATOM     18  C   UNL d   1      14.416  14.371  -2.941  0.00  0.00     0.197 A 
ATOM     19  O   UNL d   1      14.511  15.092  -3.406  0.00  0.00    -0.286 OA
ENDBRANCH   2   9
BRANCH   1  20
ATOM     20  C   UNL d   1      14.471  14.865  -1.521  0.00  0.00     0.303 C 
ATOM     21  O   UNL d   1      13.684  15.030  -1.678  0.00  0.00    -0.259 OA
BRANCH  20  22
ATOM     22  O   UNL d   1      15.042  15.458  -1.559  0.00  0.00    -0.271 OA
BRANCH  22  23
ATOM     23  C   UNL d   1      14.868  16.197  -1.246  0.00  0.00     0.126 C 
ATOM     24  C   UNL d   1      15.342  16.843  -1.420  0.00  0.00     0.029 C 
ENDBRANCH  22  23
ENDBRANCH  20  22
ENDBRANCH   1  20
TORSDOF 4
ENDMDL
