MODEL 1
REMARK VINA RESULT:      -7.3      0.000      0.000
REMARK  4 active torsions:
REMARK  status: ('A' for Active; 'I' for Inactive)
REMARK    1  A    between atoms: C_4  and  N_1 
REMARK    2  A    between atoms: C_8  and  C_2 
REMARK    3  A    between atoms: C_13  and  C_6 
REMARK    4  A    between atoms: C_7  and  C_8 
ROOT
ATOM      1  N   UNL d   1     -48.077  12.040  23.041  0.00  0.00    -0.255 N 
ATOM      2  C   UNL d   1     -46.885  12.624  23.154  0.00  0.00     0.101 A 
ATOM      3  C   UNL d   1     -47.544  11.477  23.347  0.00  0.00     0.305 A 
ATOM      4  C   UNL d   1     -46.802  11.841  23.418  0.00  0.00     0.256 A 
ATOM      5  C   UNL d   1     -47.662  12.738  22.927  0.00  0.00     0.075 A 
ATOM      6  O   UNL d   1     -47.721  10.696  23.545  0.00  0.00    -0.263 OA
ATOM      7  O   UNL d   1     -46.120  11.481  23.698  0.00  0.00    -0.281 OA
ENDROOT
BRANCH   2   8
ATOM      8  C   UNL d   1     -46.274  13.181  23.133  0.00  0.00     0.223 C 
ATOM      9  O   UNL d   1     -46.350  13.887  23.554  0.00  0.00    -0.284 OA
BRANCH   8  10
ATOM     10  C   UNL d   1     -45.595  13.042  22.702  0.00  0.00     0.139 A 
ATOM     11  O   UNL d   1     -45.327  13.487  22.060  0.00  0.00    -0.304 OA
ATOM     12  C   UNL d   1     -44.622  13.153  21.792  0.00  0.00     0.100 A 
ATOM     13  C   UNL d   1     -44.112  13.352  21.181  0.00  0.00     0.025 A 
ATOM     14  C   UNL d   1     -44.455  12.500  22.270  0.00  0.00     0.025 A 
ATOM     15  C   UNL d   1     -43.444  12.912  21.043  0.00  0.00     0.002 A 
ATOM     16  C   UNL d   1     -43.272  12.258  21.518  0.00  0.00     0.000 A 
ATOM     17  C   UNL d   1     -43.780  12.053  22.133  0.00  0.00     0.002 A 
ATOM     18  C   UNL d   1     -45.055  12.433  22.830  0.00  0.00     0.030 A 
ENDBRANCH   8  10
ENDBRANCH   2   8
BRANCH   5  19
ATOM     19  C   UNL d   1     -47.975  13.446  22.630  0.00  0.00     0.017 A 
ATOM     20  C   UNL d   1     -48.265  14.006  23.144  0.00  0.00     0.013 A 
ATOM     21  C   UNL d   1     -48.579  14.715  22.852  0.00  0.00     0.058 A 
ATOM     22 CL   UNL d   1     -48.874  15.286  23.371  0.00  0.00    -0.082 Cl
ATOM     23  C   UNL d   1     -48.596  14.850  22.038  0.00  0.00     0.011 A 
ATOM     24  C   UNL d   1     -48.301  14.280  21.519  0.00  0.00     0.001 A 
ATOM     25  C   UNL d   1     -47.990  13.577  21.822  0.00  0.00     0.002 A 
ENDBRANCH   5  19
BRANCH   1  26
ATOM     26  C   UNL d   1     -48.869  11.908  22.885  0.00  0.00     0.179 A 
ATOM     27  N   UNL d   1     -49.185  11.681  22.153  0.00  0.00    -0.108 NA
ATOM     28  O   UNL d   1     -49.998  11.609  22.240  0.00  0.00    -0.210 OA
ATOM     29  C   UNL d   1     -50.188  11.792  23.026  0.00  0.00     0.128 A 
ATOM     30  C   UNL d   1     -49.487  11.976  23.421  0.00  0.00     0.067 A 
ATOM     31  C   UNL d   1     -50.945  11.790  23.356  0.00  0.00     0.029 C 
ENDBRANCH   1  26
TORSDOF 4
ENDMDL
MODEL 2
REMARK VINA RESULT:      -5.5      6.622      8.681
REMARK  4 active torsions:
REMARK  status: ('A' for Active; 'I' for Inactive)
REMARK    1  A    between atoms: C_4  and  N_1 
REMARK    2  A    between atoms: C_8  and  C_2 
REMARK    3  A    between atoms: C_13  and  C_6 
REMARK    4  A    between atoms: C_7  and  C_8 
ROOT
ATOM      1  N   UNL d   1     -39.317  15.391  21.026  0.00  0.00    -0.255 N 
ATOM      2  C   UNL d   1     -39.654  15.391  19.737  0.00  0.00     0.101 A 
ATOM      3  C   UNL d   1     -38.667  15.679  20.591  0.00  0.00     0.305 A 
ATOM      4  C   UNL d   1     -38.877  15.679  19.789  0.00  0.00     0.256 A 
ATOM      5  C   UNL d   1     -39.915  15.219  20.492  0.00  0.00     0.075 A 
ATOM      6  O   UNL d   1     -37.942  15.921  20.902  0.00  0.00    -0.263 OA
ATOM      7  O   UNL d   1     -38.395  15.921  19.171  0.00  0.00    -0.281 OA
ENDROOT
BRANCH   2   8
ATOM      8  C   UNL d   1     -40.076  15.302  19.032  0.00  0.00     0.223 C 
ATOM      9  O   UNL d   1     -40.805  15.680  18.941  0.00  0.00    -0.284 OA
BRANCH   8  10
ATOM     10  C   UNL d   1     -39.784  14.843  18.423  0.00  0.00     0.139 A 
ATOM     11  O   UNL d   1     -39.392  14.121  18.502  0.00  0.00    -0.304 OA
ATOM     12  C   UNL d   1     -39.194  13.852  17.748  0.00  0.00     0.100 A 
ATOM     13  C   UNL d   1     -38.806  13.179  17.485  0.00  0.00     0.025 A 
ATOM     14  C   UNL d   1     -39.464  14.411  17.202  0.00  0.00     0.025 A 
ATOM     15  C   UNL d   1     -38.686  13.057  16.691  0.00  0.00     0.002 A 
ATOM     16  C   UNL d   1     -38.954  13.612  16.141  0.00  0.00     0.000 A 
ATOM     17  C   UNL d   1     -39.344  14.290  16.399  0.00  0.00     0.002 A 
ATOM     18  C   UNL d   1     -39.827  15.020  17.619  0.00  0.00     0.030 A 
ENDBRANCH   8  10
ENDBRANCH   2   8
BRANCH   5  19
ATOM     19  C   UNL d   1     -40.664  14.918  20.682  0.00  0.00     0.017 A 
ATOM     20  C   UNL d   1     -40.776  14.114  20.730  0.00  0.00     0.013 A 
ATOM     21  C   UNL d   1     -41.523  13.808  20.920  0.00  0.00     0.058 A 
ATOM     22 CL   UNL d   1     -41.640  12.992  20.970  0.00  0.00    -0.082 Cl
ATOM     23  C   UNL d   1     -42.151  14.324  21.061  0.00  0.00     0.011 A 
ATOM     24  C   UNL d   1     -42.035  15.140  21.012  0.00  0.00     0.001 A 
ATOM     25  C   UNL d   1     -41.286  15.432  20.821  0.00  0.00     0.002 A 
ENDBRANCH   5  19
BRANCH   1  26
ATOM     26  C   UNL d   1     -39.343  15.302  21.839  0.00  0.00     0.179 A 
ATOM     27  N   UNL d   1     -39.702  15.828  22.370  0.00  0.00    -0.108 NA
ATOM     28  O   UNL d   1     -39.600  15.530  23.128  0.00  0.00    -0.210 OA
ATOM     29  C   UNL d   1     -39.177  14.819  23.068  0.00  0.00     0.128 A 
ATOM     30  C   UNL d   1     -39.020  14.682  22.270  0.00  0.00     0.067 A 
ATOM     31  C   UNL d   1     -38.953  14.334  23.697  0.00  0.00     0.029 C 
ENDBRANCH   1  26
TORSDOF 4
ENDMDL
