MODEL 1
REMARK VINA RESULT:      -1.7      0.000      0.000
REMARK  5 active torsions:
REMARK  status: ('A' for Active; 'I' for Inactive)
REMARK    1  A    between atoms: N_7  and  C_1 
REMARK    2  A    between atoms: O_17  and  C_5 
REMARK    3  A    between atoms: C_10  and  N_7 
REMARK    4  A    between atoms: O_18  and  C_8 
REMARK    5  A    between atoms: O_19  and  C_9 
ROOT
ATOM      1  C   UNL d   1     -42.549-122.928 -49.940  0.00  0.00     0.139 A 
ATOM      2  C   UNL d   1     -42.900-122.418 -50.486  0.00  0.00     0.120 A 
ATOM      3  C   UNL d   1     -41.770-123.204 -50.075  0.00  0.00     0.120 A 
ATOM      4  C   UNL d   1     -41.718-122.458 -51.284  0.00  0.00     0.087 A 
ATOM      5  C   UNL d   1     -41.358-122.966 -50.749  0.00  0.00     0.045 A 
ATOM      6  C   UNL d   1     -42.484-122.175 -51.169  0.00  0.00     0.045 A 
ENDROOT
BRANCH   4   7
ATOM      7  N   UNL d   1     -41.298-122.221 -51.962  0.00  0.00    -0.226 NA
BRANCH   7   8
ATOM      8  C   UNL d   1     -41.384-122.636 -52.664  0.00  0.00     0.169 A 
ATOM      9  C   UNL d   1     -41.645-122.283 -53.309  0.00  0.00     0.094 A 
ATOM     10  C   UNL d   1     -41.728-122.682 -53.982  0.00  0.00     0.190 A 
ATOM     11  C   UNL d   1     -42.091-121.153 -53.927  0.00  0.00     0.128 A 
ATOM     12  N   UNL d   1     -41.990-122.315 -54.619  0.00  0.00    -0.128 NA
ATOM     13  N   UNL d   1     -41.550-123.434 -54.011  0.00  0.00    -0.203 NA
ATOM     14  N   UNL d   1     -42.170-121.565 -54.599  0.00  0.00    -0.145 NA
ATOM     15  C   UNL d   1     -41.282-123.815 -53.367  0.00  0.00     0.202 A 
ATOM     16  N   UNL d   1     -41.199-123.416 -52.693  0.00  0.00    -0.205 NA
ENDBRANCH   7   8
ENDBRANCH   4   7
BRANCH   3  17
ATOM     17  O   UNL d   1     -41.412-123.719 -49.527  0.00  0.00    -0.326 OA
ATOM     18  C   UNL d   1     -41.125-123.420 -48.806  0.00  0.00     0.181 C 
ENDBRANCH   3  17
BRANCH   2  19
ATOM     19  O   UNL d   1     -43.673-122.140 -50.358  0.00  0.00    -0.326 OA
ATOM     20  C   UNL d   1     -44.038-121.647 -50.923  0.00  0.00     0.181 C 
ENDBRANCH   2  19
BRANCH   1  21
ATOM     21  O   UNL d   1     -42.957-123.171 -49.262  0.00  0.00    -0.324 OA
ATOM     22  C   UNL d   1     -43.489-123.817 -49.311  0.00  0.00     0.182 C 
ENDBRANCH   1  21
TORSDOF 5
ENDMDL
MODEL 2
REMARK VINA RESULT:      -0.3      2.270      4.122
REMARK  5 active torsions:
REMARK  status: ('A' for Active; 'I' for Inactive)
REMARK    1  A    between atoms: N_7  and  C_1 
REMARK    2  A    between atoms: O_17  and  C_5 
REMARK    3  A    between atoms: C_10  and  N_7 
REMARK    4  A    between atoms: O_18  and  C_8 
REMARK    5  A    between atoms: O_19  and  C_9 
ROOT
ATOM      1  C   UNL d   1     -41.395-121.930 -52.776  0.00  0.00     0.139 A 
ATOM      2  C   UNL d   1     -41.497-122.749 -52.757  0.00  0.00     0.120 A 
ATOM      3  C   UNL d   1     -41.228-121.518 -52.067  0.00  0.00     0.120 A 
ATOM      4  C   UNL d   1     -41.271-122.744 -51.348  0.00  0.00     0.087 A 
ATOM      5  C   UNL d   1     -41.167-121.929 -51.354  0.00  0.00     0.045 A 
ATOM      6  C   UNL d   1     -41.435-123.168 -52.036  0.00  0.00     0.045 A 
ENDROOT
BRANCH   4   7
ATOM      7  N   UNL d   1     -41.209-123.154 -50.628  0.00  0.00    -0.226 NA
BRANCH   7   8
ATOM      8  C   UNL d   1     -41.878-123.285 -50.170  0.00  0.00     0.169 A 
ATOM      9  C   UNL d   1     -41.847-123.238 -49.393  0.00  0.00     0.094 A 
ATOM     10  C   UNL d   1     -42.488-123.363 -48.955  0.00  0.00     0.190 A 
ATOM     11  C   UNL d   1     -41.122-123.010 -48.260  0.00  0.00     0.128 A 
ATOM     12  N   UNL d   1     -42.442-123.312 -48.177  0.00  0.00    -0.128 NA
ATOM     13  N   UNL d   1     -43.161-123.537 -49.294  0.00  0.00    -0.203 NA
ATOM     14  N   UNL d   1     -41.775-123.139 -47.830  0.00  0.00    -0.145 NA
ATOM     15  C   UNL d   1     -43.216-123.592 -50.086  0.00  0.00     0.202 A 
ATOM     16  N   UNL d   1     -42.575-123.466 -50.524  0.00  0.00    -0.205 NA
ENDBRANCH   7   8
ENDBRANCH   4   7
BRANCH   3  17
ATOM     17  O   UNL d   1     -41.124-120.692 -52.082  0.00  0.00    -0.326 OA
ATOM     18  C   UNL d   1     -41.123-120.264 -51.368  0.00  0.00     0.181 C 
ENDBRANCH   3  17
BRANCH   2  19
ATOM     19  O   UNL d   1     -41.662-123.164 -53.458  0.00  0.00    -0.326 OA
ATOM     20  C   UNL d   1     -41.159-123.782 -53.706  0.00  0.00     0.181 C 
ENDBRANCH   2  19
BRANCH   1  21
ATOM     21  O   UNL d   1     -41.454-121.511 -53.488  0.00  0.00    -0.324 OA
ATOM     22  C   UNL d   1     -42.161-121.560 -53.937  0.00  0.00     0.182 C 
ENDBRANCH   1  21
TORSDOF 5
ENDMDL
MODEL 3
REMARK VINA RESULT:       1.3      2.310      4.087
REMARK  5 active torsions:
REMARK  status: ('A' for Active; 'I' for Inactive)
REMARK    1  A    between atoms: N_7  and  C_1 
REMARK    2  A    between atoms: O_17  and  C_5 
REMARK    3  A    between atoms: C_10  and  N_7 
REMARK    4  A    between atoms: O_18  and  C_8 
REMARK    5  A    between atoms: O_19  and  C_9 
ROOT
ATOM      1  C   UNL d   1     -42.198-122.138 -54.801  0.00  0.00     0.139 A 
ATOM      2  C   UNL d   1     -42.540-121.720 -54.177  0.00  0.00     0.120 A 
ATOM      3  C   UNL d   1     -41.488-122.562 -54.674  0.00  0.00     0.120 A 
ATOM      4  C   UNL d   1     -41.484-122.142 -53.316  0.00  0.00     0.087 A 
ATOM      5  C   UNL d   1     -41.133-122.561 -53.929  0.00  0.00     0.045 A 
ATOM      6  C   UNL d   1     -42.184-121.718 -53.421  0.00  0.00     0.045 A 
ENDROOT
BRANCH   4   7
ATOM      7  N   UNL d   1     -41.123-122.144 -52.567  0.00  0.00    -0.226 NA
BRANCH   7   8
ATOM      8  C   UNL d   1     -41.418-122.625 -51.970  0.00  0.00     0.169 A 
ATOM      9  C   UNL d   1     -41.431-122.383 -51.230  0.00  0.00     0.094 A 
ATOM     10  C   UNL d   1     -41.713-122.844 -50.658  0.00  0.00     0.190 A 
ATOM     11  C   UNL d   1     -41.165-121.412 -50.309  0.00  0.00     0.128 A 
ATOM     12  N   UNL d   1     -41.719-122.587 -49.921  0.00  0.00    -0.128 NA
ATOM     13  N   UNL d   1     -41.983-123.548 -50.827  0.00  0.00    -0.203 NA
ATOM     14  N   UNL d   1     -41.452-121.885 -49.743  0.00  0.00    -0.145 NA
ATOM     15  C   UNL d   1     -41.980-123.817 -51.576  0.00  0.00     0.202 A 
ATOM     16  N   UNL d   1     -41.698-123.356 -52.148  0.00  0.00    -0.205 NA
ENDBRANCH   7   8
ENDBRANCH   4   7
BRANCH   3  17
ATOM     17  O   UNL d   1     -41.138-122.984 -55.301  0.00  0.00    -0.326 OA
ATOM     18  C   UNL d   1     -41.129-123.816 -55.284  0.00  0.00     0.181 C 
ENDBRANCH   3  17
BRANCH   2  19
ATOM     19  O   UNL d   1     -43.246-121.297 -54.297  0.00  0.00    -0.326 OA
ATOM     20  C   UNL d   1     -43.960-121.574 -53.967  0.00  0.00     0.181 C 
ENDBRANCH   2  19
BRANCH   1  21
ATOM     21  O   UNL d   1     -42.548-122.143 -55.552  0.00  0.00    -0.324 OA
ATOM     22  C   UNL d   1     -42.127-121.827 -56.205  0.00  0.00     0.182 C 
ENDBRANCH   1  21
TORSDOF 5
ENDMDL
