MODEL 1
REMARK VINA RESULT:      80.3      0.000      0.000
REMARK  5 active torsions:
REMARK  status: ('A' for Active; 'I' for Inactive)
REMARK    1  A    between atoms: C_10  and  C_1 
REMARK    2  A    between atoms: C_16  and  C_2 
REMARK    3  A    between atoms: C_7  and  C_14 
REMARK    4  A    between atoms: C_13  and  C_10 
REMARK    5  A    between atoms: C_14  and  C_13 
ROOT
ATOM      1  C   UNL d   1      14.616  15.796  -3.035  0.00  0.00     0.097 A 
ATOM      2  C   UNL d   1      14.363  15.039  -2.752  0.00  0.00     0.009 A 
ATOM      3  C   UNL d   1      15.016  16.310  -2.537  0.00  0.00     0.282 A 
ATOM      4  C   UNL d   1      14.528  14.848  -1.985  0.00  0.00     0.019 A 
ATOM      5  N   UNL d   1      15.178  16.090  -1.736  0.00  0.00    -0.208 NA
ATOM      6  C   UNL d   1      14.928  15.363  -1.487  0.00  0.00     0.085 A 
ATOM      7  C   UNL d   1      14.275  14.098  -1.710  0.00  0.00     0.013 A 
ATOM      8  C   UNL d   1      15.091  15.150  -0.693  0.00  0.00     0.020 A 
ATOM      9  O   UNL d   1      15.268  17.061  -2.813  0.00  0.00    -0.265 OA
ATOM     10  C   UNL d   1      14.438  13.878  -0.909  0.00  0.00     0.058 A 
ATOM     11  C   UNL d   1      14.837  14.393  -0.411  0.00  0.00     0.013 A 
ATOM     12 CL   UNL d   1      14.185  13.127  -0.633  0.00  0.00    -0.082 Cl
ENDROOT
BRANCH   1  13
ATOM     13  C   UNL d   1      14.453  16.010  -3.829  0.00  0.00     0.200 C 
ATOM     14  O   UNL d   1      14.114  15.442  -4.373  0.00  0.00    -0.286 OA
BRANCH  13  15
ATOM     15  C   UNL d   1      14.614  16.766  -4.104  0.00  0.00     0.045 C 
BRANCH  15  16
ATOM     16  C   UNL d   1      14.652  16.967  -4.915  0.00  0.00     0.042 C 
BRANCH  16  17
ATOM     17  C   UNL d   1      14.582  17.761  -5.173  0.00  0.00     0.163 A 
ATOM     18  N   UNL d   1      15.005  18.430  -4.983  0.00  0.00    -0.225 NA
ATOM     19  C   UNL d   1      14.677  19.046  -5.415  0.00  0.00     0.101 A 
ATOM     20  C   UNL d   1      14.883  19.843  -5.441  0.00  0.00     0.021 A 
ATOM     21  C   UNL d   1      14.077  18.774  -5.853  0.00  0.00     0.101 A 
ATOM     22  C   UNL d   1      14.442  20.358  -5.941  0.00  0.00     0.002 A 
ATOM     23  C   UNL d   1      13.827  20.044  -6.381  0.00  0.00     0.002 A 
ATOM     24  C   UNL d   1      13.662  19.241  -6.320  0.00  0.00     0.021 A 
ATOM     25  N   UNL d   1      13.990  17.934  -5.716  0.00  0.00    -0.225 NA
ENDBRANCH  16  17
ENDBRANCH  15  16
ENDBRANCH  13  15
ENDBRANCH   1  13
BRANCH   2  26
ATOM     26  C   UNL d   1      13.946  14.501  -3.272  0.00  0.00     0.000 A 
ATOM     27  C   UNL d   1      14.307  13.780  -3.447  0.00  0.00     0.000 A 
ATOM     28  C   UNL d   1      13.942  13.237  -3.941  0.00  0.00     0.000 A 
ATOM     29  C   UNL d   1      13.152  13.478  -4.262  0.00  0.00     0.000 A 
ATOM     30  C   UNL d   1      12.829  14.175  -4.077  0.00  0.00     0.000 A 
ATOM     31  C   UNL d   1      13.245  14.712  -3.558  0.00  0.00     0.000 A 
ENDBRANCH   2  26
TORSDOF 5
ENDMDL
MODEL 2
REMARK VINA RESULT:      80.3      1.199      2.575
REMARK  5 active torsions:
REMARK  status: ('A' for Active; 'I' for Inactive)
REMARK    1  A    between atoms: C_10  and  C_1 
REMARK    2  A    between atoms: C_16  and  C_2 
REMARK    3  A    between atoms: C_7  and  C_14 
REMARK    4  A    between atoms: C_13  and  C_10 
REMARK    5  A    between atoms: C_14  and  C_13 
ROOT
ATOM      1  C   UNL d   1      14.324  14.551  -2.455  0.00  0.00     0.097 A 
ATOM      2  C   UNL d   1      14.591  14.198  -1.734  0.00  0.00     0.009 A 
ATOM      3  C   UNL d   1      13.944  14.097  -3.023  0.00  0.00     0.282 A 
ATOM      4  C   UNL d   1      14.459  13.408  -1.630  0.00  0.00     0.019 A 
ATOM      5  N   UNL d   1      13.817  13.270  -2.892  0.00  0.00    -0.208 NA
ATOM      6  C   UNL d   1      14.080  12.953  -2.197  0.00  0.00     0.085 A 
ATOM      7  C   UNL d   1      14.726  13.063  -0.914  0.00  0.00     0.013 A 
ATOM      8  C   UNL d   1      13.951  12.135  -2.072  0.00  0.00     0.020 A 
ATOM      9  O   UNL d   1      13.678  14.443  -3.739  0.00  0.00    -0.265 OA
ATOM     10  C   UNL d   1      14.598  12.236  -0.784  0.00  0.00     0.058 A 
ATOM     11  C   UNL d   1      14.218  11.781  -1.351  0.00  0.00     0.013 A 
ATOM     12 CL   UNL d   1      14.864  11.890  -0.068  0.00  0.00    -0.082 Cl
ENDROOT
BRANCH   1  13
ATOM     13  C   UNL d   1      14.453  15.371  -2.581  0.00  0.00     0.200 C 
ATOM     14  O   UNL d   1      14.417  15.922  -1.927  0.00  0.00    -0.286 OA
BRANCH  13  15
ATOM     15  C   UNL d   1      14.615  15.662  -3.330  0.00  0.00     0.045 C 
BRANCH  15  16
ATOM     16  C   UNL d   1      15.072  16.349  -3.472  0.00  0.00     0.042 C 
BRANCH  16  17
ATOM     17  C   UNL d   1      14.897  16.869  -4.105  0.00  0.00     0.163 A 
ATOM     18  N   UNL d   1      14.652  16.726  -4.869  0.00  0.00    -0.225 NA
ATOM     19  C   UNL d   1      14.571  17.459  -5.230  0.00  0.00     0.101 A 
ATOM     20  C   UNL d   1      14.339  17.648  -5.996  0.00  0.00     0.021 A 
ATOM     21  C   UNL d   1      14.757  18.031  -4.716  0.00  0.00     0.101 A 
ATOM     22  C   UNL d   1      14.305  18.460  -6.219  0.00  0.00     0.002 A 
ATOM     23  C   UNL d   1      14.504  19.027  -5.663  0.00  0.00     0.002 A 
ATOM     24  C   UNL d   1      14.729  18.785  -4.910  0.00  0.00     0.021 A 
ATOM     25  N   UNL d   1      14.975  17.674  -3.969  0.00  0.00    -0.225 NA
ENDBRANCH  16  17
ENDBRANCH  15  16
ENDBRANCH  13  15
ENDBRANCH   1  13
BRANCH   2  26
ATOM     26  C   UNL d   1      14.987  14.673  -1.142  0.00  0.00     0.000 A 
ATOM     27  C   UNL d   1      15.812  14.648  -1.120  0.00  0.00     0.000 A 
ATOM     28  C   UNL d   1      16.231  15.087  -0.568  0.00  0.00     0.000 A 
ATOM     29  C   UNL d   1      15.742  15.576  -0.014  0.00  0.00     0.000 A 
ATOM     30  C   UNL d   1      14.953  15.581  -0.057  0.00  0.00     0.000 A 
ATOM     31  C   UNL d   1      14.557  15.108  -0.649  0.00  0.00     0.000 A 
ENDBRANCH   2  26
TORSDOF 5
ENDMDL
MODEL 3
REMARK VINA RESULT:      81.4      2.992      4.999
REMARK  5 active torsions:
REMARK  status: ('A' for Active; 'I' for Inactive)
REMARK    1  A    between atoms: C_10  and  C_1 
REMARK    2  A    between atoms: C_16  and  C_2 
REMARK    3  A    between atoms: C_7  and  C_14 
REMARK    4  A    between atoms: C_13  and  C_10 
REMARK    5  A    between atoms: C_14  and  C_13 
ROOT
ATOM      1  C   UNL d   1      13.804  12.980  -2.491  0.00  0.00     0.097 A 
ATOM      2  C   UNL d   1      13.705  13.392  -3.224  0.00  0.00     0.009 A 
ATOM      3  C   UNL d   1      13.593  12.190  -2.428  0.00  0.00     0.282 A 
ATOM      4  C   UNL d   1      13.398  12.980  -3.849  0.00  0.00     0.019 A 
ATOM      5  N   UNL d   1      13.273  11.779  -3.095  0.00  0.00    -0.208 NA
ATOM      6  C   UNL d   1      13.187  12.191  -3.786  0.00  0.00     0.085 A 
ATOM      7  C   UNL d   1      13.301  13.392  -4.572  0.00  0.00     0.013 A 
ATOM      8  C   UNL d   1      12.870  11.779  -4.443  0.00  0.00     0.020 A 
ATOM      9  O   UNL d   1      13.690  11.779  -1.703  0.00  0.00    -0.265 OA
ATOM     10  C   UNL d   1      12.982  12.981  -5.240  0.00  0.00     0.058 A 
ATOM     11  C   UNL d   1      12.771  12.191  -5.177  0.00  0.00     0.013 A 
ATOM     12 CL   UNL d   1      12.885  13.392  -5.964  0.00  0.00    -0.082 Cl
ENDROOT
BRANCH   1  13
ATOM     13  C   UNL d   1      14.121  13.391  -1.832  0.00  0.00     0.200 C 
ATOM     14  O   UNL d   1      13.928  14.214  -1.698  0.00  0.00    -0.286 OA
BRANCH  13  15
ATOM     15  C   UNL d   1      14.623  13.016  -1.303  0.00  0.00     0.045 C 
BRANCH  15  16
ATOM     16  C   UNL d   1      14.783  13.303  -0.533  0.00  0.00     0.042 C 
BRANCH  16  17
ATOM     17  C   UNL d   1      15.160  14.042  -0.411  0.00  0.00     0.163 A 
ATOM     18  N   UNL d   1      14.860  14.795  -0.339  0.00  0.00    -0.225 NA
ATOM     19  C   UNL d   1      15.502  15.294  -0.226  0.00  0.00     0.101 A 
ATOM     20  C   UNL d   1      15.526  16.109  -0.121  0.00  0.00     0.021 A 
ATOM     21  C   UNL d   1      16.171  14.871  -0.228  0.00  0.00     0.101 A 
ATOM     22  C   UNL d   1      16.275  16.481  -0.016  0.00  0.00     0.002 A 
ATOM     23  C   UNL d   1      16.948  16.015  -0.023  0.00  0.00     0.002 A 
ATOM     24  C   UNL d   1      16.869  15.204  -0.131  0.00  0.00     0.021 A 
ATOM     25  N   UNL d   1      15.978  14.045  -0.347  0.00  0.00    -0.225 NA
ENDBRANCH  16  17
ENDBRANCH  15  16
ENDBRANCH  13  15
ENDBRANCH   1  13
BRANCH   2  26
ATOM     26  C   UNL d   1      13.925  14.216  -3.290  0.00  0.00     0.000 A 
ATOM     27  C   UNL d   1      13.412  14.777  -2.970  0.00  0.00     0.000 A 
ATOM     28  C   UNL d   1      13.585  15.577  -3.011  0.00  0.00     0.000 A 
ATOM     29  C   UNL d   1      14.345  15.786  -3.416  0.00  0.00     0.000 A 
ATOM     30  C   UNL d   1      14.819  15.228  -3.714  0.00  0.00     0.000 A 
ATOM     31  C   UNL d   1      14.599  14.405  -3.648  0.00  0.00     0.000 A 
ENDBRANCH   2  26
TORSDOF 5
ENDMDL
