MODEL 1
REMARK VINA RESULT:      51.4      0.000      0.000
REMARK  9 active torsions:
REMARK  status: ('A' for Active; 'I' for Inactive)
REMARK    1  A    between atoms: N_4  and  C_1 
REMARK    2  A    between atoms: C_12  and  C_3 
REMARK       I    between atoms: C_11  and  N_4 
REMARK       I    between atoms: C_6  and  N_5 
REMARK    3  A    between atoms: O_27  and  C_6 
REMARK       I    between atoms: N_7  and  C_10 
REMARK    4  A    between atoms: C_10  and  C_28 
REMARK    5  A    between atoms: C_29  and  C_11 
REMARK    6  A    between atoms: C_25  and  C_18 
REMARK    7  A    between atoms: S_26  and  C_29 
REMARK    8  A    between atoms: C_28  and  S_26 
REMARK    9  A    between atoms: C_32  and  O_27 
ROOT
ATOM      1  N   UNL d   1     -55.186-101.411 -42.978  0.00  0.00    -0.182 NA
ATOM      2  C   UNL d   1     -55.073-100.609 -42.945  0.00  0.00     0.288 C 
ATOM      3  O   UNL d   1     -54.846-100.256 -42.249  0.00  0.00    -0.265 OA
ENDROOT
BRANCH   1   4
ATOM      4  C   UNL d   1     -55.072-101.863 -42.309  0.00  0.00     0.197 A 
ATOM      5  N   UNL d   1     -55.094-101.595 -41.536  0.00  0.00    -0.221 NA
ATOM      6  C   UNL d   1     -54.952-102.225 -41.046  0.00  0.00     0.090 A 
ATOM      7  C   UNL d   1     -54.843-102.879 -41.517  0.00  0.00     0.058 A 
ATOM      8  S   UNL d   1     -54.916-102.659 -42.291  0.00  0.00    -0.046 SA
BRANCH   6   9
ATOM      9  C   UNL d   1     -54.924-102.203 -40.239  0.00  0.00     0.018 A 
ATOM     10  C   UNL d   1     -54.747-102.872 -39.825  0.00  0.00     0.002 A 
ATOM     11  C   UNL d   1     -54.718-102.854 -39.015  0.00  0.00     0.000 A 
ATOM     12  C   UNL d   1     -54.869-102.160 -38.626  0.00  0.00     0.000 A 
ATOM     13  C   UNL d   1     -55.048-101.484 -39.045  0.00  0.00     0.000 A 
ATOM     14  C   UNL d   1     -55.073-101.515 -39.851  0.00  0.00     0.002 A 
BRANCH  12  15
ATOM     15  C   UNL d   1     -54.841-102.136 -37.794  0.00  0.00     0.000 A 
ATOM     16  C   UNL d   1     -54.859-102.849 -37.364  0.00  0.00     0.000 A 
ATOM     17  C   UNL d   1     -54.832-102.830 -36.540  0.00  0.00     0.000 A 
ATOM     18  C   UNL d   1     -54.786-102.098 -36.146  0.00  0.00     0.000 A 
ATOM     19  C   UNL d   1     -54.768-101.390 -36.584  0.00  0.00     0.000 A 
ATOM     20  C   UNL d   1     -54.796-101.417 -37.412  0.00  0.00     0.000 A 
ENDBRANCH  12  15
ENDBRANCH   6   9
ENDBRANCH   1   4
BRANCH   2  21
ATOM     21  C   UNL d   1     -55.186-100.162 -43.609  0.00  0.00     0.098 C 
BRANCH  21  22
ATOM     22  S   UNL d   1     -54.793 -99.396 -43.588  0.00  0.00    -0.076 SA
BRANCH  22  23
ATOM     23  C   UNL d   1     -55.058 -98.760 -44.100  0.00  0.00     0.097 C 
BRANCH  23  24
ATOM     24  C   UNL d   1     -55.539 -98.929 -44.782  0.00  0.00     0.271 C 
ATOM     25  N   UNL d   1     -56.394 -98.928 -44.712  0.00  0.00    -0.269 N 
ATOM     26  C   UNL d   1     -56.885 -99.097 -45.392  0.00  0.00     0.102 A 
ATOM     27  C   UNL d   1     -56.760 -98.756 -43.947  0.00  0.00     0.102 A 
ATOM     28  C   UNL d   1     -57.739 -99.095 -45.319  0.00  0.00     0.104 A 
ATOM     29  N   UNL d   1     -58.105 -98.923 -44.553  0.00  0.00    -0.249 N 
ATOM     30  C   UNL d   1     -57.614 -98.755 -43.876  0.00  0.00     0.104 A 
ATOM     31  C   UNL d   1     -58.928 -98.922 -44.485  0.00  0.00     0.378 C 
ATOM     32  O   UNL d   1     -59.403 -99.085 -45.143  0.00  0.00    -0.237 OA
ATOM     33  O   UNL d   1     -55.177 -99.098 -45.532  0.00  0.00    -0.266 OA
BRANCH  31  34
ATOM     34  O   UNL d   1     -59.278 -98.757 -43.752  0.00  0.00    -0.257 OA
BRANCH  34  35
ATOM     35  C   UNL d   1     -58.921 -99.012 -43.053  0.00  0.00     0.128 C 
ATOM     36  C   UNL d   1     -59.354 -99.049 -42.345  0.00  0.00     0.029 C 
ENDBRANCH  34  35
ENDBRANCH  31  34
ENDBRANCH  23  24
ENDBRANCH  22  23
ENDBRANCH  21  22
ENDBRANCH   2  21
TORSDOF 9
ENDMDL
