MODEL 1
REMARK VINA RESULT:      -5.7      0.000      0.000
REMARK  6 active torsions:
REMARK  status: ('A' for Active; 'I' for Inactive)
REMARK    1  A    between atoms: C_8  and  C_3 
REMARK    2  A    between atoms: C_6  and  O_10 
REMARK    3  A    between atoms: S_9  and  C_8 
REMARK    4  A    between atoms: C_16  and  S_9 
REMARK    5  A    between atoms: O_10  and  C_17 
REMARK    6  A    between atoms: C_17  and  C_16 
ROOT
ATOM      1  S   UNL d   1     -41.384-122.770 -51.425  0.00  0.00    -0.081 SA
ENDROOT
BRANCH   1   2
ATOM      2  C   UNL d   1     -41.473-122.237 -52.046  0.00  0.00     0.074 C 
BRANCH   2   3
ATOM      3  C   UNL d   1     -41.401-122.498 -52.823  0.00  0.00     0.169 A 
ATOM      4  N   UNL d   1     -41.123-122.996 -53.436  0.00  0.00    -0.225 NA
ATOM      5  C   UNL d   1     -41.448-122.723 -54.159  0.00  0.00     0.101 A 
ATOM      6  C   UNL d   1     -41.923-122.061 -53.983  0.00  0.00     0.101 A 
ATOM      7  C   UNL d   1     -41.383-122.977 -54.947  0.00  0.00     0.021 A 
ATOM      8  N   UNL d   1     -41.900-121.916 -53.161  0.00  0.00    -0.225 NA
ATOM      9  C   UNL d   1     -42.324-121.667 -54.599  0.00  0.00     0.021 A 
ATOM     10  C   UNL d   1     -42.251-121.929 -55.368  0.00  0.00     0.002 A 
ATOM     11  C   UNL d   1     -41.780-122.584 -55.542  0.00  0.00     0.002 A 
ENDBRANCH   2   3
ENDBRANCH   1   2
BRANCH   1  12
ATOM     12  C   UNL d   1     -41.367-122.496 -50.649  0.00  0.00     0.062 C 
BRANCH  12  13
ATOM     13  C   UNL d   1     -41.698-122.948 -50.046  0.00  0.00     0.130 C 
BRANCH  13  14
ATOM     14  O   UNL d   1     -41.212-123.246 -49.450  0.00  0.00    -0.305 OA
BRANCH  14  15
ATOM     15  C   UNL d   1     -41.885-123.437 -49.013  0.00  0.00     0.100 A 
ATOM     16  C   UNL d   1     -41.845-123.491 -48.200  0.00  0.00     0.023 A 
ATOM     17  C   UNL d   1     -41.123-123.354 -47.812  0.00  0.00     0.002 C 
ATOM     18  C   UNL d   1     -42.516-123.682 -47.760  0.00  0.00     0.002 A 
ATOM     19  C   UNL d   1     -43.230-123.817 -48.143  0.00  0.00     0.000 A 
ATOM     20  C   UNL d   1     -43.268-123.761 -48.968  0.00  0.00     0.002 A 
ATOM     21  C   UNL d   1     -42.592-123.570 -49.400  0.00  0.00     0.025 A 
ENDBRANCH  14  15
ENDBRANCH  13  14
ENDBRANCH  12  13
ENDBRANCH   1  12
TORSDOF 6
ENDMDL
MODEL 2
REMARK VINA RESULT:      -5.4      1.597      5.523
REMARK  6 active torsions:
REMARK  status: ('A' for Active; 'I' for Inactive)
REMARK    1  A    between atoms: C_8  and  C_3 
REMARK    2  A    between atoms: C_6  and  O_10 
REMARK    3  A    between atoms: S_9  and  C_8 
REMARK    4  A    between atoms: C_16  and  S_9 
REMARK    5  A    between atoms: O_10  and  C_17 
REMARK    6  A    between atoms: C_17  and  C_16 
ROOT
ATOM      1  S   UNL d   1     -41.662-122.491 -51.176  0.00  0.00    -0.081 SA
ENDROOT
BRANCH   1   2
ATOM      2  C   UNL d   1     -41.348-122.670 -50.437  0.00  0.00     0.074 C 
BRANCH   2   3
ATOM      3  C   UNL d   1     -41.849-122.862 -49.814  0.00  0.00     0.169 A 
ATOM      4  N   UNL d   1     -42.589-122.957 -49.434  0.00  0.00    -0.225 NA
ATOM      5  C   UNL d   1     -42.447-123.236 -48.657  0.00  0.00     0.101 A 
ATOM      6  C   UNL d   1     -41.622-123.311 -48.566  0.00  0.00     0.101 A 
ATOM      7  C   UNL d   1     -42.943-123.433 -48.021  0.00  0.00     0.021 A 
ATOM      8  N   UNL d   1     -41.246-123.082 -49.276  0.00  0.00    -0.225 NA
ATOM      9  C   UNL d   1     -41.310-123.581 -47.842  0.00  0.00     0.021 A 
ATOM     10  C   UNL d   1     -41.810-123.770 -47.226  0.00  0.00     0.002 A 
ATOM     11  C   UNL d   1     -42.627-123.696 -47.316  0.00  0.00     0.002 A 
ENDBRANCH   2   3
ENDBRANCH   1   2
BRANCH   1  12
ATOM     12  C   UNL d   1     -41.164-122.249 -51.786  0.00  0.00     0.062 C 
BRANCH  12  13
ATOM     13  C   UNL d   1     -41.333-122.462 -52.563  0.00  0.00     0.130 C 
BRANCH  13  14
ATOM     14  O   UNL d   1     -41.497-121.873 -53.118  0.00  0.00    -0.305 OA
BRANCH  14  15
ATOM     15  C   UNL d   1     -41.499-122.449 -53.708  0.00  0.00     0.100 A 
ATOM     16  C   UNL d   1     -41.877-122.307 -54.418  0.00  0.00     0.023 A 
ATOM     17  C   UNL d   1     -42.258-121.579 -54.544  0.00  0.00     0.002 C 
ATOM     18  C   UNL d   1     -41.881-122.880 -55.011  0.00  0.00     0.002 A 
ATOM     19  C   UNL d   1     -41.505-123.599 -54.887  0.00  0.00     0.000 A 
ATOM     20  C   UNL d   1     -41.123-123.741 -54.166  0.00  0.00     0.002 A 
ATOM     21  C   UNL d   1     -41.123-123.162 -53.578  0.00  0.00     0.025 A 
ENDBRANCH  14  15
ENDBRANCH  13  14
ENDBRANCH  12  13
ENDBRANCH   1  12
TORSDOF 6
ENDMDL
