MODEL 1
REMARK VINA RESULT:       0.1      0.000      0.000
REMARK  9 active torsions:
REMARK  status: ('A' for Active; 'I' for Inactive)
REMARK    1  A    between atoms: S_3  and  C_1 
REMARK    2  A    between atoms: C_7  and  S_3 
REMARK    3  A    between atoms: N_8  and  C_4 
REMARK    4  A    between atoms: C_19  and  N_8 
REMARK    5  A    between atoms: C_20  and  N_8 
REMARK    6  A    between atoms: O_17  and  C_22 
REMARK    7  A    between atoms: O_18  and  C_21 
REMARK    8  A    between atoms: C_21  and  C_19 
REMARK    9  A    between atoms: C_22  and  C_20 
ROOT
ATOM      1  C   UNL d   1      58.600  -9.598  32.727  0.00  0.00     0.187 A 
ATOM      2  N   UNL d   1      58.948  -9.641  31.994  0.00  0.00    -0.209 NA
ATOM      3  C   UNL d   1      58.340  -9.738  31.439  0.00  0.00     0.181 A 
ATOM      4  S   UNL d   1      57.628  -9.752  31.844  0.00  0.00    -0.036 SA
ATOM      5  C   UNL d   1      57.793  -9.665  32.639  0.00  0.00     0.118 A 
ATOM      6 CL   UNL d   1      57.452  -9.619  33.389  0.00  0.00    -0.073 Cl
ENDROOT
BRANCH   1   7
ATOM      7  S   UNL d   1      59.000  -9.501  33.440  0.00  0.00     0.228 S 
ATOM      8  O   UNL d   1      59.752  -9.179  33.448  0.00  0.00    -0.216 OA
ATOM      9  O   UNL d   1      58.642  -9.730  34.146  0.00  0.00    -0.216 OA
BRANCH   7  10
ATOM     10  C   UNL d   1      59.498  -9.356  34.089  0.00  0.00     0.089 A 
ATOM     11  C   UNL d   1      60.321  -9.277  33.968  0.00  0.00     0.011 A 
ATOM     12  C   UNL d   1      60.815  -9.133  34.616  0.00  0.00     0.001 A 
ATOM     13  C   UNL d   1      60.497  -9.067  35.377  0.00  0.00     0.000 A 
ATOM     14  C   UNL d   1      59.672  -9.146  35.497  0.00  0.00     0.001 A 
ATOM     15  C   UNL d   1      60.984  -8.924  36.020  0.00  0.00     0.000 C 
ATOM     16  C   UNL d   1      59.181  -9.290  34.850  0.00  0.00     0.011 A 
ENDBRANCH   7  10
ENDBRANCH   1   7
BRANCH   3  17
ATOM     17  N   UNL d   1      58.678  -9.783  30.696  0.00  0.00    -0.280 N 
BRANCH  17  18
ATOM     18  C   UNL d   1      59.496  -9.818  30.618  0.00  0.00     0.108 C 
BRANCH  18  19
ATOM     19  C   UNL d   1      59.866  -9.446  29.981  0.00  0.00     0.135 C 
BRANCH  19  20
ATOM     20  O   UNL d   1      60.687  -9.460  29.915  0.00  0.00    -0.325 OA
ATOM     21  C   UNL d   1      61.056  -9.099  29.271  0.00  0.00     0.182 C 
ENDBRANCH  19  20
ENDBRANCH  18  19
ENDBRANCH  17  18
BRANCH  17  22
ATOM     22  C   UNL d   1      58.597  -9.816  29.878  0.00  0.00     0.108 C 
BRANCH  22  23
ATOM     23  C   UNL d   1      58.130  -9.270  29.491  0.00  0.00     0.135 C 
BRANCH  23  24
ATOM     24  O   UNL d   1      57.418  -9.504  29.148  0.00  0.00    -0.325 OA
ATOM     25  C   UNL d   1      57.061  -9.038  28.578  0.00  0.00     0.182 C 
ENDBRANCH  23  24
ENDBRANCH  22  23
ENDBRANCH  17  22
ENDBRANCH   3  17
TORSDOF 9
ENDMDL
MODEL 2
REMARK VINA RESULT:       2.4      1.353      4.733
REMARK  9 active torsions:
REMARK  status: ('A' for Active; 'I' for Inactive)
REMARK    1  A    between atoms: S_3  and  C_1 
REMARK    2  A    between atoms: C_7  and  S_3 
REMARK    3  A    between atoms: N_8  and  C_4 
REMARK    4  A    between atoms: C_19  and  N_8 
REMARK    5  A    between atoms: C_20  and  N_8 
REMARK    6  A    between atoms: O_17  and  C_22 
REMARK    7  A    between atoms: O_18  and  C_21 
REMARK    8  A    between atoms: C_21  and  C_19 
REMARK    9  A    between atoms: C_22  and  C_20 
ROOT
ATOM      1  C   UNL d   1      58.542  -9.611  32.495  0.00  0.00     0.187 A 
ATOM      2  N   UNL d   1      59.122  -9.506  33.055  0.00  0.00    -0.209 NA
ATOM      3  C   UNL d   1      58.751  -9.510  33.797  0.00  0.00     0.181 A 
ATOM      4  S   UNL d   1      57.948  -9.618  33.677  0.00  0.00    -0.036 SA
ATOM      5  C   UNL d   1      57.823  -9.680  32.872  0.00  0.00     0.118 A 
ATOM      6 CL   UNL d   1      57.244  -9.787  32.295  0.00  0.00    -0.073 Cl
ENDROOT
BRANCH   1   7
ATOM      7  S   UNL d   1      58.664  -9.643  31.682  0.00  0.00     0.228 S 
ATOM      8  O   UNL d   1      59.423  -9.697  31.383  0.00  0.00    -0.216 OA
ATOM      9  O   UNL d   1      58.020  -9.619  31.169  0.00  0.00    -0.216 OA
BRANCH   7  10
ATOM     10  C   UNL d   1      58.911  -9.681  30.890  0.00  0.00     0.089 A 
ATOM     11  C   UNL d   1      59.723  -9.620  30.708  0.00  0.00     0.011 A 
ATOM     12  C   UNL d   1      59.967  -9.658  29.917  0.00  0.00     0.001 A 
ATOM     13  C   UNL d   1      59.410  -9.757  29.313  0.00  0.00     0.000 A 
ATOM     14  C   UNL d   1      58.595  -9.818  29.497  0.00  0.00     0.001 A 
ATOM     15  C   UNL d   1      59.648  -9.795  28.530  0.00  0.00     0.000 C 
ATOM     16  C   UNL d   1      58.355  -9.779  30.285  0.00  0.00     0.011 A 
ENDBRANCH   7  10
ENDBRANCH   1   7
BRANCH   3  17
ATOM     17  N   UNL d   1      59.325  -9.405  34.368  0.00  0.00    -0.280 N 
BRANCH  17  18
ATOM     18  C   UNL d   1      59.591  -8.648  34.551  0.00  0.00     0.108 C 
BRANCH  18  19
ATOM     19  C   UNL d   1      59.157  -8.171  35.066  0.00  0.00     0.135 C 
BRANCH  19  20
ATOM     20  O   UNL d   1      58.944  -7.407  34.841  0.00  0.00    -0.325 OA
ATOM     21  C   UNL d   1      58.384  -6.989  35.278  0.00  0.00     0.182 C 
ENDBRANCH  19  20
ENDBRANCH  18  19
ENDBRANCH  17  18
BRANCH  17  22
ATOM     22  C   UNL d   1      59.839  -9.721  34.928  0.00  0.00     0.108 C 
BRANCH  22  23
ATOM     23  C   UNL d   1      60.633  -9.530  34.910  0.00  0.00     0.135 C 
BRANCH  23  24
ATOM     24  O   UNL d   1      61.133  -9.786  35.512  0.00  0.00    -0.325 OA
ATOM     25  C   UNL d   1      60.868  -9.814  36.286  0.00  0.00     0.182 C 
ENDBRANCH  23  24
ENDBRANCH  22  23
ENDBRANCH  17  22
ENDBRANCH   3  17
TORSDOF 9
ENDMDL
MODEL 3
REMARK VINA RESULT:       2.6      9.829     10.748
REMARK  9 active torsions:
REMARK  status: ('A' for Active; 'I' for Inactive)
REMARK    1  A    between atoms: S_3  and  C_1 
REMARK    2  A    between atoms: C_7  and  S_3 
REMARK    3  A    between atoms: N_8  and  C_4 
REMARK    4  A    between atoms: C_19  and  N_8 
REMARK    5  A    between atoms: C_20  and  N_8 
REMARK    6  A    between atoms: O_17  and  C_22 
REMARK    7  A    between atoms: O_18  and  C_21 
REMARK    8  A    between atoms: C_21  and  C_19 
REMARK    9  A    between atoms: C_22  and  C_20 
ROOT
ATOM      1  C   UNL d   1      57.320   0.186  32.236  0.00  0.00     0.187 A 
ATOM      2  N   UNL d   1      56.629   0.099  32.656  0.00  0.00    -0.209 NA
ATOM      3  C   UNL d   1      56.763   0.409  33.414  0.00  0.00     0.181 A 
ATOM      4  S   UNL d   1      57.535   0.681  33.443  0.00  0.00    -0.036 SA
ATOM      5  C   UNL d   1      57.875   0.541  32.714  0.00  0.00     0.118 A 
ATOM      6 CL   UNL d   1      58.570   0.623  32.277  0.00  0.00    -0.073 Cl
ENDROOT
BRANCH   1   7
ATOM      7  S   UNL d   1      57.435  -0.048  31.456  0.00  0.00     0.228 S 
ATOM      8  O   UNL d   1      58.169  -0.313  31.211  0.00  0.00    -0.216 OA
ATOM      9  O   UNL d   1      56.809  -0.016  30.921  0.00  0.00    -0.216 OA
BRANCH   7  10
ATOM     10  C   UNL d   1      57.671  -0.309  30.703  0.00  0.00     0.089 A 
ATOM     11  C   UNL d   1      57.890  -1.107  30.592  0.00  0.00     0.011 A 
ATOM     12  C   UNL d   1      58.124  -1.363  29.840  0.00  0.00     0.001 A 
ATOM     13  C   UNL d   1      58.142  -0.834  29.205  0.00  0.00     0.000 A 
ATOM     14  C   UNL d   1      57.922  -0.033  29.317  0.00  0.00     0.001 A 
ATOM     15  C   UNL d   1      58.374  -1.085  28.460  0.00  0.00     0.000 C 
ATOM     16  C   UNL d   1      57.689   0.220  30.066  0.00  0.00     0.011 A 
ENDBRANCH   7  10
ENDBRANCH   1   7
BRANCH   3  17
ATOM     17  N   UNL d   1      56.075   0.328  33.847  0.00  0.00    -0.280 N 
BRANCH  17  18
ATOM     18  C   UNL d   1      56.110   0.123  34.643  0.00  0.00     0.108 C 
BRANCH  18  19
ATOM     19  C   UNL d   1      55.633   0.513  35.191  0.00  0.00     0.135 C 
BRANCH  19  20
ATOM     20  O   UNL d   1      55.799   0.458  35.996  0.00  0.00    -0.325 OA
ATOM     21  C   UNL d   1      56.553   0.641  36.277  0.00  0.00     0.182 C 
ENDBRANCH  19  20
ENDBRANCH  18  19
ENDBRANCH  17  18
BRANCH  17  22
ATOM     22  C   UNL d   1      55.253   0.351  33.889  0.00  0.00     0.108 C 
BRANCH  22  23
ATOM     23  C   UNL d   1      54.816   0.579  33.238  0.00  0.00     0.135 C 
BRANCH  23  24
ATOM     24  O   UNL d   1      54.057   0.279  33.125  0.00  0.00    -0.325 OA
ATOM     25  C   UNL d   1      53.406   0.682  33.414  0.00  0.00     0.182 C 
ENDBRANCH  23  24
ENDBRANCH  22  23
ENDBRANCH  17  22
ENDBRANCH   3  17
TORSDOF 9
ENDMDL
MODEL 4
REMARK VINA RESULT:       2.9     10.173     10.411
REMARK  9 active torsions:
REMARK  status: ('A' for Active; 'I' for Inactive)
REMARK    1  A    between atoms: S_3  and  C_1 
REMARK    2  A    between atoms: C_7  and  S_3 
REMARK    3  A    between atoms: N_8  and  C_4 
REMARK    4  A    between atoms: C_19  and  N_8 
REMARK    5  A    between atoms: C_20  and  N_8 
REMARK    6  A    between atoms: O_17  and  C_22 
REMARK    7  A    between atoms: O_18  and  C_21 
REMARK    8  A    between atoms: C_21  and  C_19 
REMARK    9  A    between atoms: C_22  and  C_20 
ROOT
ATOM      1  C   UNL d   1      57.341   0.517  33.097  0.00  0.00     0.187 A 
ATOM      2  N   UNL d   1      57.474   0.553  32.296  0.00  0.00    -0.209 NA
ATOM      3  C   UNL d   1      58.294   0.609  32.186  0.00  0.00     0.181 A 
ATOM      4  S   UNL d   1      58.649   0.606  32.925  0.00  0.00    -0.036 SA
ATOM      5  C   UNL d   1      58.056   0.549  33.484  0.00  0.00     0.118 A 
ATOM      6 CL   UNL d   1      57.908   0.512  34.295  0.00  0.00    -0.073 Cl
ENDROOT
BRANCH   1   7
ATOM      7  S   UNL d   1      56.602   0.457  33.455  0.00  0.00     0.228 S 
ATOM      8  O   UNL d   1      55.929   0.674  33.045  0.00  0.00    -0.216 OA
ATOM      9  O   UNL d   1      56.542   0.179  34.228  0.00  0.00    -0.216 OA
BRANCH   7  10
ATOM     10  C   UNL d   1      55.810   0.442  33.707  0.00  0.00     0.089 A 
ATOM     11  C   UNL d   1      55.215   0.184  33.181  0.00  0.00     0.011 A 
ATOM     12  C   UNL d   1      54.427   0.170  33.434  0.00  0.00     0.001 A 
ATOM     13  C   UNL d   1      54.231   0.408  34.202  0.00  0.00     0.000 A 
ATOM     14  C   UNL d   1      54.829   0.667  34.729  0.00  0.00     0.001 A 
ATOM     15  C   UNL d   1      53.452   0.395  34.455  0.00  0.00     0.000 C 
ATOM     16  C   UNL d   1      55.613   0.680  34.474  0.00  0.00     0.011 A 
ENDBRANCH   7  10
ENDBRANCH   1   7
BRANCH   3  17
ATOM     17  N   UNL d   1      58.441   0.646  31.383  0.00  0.00    -0.280 N 
BRANCH  17  18
ATOM     18  C   UNL d   1      59.215   0.682  31.107  0.00  0.00     0.108 C 
BRANCH  18  19
ATOM     19  C   UNL d   1      59.797   0.206  31.446  0.00  0.00     0.135 C 
BRANCH  19  20
ATOM     20  O   UNL d   1      60.593   0.363  31.305  0.00  0.00    -0.325 OA
ATOM     21  C   UNL d   1      61.133   0.356  31.929  0.00  0.00     0.182 C 
ENDBRANCH  19  20
ENDBRANCH  18  19
ENDBRANCH  17  18
BRANCH  17  22
ATOM     22  C   UNL d   1      58.163   0.668  30.609  0.00  0.00     0.108 C 
BRANCH  22  23
ATOM     23  C   UNL d   1      57.964  -0.024  30.225  0.00  0.00     0.135 C 
BRANCH  23  24
ATOM     24  O   UNL d   1      57.317  -0.043  29.716  0.00  0.00    -0.325 OA
ATOM     25  C   UNL d   1      57.113   0.621  29.281  0.00  0.00     0.182 C 
ENDBRANCH  23  24
ENDBRANCH  22  23
ENDBRANCH  17  22
ENDBRANCH   3  17
TORSDOF 9
ENDMDL
