MODEL 1
REMARK VINA RESULT:      -3.1      0.000      0.000
REMARK  9 active torsions:
REMARK  status: ('A' for Active; 'I' for Inactive)
REMARK    1  A    between atoms: N_8  and  C_1 
REMARK    2  A    between atoms: S_2  and  C_13 
REMARK    3  A    between atoms: N_7  and  S_2 
REMARK    4  A    between atoms: C_12  and  C_3 
REMARK       I    between atoms: C_10  and  N_8 
REMARK       I    between atoms: C_11  and  N_9 
REMARK    5  A    between atoms: C_21  and  C_10 
REMARK    6  A    between atoms: O_33  and  C_11 
REMARK    7  A    between atoms: C_34  and  N_14 
REMARK    8  A    between atoms: C_35  and  O_33 
REMARK    9  A    between atoms: C_36  and  C_34 
ROOT
ATOM      1  C   UNL d   1     -42.509  13.601  21.118  0.00  0.00     0.104 A 
ATOM      2  C   UNL d   1     -43.983  13.156  21.710  0.00  0.00     0.056 A 
ATOM      3  C   UNL d   1     -42.642  12.823  21.373  0.00  0.00     0.013 A 
ATOM      4  C   UNL d   1     -43.123  14.160  21.161  0.00  0.00     0.013 A 
ATOM      5  C   UNL d   1     -43.375  12.598  21.669  0.00  0.00     0.005 A 
ATOM      6  C   UNL d   1     -43.862  13.931  21.460  0.00  0.00     0.005 A 
ENDROOT
BRANCH   2   7
ATOM      7  C   UNL d   1     -44.724  12.936  22.007  0.00  0.00     0.258 C 
ATOM      8  N   UNL d   1     -45.287  13.521  22.192  0.00  0.00    -0.316 N 
ATOM      9  H   UNL d   1     -44.808  13.897  21.988  0.00  0.00     0.169 HD
ATOM     10  O   UNL d   1     -44.911  12.139  22.122  0.00  0.00    -0.267 OA
BRANCH   8  11
ATOM     11  C   UNL d   1     -46.027  13.301  22.489  0.00  0.00     0.094 A 
ATOM     12  C   UNL d   1     -46.643  13.812  22.685  0.00  0.00     0.082 A 
ATOM     13  C   UNL d   1     -47.282  13.370  22.960  0.00  0.00     0.016 A 
ATOM     14  C   UNL d   1     -48.034  13.585  23.229  0.00  0.00     0.020 A 
ATOM     15  C   UNL d   1     -47.071  12.574  22.938  0.00  0.00     0.049 A 
ATOM     16  C   UNL d   1     -48.565  13.006  23.473  0.00  0.00     0.080 A 
ATOM     17  N   UNL d   1     -48.359  12.211  23.453  0.00  0.00    -0.302 N 
ATOM     18  C   UNL d   1     -47.609  11.990  23.185  0.00  0.00     0.087 A 
ATOM     19  S   UNL d   1     -46.295  12.521  22.648  0.00  0.00    -0.068 SA
BRANCH  12  20
ATOM     20  C   UNL d   1     -46.632  14.631  22.621  0.00  0.00     0.299 C 
ATOM     21  O   UNL d   1     -46.996  14.996  21.993  0.00  0.00    -0.264 OA
ATOM     22  N   UNL d   1     -46.251  15.077  23.194  0.00  0.00    -0.102 N 
ENDBRANCH  12  20
BRANCH  17  23
ATOM     23  C   UNL d   1     -48.893  11.636  23.698  0.00  0.00     0.080 C 
BRANCH  23  24
ATOM     24  C   UNL d   1     -49.648  11.593  23.364  0.00  0.00     0.019 C 
ATOM     25  C   UNL d   1     -50.214  11.103  23.698  0.00  0.00     0.002 C 
ENDBRANCH  23  24
ENDBRANCH  17  23
ENDBRANCH   8  11
ENDBRANCH   2   7
BRANCH   1  26
ATOM     26  S   UNL d   1     -41.769  13.825  20.820  0.00  0.00     0.271 S 
ATOM     27  O   UNL d   1     -41.717  13.068  20.479  0.00  0.00    -0.200 OA
ATOM     28  O   UNL d   1     -41.823  14.575  21.157  0.00  0.00    -0.200 OA
BRANCH  26  29
ATOM     29  N   UNL d   1     -41.033  14.046  20.522  0.00  0.00    -0.226 N 
ATOM     30  C   UNL d   1     -40.380  14.094  21.017  0.00  0.00     0.111 A 
ATOM     31  C   UNL d   1     -39.646  14.317  20.704  0.00  0.00     0.105 A 
ATOM     32  N   UNL d   1     -39.568  14.490  19.899  0.00  0.00    -0.248 N 
ATOM     33  C   UNL d   1     -40.225  14.441  19.407  0.00  0.00     0.105 A 
ATOM     34  C   UNL d   1     -38.842  14.710  19.593  0.00  0.00     0.378 C 
ATOM     35  C   UNL d   1     -40.951  14.220  19.721  0.00  0.00     0.111 A 
ATOM     36  O   UNL d   1     -38.189  14.758  20.089  0.00  0.00    -0.237 OA
BRANCH  34  37
ATOM     37  O   UNL d   1     -38.771  14.881  18.798  0.00  0.00    -0.257 OA
BRANCH  37  38
ATOM     38  C   UNL d   1     -38.124  15.299  18.526  0.00  0.00     0.128 C 
ATOM     39  C   UNL d   1     -38.049  15.473  17.717  0.00  0.00     0.029 C 
ENDBRANCH  37  38
ENDBRANCH  34  37
ENDBRANCH  26  29
ENDBRANCH   1  26
TORSDOF 9
ENDMDL
MODEL 2
REMARK VINA RESULT:      -2.8      1.303      7.993
REMARK  9 active torsions:
REMARK  status: ('A' for Active; 'I' for Inactive)
REMARK    1  A    between atoms: N_8  and  C_1 
REMARK    2  A    between atoms: S_2  and  C_13 
REMARK    3  A    between atoms: N_7  and  S_2 
REMARK    4  A    between atoms: C_12  and  C_3 
REMARK       I    between atoms: C_10  and  N_8 
REMARK       I    between atoms: C_11  and  N_9 
REMARK    5  A    between atoms: C_21  and  C_10 
REMARK    6  A    between atoms: O_33  and  C_11 
REMARK    7  A    between atoms: C_34  and  N_14 
REMARK    8  A    between atoms: C_35  and  O_33 
REMARK    9  A    between atoms: C_36  and  C_34 
ROOT
ATOM      1  C   UNL d   1     -44.052  12.996  21.776  0.00  0.00     0.104 A 
ATOM      2  C   UNL d   1     -42.598  13.356  21.086  0.00  0.00     0.056 A 
ATOM      3  C   UNL d   1     -43.446  12.430  21.753  0.00  0.00     0.013 A 
ATOM      4  C   UNL d   1     -43.926  13.749  21.450  0.00  0.00     0.013 A 
ATOM      5  C   UNL d   1     -42.721  12.606  21.410  0.00  0.00     0.005 A 
ATOM      6  C   UNL d   1     -43.192  13.925  21.104  0.00  0.00     0.005 A 
ENDROOT
BRANCH   2   7
ATOM      7  C   UNL d   1     -41.869  13.540  20.738  0.00  0.00     0.258 C 
ATOM      8  N   UNL d   1     -41.351  14.070  21.119  0.00  0.00    -0.316 N 
ATOM      9  H   UNL d   1     -41.833  14.072  21.543  0.00  0.00     0.169 HD
ATOM     10  O   UNL d   1     -41.649  13.203  20.016  0.00  0.00    -0.267 OA
BRANCH   8  11
ATOM     11  C   UNL d   1     -40.622  14.254  20.772  0.00  0.00     0.094 A 
ATOM     12  C   UNL d   1     -39.901  14.317  21.164  0.00  0.00     0.082 A 
ATOM     13  C   UNL d   1     -39.314  14.509  20.617  0.00  0.00     0.016 A 
ATOM     14  C   UNL d   1     -38.501  14.639  20.694  0.00  0.00     0.020 A 
ATOM     15  C   UNL d   1     -39.665  14.567  19.874  0.00  0.00     0.049 A 
ATOM     16  C   UNL d   1     -38.049  14.825  20.032  0.00  0.00     0.080 A 
ATOM     17  N   UNL d   1     -38.395  14.885  19.290  0.00  0.00    -0.302 N 
ATOM     18  C   UNL d   1     -39.208  14.756  19.207  0.00  0.00     0.087 A 
ATOM     19  S   UNL d   1     -40.476  14.411  19.960  0.00  0.00    -0.068 SA
BRANCH  12  20
ATOM     20  C   UNL d   1     -39.775  14.209  21.968  0.00  0.00     0.299 C 
ATOM     21  O   UNL d   1     -39.689  13.459  22.271  0.00  0.00    -0.264 OA
ATOM     22  N   UNL d   1     -39.737  14.861  22.463  0.00  0.00    -0.102 N 
ENDBRANCH  12  20
BRANCH  17  23
ATOM     23  C   UNL d   1     -37.940  15.072  18.632  0.00  0.00     0.080 C 
BRANCH  23  24
ATOM     24  C   UNL d   1     -38.293  15.188  17.894  0.00  0.00     0.019 C 
ATOM     25  C   UNL d   1     -37.952  15.702  17.355  0.00  0.00     0.002 C 
ENDBRANCH  23  24
ENDBRANCH  17  23
ENDBRANCH   8  11
ENDBRANCH   2   7
BRANCH   1  26
ATOM     26  S   UNL d   1     -44.783  12.815  22.123  0.00  0.00     0.271 S 
ATOM     27  O   UNL d   1     -45.114  13.416  21.652  0.00  0.00    -0.200 OA
ATOM     28  O   UNL d   1     -44.453  12.221  22.589  0.00  0.00    -0.200 OA
BRANCH  26  29
ATOM     29  N   UNL d   1     -45.511  12.638  22.466  0.00  0.00    -0.226 N 
ATOM     30  C   UNL d   1     -45.699  11.866  22.671  0.00  0.00     0.111 A 
ATOM     31  C   UNL d   1     -46.435  11.703  23.015  0.00  0.00     0.105 A 
ATOM     32  N   UNL d   1     -46.978  12.311  23.153  0.00  0.00    -0.248 N 
ATOM     33  C   UNL d   1     -46.785  13.083  22.947  0.00  0.00     0.105 A 
ATOM     34  C   UNL d   1     -47.704  12.146  23.493  0.00  0.00     0.378 C 
ATOM     35  C   UNL d   1     -46.055  13.241  22.606  0.00  0.00     0.111 A 
ATOM     36  O   UNL d   1     -47.892  11.373  23.698  0.00  0.00    -0.237 OA
BRANCH  34  37
ATOM     37  O   UNL d   1     -48.236  12.750  23.627  0.00  0.00    -0.257 OA
BRANCH  37  38
ATOM     38  C   UNL d   1     -49.038  12.612  23.557  0.00  0.00     0.128 C 
ATOM     39  C   UNL d   1     -49.573  13.246  23.558  0.00  0.00     0.029 C 
ENDBRANCH  37  38
ENDBRANCH  34  37
ENDBRANCH  26  29
ENDBRANCH   1  26
TORSDOF 9
ENDMDL
MODEL 3
REMARK VINA RESULT:      -0.3      1.345      7.891
REMARK  9 active torsions:
REMARK  status: ('A' for Active; 'I' for Inactive)
REMARK    1  A    between atoms: N_8  and  C_1 
REMARK    2  A    between atoms: S_2  and  C_13 
REMARK    3  A    between atoms: N_7  and  S_2 
REMARK    4  A    between atoms: C_12  and  C_3 
REMARK       I    between atoms: C_10  and  N_8 
REMARK       I    between atoms: C_11  and  N_9 
REMARK    5  A    between atoms: C_21  and  C_10 
REMARK    6  A    between atoms: O_33  and  C_11 
REMARK    7  A    between atoms: C_34  and  N_14 
REMARK    8  A    between atoms: C_35  and  O_33 
REMARK    9  A    between atoms: C_36  and  C_34 
ROOT
ATOM      1  C   UNL d   1     -44.877  13.122  21.926  0.00  0.00     0.104 A 
ATOM      2  C   UNL d   1     -43.318  13.246  21.400  0.00  0.00     0.056 A 
ATOM      3  C   UNL d   1     -44.694  13.014  21.124  0.00  0.00     0.013 A 
ATOM      4  C   UNL d   1     -44.271  13.294  22.468  0.00  0.00     0.013 A 
ATOM      5  C   UNL d   1     -43.919  13.075  20.859  0.00  0.00     0.005 A 
ATOM      6  C   UNL d   1     -43.488  13.355  22.198  0.00  0.00     0.005 A 
ENDROOT
BRANCH   2   7
ATOM      7  C   UNL d   1     -42.535  13.310  21.138  0.00  0.00     0.258 C 
ATOM      8  N   UNL d   1     -42.217  14.058  20.958  0.00  0.00    -0.316 N 
ATOM      9  H   UNL d   1     -42.810  14.235  21.132  0.00  0.00     0.169 HD
ATOM     10  O   UNL d   1     -42.063  12.636  21.055  0.00  0.00    -0.267 OA
BRANCH   8  11
ATOM     11  C   UNL d   1     -41.435  14.121  20.697  0.00  0.00     0.094 A 
ATOM     12  C   UNL d   1     -40.976  14.805  20.702  0.00  0.00     0.082 A 
ATOM     13  C   UNL d   1     -40.230  14.631  20.396  0.00  0.00     0.016 A 
ATOM     14  C   UNL d   1     -39.556  15.094  20.271  0.00  0.00     0.020 A 
ATOM     15  C   UNL d   1     -40.216  13.832  20.196  0.00  0.00     0.049 A 
ATOM     16  C   UNL d   1     -38.878  14.756  19.949  0.00  0.00     0.080 A 
ATOM     17  N   UNL d   1     -38.860  13.960  19.748  0.00  0.00    -0.302 N 
ATOM     18  C   UNL d   1     -39.531  13.492  19.871  0.00  0.00     0.087 A 
ATOM     19  S   UNL d   1     -40.958  13.508  20.379  0.00  0.00    -0.068 SA
BRANCH  12  20
ATOM     20  C   UNL d   1     -41.212  15.546  20.967  0.00  0.00     0.299 C 
ATOM     21  O   UNL d   1     -41.843  15.922  20.617  0.00  0.00    -0.264 OA
ATOM     22  N   UNL d   1     -40.809  15.903  21.584  0.00  0.00    -0.102 N 
ENDBRANCH  12  20
BRANCH  17  23
ATOM     23  C   UNL d   1     -38.181  13.627  19.427  0.00  0.00     0.080 C 
BRANCH  23  24
ATOM     24  C   UNL d   1     -38.143  13.441  18.623  0.00  0.00     0.019 C 
ATOM     25  C   UNL d   1     -38.050  12.661  18.389  0.00  0.00     0.002 C 
ENDBRANCH  23  24
ENDBRANCH  17  23
ENDBRANCH   8  11
ENDBRANCH   2   7
BRANCH   1  26
ATOM     26  S   UNL d   1     -45.659  13.059  22.191  0.00  0.00     0.271 S 
ATOM     27  O   UNL d   1     -45.445  13.550  22.828  0.00  0.00    -0.200 OA
ATOM     28  O   UNL d   1     -45.870  12.574  21.560  0.00  0.00    -0.200 OA
BRANCH  26  29
ATOM     29  N   UNL d   1     -46.437  12.999  22.457  0.00  0.00    -0.226 N 
ATOM     30  C   UNL d   1     -46.914  13.665  22.509  0.00  0.00     0.111 A 
ATOM     31  C   UNL d   1     -47.694  13.589  22.778  0.00  0.00     0.105 A 
ATOM     32  N   UNL d   1     -47.993  12.849  22.994  0.00  0.00    -0.248 N 
ATOM     33  C   UNL d   1     -47.512  12.185  22.940  0.00  0.00     0.105 A 
ATOM     34  C   UNL d   1     -48.764  12.778  23.259  0.00  0.00     0.378 C 
ATOM     35  C   UNL d   1     -46.740  12.264  22.673  0.00  0.00     0.111 A 
ATOM     36  O   UNL d   1     -49.240  13.445  23.311  0.00  0.00    -0.237 OA
BRANCH  34  37
ATOM     37  O   UNL d   1     -49.054  12.045  23.471  0.00  0.00    -0.257 OA
BRANCH  37  38
ATOM     38  C   UNL d   1     -49.837  11.963  23.688  0.00  0.00     0.128 C 
ATOM     39  C   UNL d   1     -50.319  11.403  23.309  0.00  0.00     0.029 C 
ENDBRANCH  37  38
ENDBRANCH  34  37
ENDBRANCH  26  29
ENDBRANCH   1  26
TORSDOF 9
ENDMDL
