MODEL 1
REMARK VINA RESULT:      -4.2      0.000      0.000
REMARK  4 active torsions:
REMARK  status: ('A' for Active; 'I' for Inactive)
REMARK    1  A    between atoms: P_2  and  C_1 
REMARK    2  A    between atoms: N_3  and  C_1 
REMARK    3  A    between atoms: C_5  and  C_1 
REMARK       I    between atoms: C_4  and  N_3 
REMARK    4  A    between atoms: C_6  and  C_4 
ROOT
ATOM      1  C   UNL d   1     -41.687-122.566 -54.254  0.00  0.00     0.196 C 
ENDROOT
BRANCH   1   2
ATOM      2  P   UNL d   1     -41.917-121.940 -54.768  0.00  0.00     0.317 P 
ATOM      3  O   UNL d   1     -41.130-121.808 -54.984  0.00  0.00    -0.635 OA
ATOM      4  O   UNL d   1     -42.176-121.319 -55.275  0.00  0.00    -0.635 OA
ATOM      5  O   UNL d   1     -42.728-122.079 -54.544  0.00  0.00    -0.635 OA
ENDBRANCH   1   2
BRANCH   1   6
ATOM      6  N   UNL d   1     -41.348-122.425 -53.502  0.00  0.00    -0.201 NA
ATOM      7  C   UNL d   1     -41.824-122.334 -52.848  0.00  0.00     0.255 C 
ATOM      8  O   UNL d   1     -42.637-122.383 -52.937  0.00  0.00    -0.270 OA
BRANCH   7   9
ATOM      9  C   UNL d   1     -41.489-122.197 -52.120  0.00  0.00     0.073 C 
ATOM     10  C   UNL d   1     -41.430-122.815 -51.576  0.00  0.00     0.009 C 
ATOM     11  C   UNL d   1     -41.209-121.440 -51.927  0.00  0.00     0.009 C 
ATOM     12  C   UNL d   1     -41.123-122.079 -51.302  0.00  0.00     0.009 C 
ENDBRANCH   7   9
ENDBRANCH   1   6
BRANCH   1  13
ATOM     13  C   UNL d   1     -41.798-123.343 -54.497  0.00  0.00     0.142 C 
ATOM     14 CL   UNL d   1     -41.157-123.782 -54.492  0.00  0.00    -0.068 Cl
ATOM     15 CL   UNL d   1     -42.593-123.610 -54.733  0.00  0.00    -0.068 Cl
ENDBRANCH   1  13
TORSDOF 4
ENDMDL
MODEL 2
REMARK VINA RESULT:      -2.8      2.915      3.643
REMARK  4 active torsions:
REMARK  status: ('A' for Active; 'I' for Inactive)
REMARK    1  A    between atoms: P_2  and  C_1 
REMARK    2  A    between atoms: N_3  and  C_1 
REMARK    3  A    between atoms: C_5  and  C_1 
REMARK       I    between atoms: C_4  and  N_3 
REMARK    4  A    between atoms: C_6  and  C_4 
ROOT
ATOM      1  C   UNL d   1     -41.645-122.749 -50.911  0.00  0.00     0.196 C 
ENDROOT
BRANCH   1   2
ATOM      2  P   UNL d   1     -41.502-123.269 -51.558  0.00  0.00     0.317 P 
ATOM      3  O   UNL d   1     -41.126-123.810 -51.059  0.00  0.00    -0.635 OA
ATOM      4  O   UNL d   1     -41.372-123.770 -52.223  0.00  0.00    -0.635 OA
ATOM      5  O   UNL d   1     -41.890-122.709 -52.071  0.00  0.00    -0.635 OA
ENDBRANCH   1   2
BRANCH   1   6
ATOM      6  N   UNL d   1     -41.710-123.023 -50.123  0.00  0.00    -0.201 NA
ATOM      7  C   UNL d   1     -42.442-123.084 -49.770  0.00  0.00     0.255 C 
ATOM      8  O   UNL d   1     -43.109-122.873 -50.196  0.00  0.00    -0.270 OA
BRANCH   7   9
ATOM      9  C   UNL d   1     -42.500-123.351 -49.005  0.00  0.00     0.073 C 
ATOM     10  C   UNL d   1     -41.868-123.239 -48.485  0.00  0.00     0.009 C 
ATOM     11  C   UNL d   1     -43.191-123.733 -48.749  0.00  0.00     0.009 C 
ATOM     12  C   UNL d   1     -42.531-123.635 -48.147  0.00  0.00     0.009 C 
ENDBRANCH   7   9
ENDBRANCH   1   6
BRANCH   1  13
ATOM     13  C   UNL d   1     -41.723-121.944 -51.057  0.00  0.00     0.142 C 
ATOM     14 CL   UNL d   1     -41.123-121.509 -50.822  0.00  0.00    -0.068 Cl
ATOM     15 CL   UNL d   1     -42.442-121.645 -51.447  0.00  0.00    -0.068 Cl
ENDBRANCH   1  13
TORSDOF 4
ENDMDL
MODEL 3
REMARK VINA RESULT:      -2.7      2.009      3.137
REMARK  4 active torsions:
REMARK  status: ('A' for Active; 'I' for Inactive)
REMARK    1  A    between atoms: P_2  and  C_1 
REMARK    2  A    between atoms: N_3  and  C_1 
REMARK    3  A    between atoms: C_5  and  C_1 
REMARK       I    between atoms: C_4  and  N_3 
REMARK    4  A    between atoms: C_6  and  C_4 
ROOT
ATOM      1  C   UNL d   1     -41.451-122.595 -51.889  0.00  0.00     0.196 C 
ENDROOT
BRANCH   1   2
ATOM      2  P   UNL d   1     -41.821-123.214 -51.454  0.00  0.00     0.317 P 
ATOM      3  O   UNL d   1     -41.233-123.748 -51.683  0.00  0.00    -0.635 OA
ATOM      4  O   UNL d   1     -42.213-123.814 -51.011  0.00  0.00    -0.635 OA
ATOM      5  O   UNL d   1     -42.427-122.661 -51.219  0.00  0.00    -0.635 OA
ENDBRANCH   1   2
BRANCH   1   6
ATOM      6  N   UNL d   1     -41.302-122.653 -52.710  0.00  0.00    -0.201 NA
ATOM      7  C   UNL d   1     -41.864-122.411 -53.247  0.00  0.00     0.255 C 
ATOM      8  O   UNL d   1     -42.575-122.111 -52.971  0.00  0.00    -0.270 OA
BRANCH   7   9
ATOM      9  C   UNL d   1     -41.714-122.470 -54.043  0.00  0.00     0.073 C 
ATOM     10  C   UNL d   1     -41.127-122.985 -54.310  0.00  0.00     0.009 C 
ATOM     11  C   UNL d   1     -42.150-122.013 -54.583  0.00  0.00     0.009 C 
ATOM     12  C   UNL d   1     -41.522-122.559 -54.922  0.00  0.00     0.009 C 
ENDBRANCH   7   9
ENDBRANCH   1   6
BRANCH   1  13
ATOM     13  C   UNL d   1     -41.227-121.910 -51.494  0.00  0.00     0.142 C 
ATOM     14 CL   UNL d   1     -41.125-121.991 -50.728  0.00  0.00    -0.068 Cl
ATOM     15 CL   UNL d   1     -41.123-121.170 -51.943  0.00  0.00    -0.068 Cl
ENDBRANCH   1  13
TORSDOF 4
ENDMDL
MODEL 4
REMARK VINA RESULT:      -2.5      3.646      4.507
REMARK  4 active torsions:
REMARK  status: ('A' for Active; 'I' for Inactive)
REMARK    1  A    between atoms: P_2  and  C_1 
REMARK    2  A    between atoms: N_3  and  C_1 
REMARK    3  A    between atoms: C_5  and  C_1 
REMARK       I    between atoms: C_4  and  N_3 
REMARK    4  A    between atoms: C_6  and  C_4 
ROOT
ATOM      1  C   UNL d   1     -42.272-123.055 -50.000  0.00  0.00     0.196 C 
ENDROOT
BRANCH   1   2
ATOM      2  P   UNL d   1     -43.027-122.746 -50.209  0.00  0.00     0.317 P 
ATOM      3  O   UNL d   1     -42.695-122.009 -50.380  0.00  0.00    -0.635 OA
ATOM      4  O   UNL d   1     -43.795-122.464 -50.412  0.00  0.00    -0.635 OA
ATOM      5  O   UNL d   1     -43.367-123.508 -50.031  0.00  0.00    -0.635 OA
ENDBRANCH   1   2
BRANCH   1   6
ATOM      6  N   UNL d   1     -42.134-123.444 -49.272  0.00  0.00    -0.201 NA
ATOM      7  C   UNL d   1     -41.987-123.012 -48.597  0.00  0.00     0.255 C 
ATOM      8  O   UNL d   1     -41.977-122.194 -48.642  0.00  0.00    -0.270 OA
BRANCH   7   9
ATOM      9  C   UNL d   1     -41.853-123.396 -47.893  0.00  0.00     0.073 C 
ATOM     10  C   UNL d   1     -42.438-123.394 -47.311  0.00  0.00     0.009 C 
ATOM     11  C   UNL d   1     -41.133-123.787 -47.763  0.00  0.00     0.009 C 
ATOM     12  C   UNL d   1     -41.737-123.813 -47.100  0.00  0.00     0.009 C 
ENDBRANCH   7   9
ENDBRANCH   1   6
BRANCH   1  13
ATOM     13  C   UNL d   1     -41.647-122.971 -50.527  0.00  0.00     0.142 C 
ATOM     14 CL   UNL d   1     -41.405-123.633 -50.855  0.00  0.00    -0.068 Cl
ATOM     15 CL   UNL d   1     -41.314-122.180 -50.677  0.00  0.00    -0.068 Cl
ENDBRANCH   1  13
TORSDOF 4
ENDMDL
