MODEL 1
REMARK VINA RESULT:      -8.9      0.000      0.000
REMARK  6 active torsions:
REMARK  status: ('A' for Active; 'I' for Inactive)
REMARK    1  A    between atoms: C_11  and  C_4 
REMARK    2  A    between atoms: N_10  and  C_5 
REMARK    3  A    between atoms: C_16  and  C_9 
REMARK    4  A    between atoms: C_13  and  N_10 
REMARK    5  A    between atoms: C_14  and  C_13 
REMARK    6  A    between atoms: C_21  and  C_16 
ROOT
ATOM      1  N   UNL d   1      51.978  34.217  53.402  0.00  0.00    -0.195 N 
ATOM      2  C   UNL d   1      52.676  33.906  53.713  0.00  0.00     0.167 A 
ATOM      3  N   UNL d   1      52.180  35.397  54.131  0.00  0.00    -0.163 NA
ATOM      4  C   UNL d   1      53.113  34.338  54.224  0.00  0.00     0.055 A 
ATOM      5  C   UNL d   1      51.553  33.765  52.889  0.00  0.00     0.167 A 
ATOM      6  C   UNL d   1      52.877  35.086  54.442  0.00  0.00     0.104 A 
ATOM      7  N   UNL d   1      52.912  33.159  53.495  0.00  0.00    -0.227 NA
ATOM      8  C   UNL d   1      51.776  33.031  52.669  0.00  0.00     0.058 A 
ATOM      9  C   UNL d   1      52.474  32.720  52.980  0.00  0.00     0.086 A 
ATOM     10  C   UNL d   1      53.312  35.526  54.955  0.00  0.00     0.023 C 
ENDROOT
BRANCH   5  11
ATOM     11  N   UNL d   1      50.833  34.086  52.568  0.00  0.00    -0.224 NA
BRANCH  11  12
ATOM     12  C   UNL d   1      50.388  34.138  51.852  0.00  0.00     0.120 C 
BRANCH  12  13
ATOM     13  C   UNL d   1      49.634  34.512  51.835  0.00  0.00     0.101 A 
ATOM     14  N   UNL d   1      49.348  34.929  52.518  0.00  0.00    -0.242 NA
ATOM     15  C   UNL d   1      48.590  35.301  52.493  0.00  0.00     0.099 A 
ATOM     16  C   UNL d   1      48.116  35.260  51.792  0.00  0.00     0.021 A 
ATOM     17  C   UNL d   1      48.410  34.839  51.110  0.00  0.00     0.003 A 
ATOM     18  C   UNL d   1      49.169  34.466  51.134  0.00  0.00     0.021 A 
ENDBRANCH  12  13
ENDBRANCH  11  12
ENDBRANCH   5  11
BRANCH   9  19
ATOM     19  C   UNL d   1      52.725  31.943  52.756  0.00  0.00     0.019 C 
BRANCH  19  20
ATOM     20  C   UNL d   1      52.388  31.252  53.130  0.00  0.00     0.002 C 
ATOM     21  C   UNL d   1      52.756  30.503  53.045  0.00  0.00     0.000 C 
ENDBRANCH  19  20
ENDBRANCH   9  19
BRANCH   4  22
ATOM     22  C   UNL d   1      53.800  34.032  54.530  0.00  0.00     0.004 A 
ATOM     23  C   UNL d   1      53.778  33.617  55.226  0.00  0.00     0.000 A 
ATOM     24  C   UNL d   1      54.465  33.311  55.532  0.00  0.00     0.000 A 
ATOM     25  C   UNL d   1      55.174  33.419  55.142  0.00  0.00     0.000 A 
ATOM     26  C   UNL d   1      55.199  33.836  54.443  0.00  0.00     0.000 A 
ATOM     27  C   UNL d   1      54.501  34.147  54.132  0.00  0.00     0.000 A 
ENDBRANCH   4  22
TORSDOF 6
ENDMDL
MODEL 2
REMARK VINA RESULT:      -7.7      0.932      2.407
REMARK  6 active torsions:
REMARK  status: ('A' for Active; 'I' for Inactive)
REMARK    1  A    between atoms: C_11  and  C_4 
REMARK    2  A    between atoms: N_10  and  C_5 
REMARK    3  A    between atoms: C_16  and  C_9 
REMARK    4  A    between atoms: C_13  and  N_10 
REMARK    5  A    between atoms: C_14  and  C_13 
REMARK    6  A    between atoms: C_21  and  C_16 
ROOT
ATOM      1  N   UNL d   1      51.794  33.522  52.928  0.00  0.00    -0.195 N 
ATOM      2  C   UNL d   1      52.534  33.488  53.292  0.00  0.00     0.167 A 
ATOM      3  N   UNL d   1      51.856  32.145  52.674  0.00  0.00    -0.163 NA
ATOM      4  C   UNL d   1      52.922  32.792  53.343  0.00  0.00     0.055 A 
ATOM      5  C   UNL d   1      51.420  34.234  52.887  0.00  0.00     0.167 A 
ATOM      6  C   UNL d   1      52.595  32.112  53.039  0.00  0.00     0.104 A 
ATOM      7  N   UNL d   1      52.860  34.168  53.597  0.00  0.00    -0.227 NA
ATOM      8  C   UNL d   1      51.732  34.906  53.183  0.00  0.00     0.058 A 
ATOM      9  C   UNL d   1      52.471  34.872  53.547  0.00  0.00     0.086 A 
ATOM     10  C   UNL d   1      52.980  31.408  53.086  0.00  0.00     0.023 C 
ENDROOT
BRANCH   5  11
ATOM     11  N   UNL d   1      50.657  34.269  52.511  0.00  0.00    -0.224 NA
BRANCH  11  12
ATOM     12  C   UNL d   1      49.840  34.409  52.675  0.00  0.00     0.120 C 
BRANCH  12  13
ATOM     13  C   UNL d   1      49.300  34.602  52.058  0.00  0.00     0.101 A 
ATOM     14  N   UNL d   1      49.392  34.258  51.287  0.00  0.00    -0.242 NA
ATOM     15  C   UNL d   1      48.846  34.456  50.673  0.00  0.00     0.099 A 
ATOM     16  C   UNL d   1      48.211  34.995  50.824  0.00  0.00     0.021 A 
ATOM     17  C   UNL d   1      48.126  35.337  51.602  0.00  0.00     0.003 A 
ATOM     18  C   UNL d   1      48.671  35.139  52.217  0.00  0.00     0.021 A 
ENDBRANCH  12  13
ENDBRANCH  11  12
ENDBRANCH   5  11
BRANCH   9  19
ATOM     19  C   UNL d   1      52.816  35.577  53.866  0.00  0.00     0.019 C 
BRANCH  19  20
ATOM     20  C   UNL d   1      52.677  35.802  54.678  0.00  0.00     0.002 C 
ATOM     21  C   UNL d   1      53.091  36.448  55.017  0.00  0.00     0.000 C 
ENDBRANCH  19  20
ENDBRANCH   9  19
BRANCH   4  22
ATOM     22  C   UNL d   1      53.650  32.758  53.702  0.00  0.00     0.004 A 
ATOM     23  C   UNL d   1      53.698  32.605  54.496  0.00  0.00     0.000 A 
ATOM     24  C   UNL d   1      54.425  32.571  54.854  0.00  0.00     0.000 A 
ATOM     25  C   UNL d   1      55.105  32.692  54.419  0.00  0.00     0.000 A 
ATOM     26  C   UNL d   1      55.060  32.846  53.621  0.00  0.00     0.000 A 
ATOM     27  C   UNL d   1      54.321  32.880  53.257  0.00  0.00     0.000 A 
ENDBRANCH   4  22
TORSDOF 6
ENDMDL
MODEL 3
REMARK VINA RESULT:      -7.3      1.375      4.265
REMARK  6 active torsions:
REMARK  status: ('A' for Active; 'I' for Inactive)
REMARK    1  A    between atoms: C_11  and  C_4 
REMARK    2  A    between atoms: N_10  and  C_5 
REMARK    3  A    between atoms: C_16  and  C_9 
REMARK    4  A    between atoms: C_13  and  N_10 
REMARK    5  A    between atoms: C_14  and  C_13 
REMARK    6  A    between atoms: C_21  and  C_16 
ROOT
ATOM      1  N   UNL d   1      53.327  32.477  53.770  0.00  0.00    -0.195 N 
ATOM      2  C   UNL d   1      53.166  33.281  53.858  0.00  0.00     0.167 A 
ATOM      3  N   UNL d   1      54.410  32.596  54.651  0.00  0.00    -0.163 NA
ATOM      4  C   UNL d   1      53.623  33.729  54.336  0.00  0.00     0.055 A 
ATOM      5  C   UNL d   1      52.854  32.043  53.283  0.00  0.00     0.167 A 
ATOM      6  C   UNL d   1      54.249  33.401  54.739  0.00  0.00     0.104 A 
ATOM      7  N   UNL d   1      52.541  33.609  53.455  0.00  0.00    -0.227 NA
ATOM      8  C   UNL d   1      52.239  32.356  52.883  0.00  0.00     0.058 A 
ATOM      9  C   UNL d   1      52.078  33.161  52.972  0.00  0.00     0.086 A 
ATOM     10  C   UNL d   1      54.713  33.845  55.222  0.00  0.00     0.023 C 
ENDROOT
BRANCH   5  11
ATOM     11  N   UNL d   1      53.020  31.213  53.192  0.00  0.00    -0.224 NA
BRANCH  11  12
ATOM     12  C   UNL d   1      52.648  30.454  53.203  0.00  0.00     0.120 C 
BRANCH  12  13
ATOM     13  C   UNL d   1      52.949  29.831  53.682  0.00  0.00     0.101 A 
ATOM     14  N   UNL d   1      52.523  29.577  54.371  0.00  0.00    -0.242 NA
ATOM     15  C   UNL d   1      52.831  28.950  54.846  0.00  0.00     0.099 A 
ATOM     16  C   UNL d   1      53.562  28.576  54.637  0.00  0.00     0.021 A 
ATOM     17  C   UNL d   1      53.985  28.836  53.943  0.00  0.00     0.003 A 
ATOM     18  C   UNL d   1      53.677  29.464  53.467  0.00  0.00     0.021 A 
ENDBRANCH  12  13
ENDBRANCH  11  12
ENDBRANCH   5  11
BRANCH   9  19
ATOM     19  C   UNL d   1      51.428  33.508  52.555  0.00  0.00     0.019 C 
BRANCH  19  20
ATOM     20  C   UNL d   1      50.671  33.611  52.936  0.00  0.00     0.002 C 
ATOM     21  C   UNL d   1      50.134  34.196  52.663  0.00  0.00     0.000 C 
ENDBRANCH  19  20
ENDBRANCH   9  19
BRANCH   4  22
ATOM     22  C   UNL d   1      53.465  34.521  54.423  0.00  0.00     0.004 A 
ATOM     23  C   UNL d   1      53.742  35.047  53.872  0.00  0.00     0.000 A 
ATOM     24  C   UNL d   1      53.584  35.839  53.959  0.00  0.00     0.000 A 
ATOM     25  C   UNL d   1      53.149  36.104  54.597  0.00  0.00     0.000 A 
ATOM     26  C   UNL d   1      52.869  35.578  55.152  0.00  0.00     0.000 A 
ATOM     27  C   UNL d   1      53.030  34.774  55.063  0.00  0.00     0.000 A 
ENDBRANCH   4  22
TORSDOF 6
ENDMDL
MODEL 4
REMARK VINA RESULT:      -6.7      1.349      3.505
REMARK  6 active torsions:
REMARK  status: ('A' for Active; 'I' for Inactive)
REMARK    1  A    between atoms: C_11  and  C_4 
REMARK    2  A    between atoms: N_10  and  C_5 
REMARK    3  A    between atoms: C_16  and  C_9 
REMARK    4  A    between atoms: C_13  and  N_10 
REMARK    5  A    between atoms: C_14  and  C_13 
REMARK    6  A    between atoms: C_21  and  C_16 
ROOT
ATOM      1  N   UNL d   1      52.795  31.994  53.134  0.00  0.00    -0.195 N 
ATOM      2  C   UNL d   1      53.137  31.407  53.601  0.00  0.00     0.167 A 
ATOM      3  N   UNL d   1      52.240  31.011  52.304  0.00  0.00    -0.163 NA
ATOM      4  C   UNL d   1      53.029  30.637  53.417  0.00  0.00     0.055 A 
ATOM      5  C   UNL d   1      52.916  32.765  53.336  0.00  0.00     0.167 A 
ATOM      6  C   UNL d   1      52.582  30.424  52.771  0.00  0.00     0.104 A 
ATOM      7  N   UNL d   1      53.583  31.621  54.247  0.00  0.00    -0.227 NA
ATOM      8  C   UNL d   1      53.352  32.983  53.968  0.00  0.00     0.058 A 
ATOM      9  C   UNL d   1      53.695  32.396  54.435  0.00  0.00     0.086 A 
ATOM     10  C   UNL d   1      52.469  29.651  52.580  0.00  0.00     0.023 C 
ENDROOT
BRANCH   5  11
ATOM     11  N   UNL d   1      52.563  33.371  52.855  0.00  0.00    -0.224 NA
BRANCH  11  12
ATOM     12  C   UNL d   1      52.184  34.124  52.904  0.00  0.00     0.120 C 
BRANCH  12  13
ATOM     13  C   UNL d   1      51.423  34.250  52.568  0.00  0.00     0.101 A 
ATOM     14  N   UNL d   1      51.320  34.239  51.725  0.00  0.00    -0.242 NA
ATOM     15  C   UNL d   1      50.552  34.367  51.395  0.00  0.00     0.099 A 
ATOM     16  C   UNL d   1      49.888  34.505  51.902  0.00  0.00     0.021 A 
ATOM     17  C   UNL d   1      49.999  34.514  52.748  0.00  0.00     0.003 A 
ATOM     18  C   UNL d   1      50.767  34.387  53.079  0.00  0.00     0.021 A 
ENDBRANCH  12  13
ENDBRANCH  11  12
ENDBRANCH   5  11
BRANCH   9  19
ATOM     19  C   UNL d   1      54.161  32.612  55.109  0.00  0.00     0.019 C 
BRANCH  19  20
ATOM     20  C   UNL d   1      54.748  33.230  55.052  0.00  0.00     0.002 C 
ATOM     21  C   UNL d   1      55.020  33.620  55.743  0.00  0.00     0.000 C 
ENDBRANCH  19  20
ENDBRANCH   9  19
BRANCH   4  22
ATOM     22  C   UNL d   1      53.366  30.059  53.877  0.00  0.00     0.004 A 
ATOM     23  C   UNL d   1      54.102  29.777  53.689  0.00  0.00     0.000 A 
ATOM     24  C   UNL d   1      54.439  29.199  54.149  0.00  0.00     0.000 A 
ATOM     25  C   UNL d   1      54.040  28.903  54.796  0.00  0.00     0.000 A 
ATOM     26  C   UNL d   1      53.301  29.184  54.987  0.00  0.00     0.000 A 
ATOM     27  C   UNL d   1      52.958  29.771  54.520  0.00  0.00     0.000 A 
ENDBRANCH   4  22
TORSDOF 6
ENDMDL
