MODEL 1
REMARK VINA RESULT:      -5.1      0.000      0.000
REMARK  3 active torsions:
REMARK  status: ('A' for Active; 'I' for Inactive)
REMARK    1  A    between atoms: C_2  and  O_1 
REMARK    2  A    between atoms: C_5  and  O_1 
REMARK    3  A    between atoms: C_10  and  C_5 
ROOT
ATOM      1  O   UNL d   1      57.206  -0.300  30.851  0.00  0.00    -0.305 OA
ENDROOT
BRANCH   1   2
ATOM      2  C   UNL d   1      57.833  -0.188  30.314  0.00  0.00     0.100 A 
ATOM      3  C   UNL d   1      58.090   0.582  30.109  0.00  0.00     0.026 A 
ATOM      4  C   UNL d   1      58.712   0.681  29.576  0.00  0.00     0.023 A 
ATOM      5  C   UNL d   1      59.080   0.021  29.246  0.00  0.00     0.103 A 
ATOM      6  C   UNL d   1      58.817  -0.769  29.457  0.00  0.00     0.023 A 
ATOM      7  N   UNL d   1      59.715   0.113  28.702  0.00  0.00    -0.148 N 
ATOM      8  C   UNL d   1      58.201  -0.848  29.984  0.00  0.00     0.026 A 
ENDBRANCH   1   2
BRANCH   1   9
ATOM      9  C   UNL d   1      57.316  -0.125  31.647  0.00  0.00     0.122 C 
BRANCH   9  10
ATOM     10  C   UNL d   1      56.684  -0.283  32.179  0.00  0.00     0.025 A 
ATOM     11  C   UNL d   1      56.259   0.355  32.514  0.00  0.00     0.002 A 
ATOM     12  C   UNL d   1      55.638   0.209  33.036  0.00  0.00     0.000 A 
ATOM     13  C   UNL d   1      55.436  -0.591  33.228  0.00  0.00     0.000 A 
ATOM     14  C   UNL d   1      55.860  -1.206  32.893  0.00  0.00     0.000 A 
ATOM     15  C   UNL d   1      56.482  -1.060  32.370  0.00  0.00     0.002 A 
ENDBRANCH   9  10
ENDBRANCH   1   9
TORSDOF 3
ENDMDL
MODEL 2
REMARK VINA RESULT:      -5.0      0.114      1.059
REMARK  3 active torsions:
REMARK  status: ('A' for Active; 'I' for Inactive)
REMARK    1  A    between atoms: C_2  and  O_1 
REMARK    2  A    between atoms: C_5  and  O_1 
REMARK    3  A    between atoms: C_10  and  C_5 
ROOT
ATOM      1  O   UNL d   1      57.202  -0.091  30.850  0.00  0.00    -0.305 OA
ENDROOT
BRANCH   1   2
ATOM      2  C   UNL d   1      57.843  -0.083  30.317  0.00  0.00     0.100 A 
ATOM      3  C   UNL d   1      58.147  -0.795  30.000  0.00  0.00     0.026 A 
ATOM      4  C   UNL d   1      58.781  -0.775  29.473  0.00  0.00     0.023 A 
ATOM      5  C   UNL d   1      59.115  -0.051  29.259  0.00  0.00     0.103 A 
ATOM      6  C   UNL d   1      58.803   0.679  29.585  0.00  0.00     0.023 A 
ATOM      7  N   UNL d   1      59.763  -0.021  28.722  0.00  0.00    -0.148 N 
ATOM      8  C   UNL d   1      58.177   0.640  30.103  0.00  0.00     0.026 A 
ENDBRANCH   1   2
BRANCH   1   9
ATOM      9  C   UNL d   1      57.347  -0.126  31.658  0.00  0.00     0.122 C 
BRANCH   9  10
ATOM     10  C   UNL d   1      56.690  -0.224  32.175  0.00  0.00     0.025 A 
ATOM     11  C   UNL d   1      56.453  -0.995  32.397  0.00  0.00     0.002 A 
ATOM     12  C   UNL d   1      55.810  -1.100  32.903  0.00  0.00     0.000 A 
ATOM     13  C   UNL d   1      55.395  -0.420  33.193  0.00  0.00     0.000 A 
ATOM     14  C   UNL d   1      55.638   0.328  32.967  0.00  0.00     0.000 A 
ATOM     15  C   UNL d   1      56.281   0.433  32.461  0.00  0.00     0.002 A 
ENDBRANCH   9  10
ENDBRANCH   1   9
TORSDOF 3
ENDMDL
MODEL 3
REMARK VINA RESULT:      -4.9      1.821      3.973
REMARK  3 active torsions:
REMARK  status: ('A' for Active; 'I' for Inactive)
REMARK    1  A    between atoms: C_2  and  O_1 
REMARK    2  A    between atoms: C_5  and  O_1 
REMARK    3  A    between atoms: C_10  and  C_5 
ROOT
ATOM      1  O   UNL d   1      57.024  -0.496  31.132  0.00  0.00    -0.305 OA
ENDROOT
BRANCH   1   2
ATOM      2  C   UNL d   1      56.604  -0.397  31.845  0.00  0.00     0.100 A 
ATOM      3  C   UNL d   1      56.423   0.367  32.135  0.00  0.00     0.026 A 
ATOM      4  C   UNL d   1      56.007   0.452  32.841  0.00  0.00     0.023 A 
ATOM      5  C   UNL d   1      55.769  -0.216  33.262  0.00  0.00     0.103 A 
ATOM      6  C   UNL d   1      55.955  -1.000  32.965  0.00  0.00     0.023 A 
ATOM      7  N   UNL d   1      55.344  -0.138  33.984  0.00  0.00    -0.148 N 
ATOM      8  C   UNL d   1      56.367  -1.066  32.266  0.00  0.00     0.026 A 
ENDBRANCH   1   2
BRANCH   1   9
ATOM      9  C   UNL d   1      57.693  -0.040  30.988  0.00  0.00     0.122 C 
BRANCH   9  10
ATOM     10  C   UNL d   1      58.066  -0.111  30.238  0.00  0.00     0.025 A 
ATOM     11  C   UNL d   1      58.120   0.561  29.741  0.00  0.00     0.002 A 
ATOM     12  C   UNL d   1      58.484   0.501  29.003  0.00  0.00     0.000 A 
ATOM     13  C   UNL d   1      58.802  -0.245  28.757  0.00  0.00     0.000 A 
ATOM     14  C   UNL d   1      58.743  -0.893  29.253  0.00  0.00     0.000 A 
ATOM     15  C   UNL d   1      58.379  -0.833  29.991  0.00  0.00     0.002 A 
ENDBRANCH   9  10
ENDBRANCH   1   9
TORSDOF 3
ENDMDL
MODEL 4
REMARK VINA RESULT:      -3.2      2.600      4.538
REMARK  3 active torsions:
REMARK  status: ('A' for Active; 'I' for Inactive)
REMARK    1  A    between atoms: C_2  and  O_1 
REMARK    2  A    between atoms: C_5  and  O_1 
REMARK    3  A    between atoms: C_10  and  C_5 
ROOT
ATOM      1  O   UNL d   1      56.133   0.347  32.877  0.00  0.00    -0.305 OA
ENDROOT
BRANCH   1   2
ATOM      2  C   UNL d   1      55.830   0.427  33.649  0.00  0.00     0.100 A 
ATOM      3  C   UNL d   1      56.336   0.591  34.296  0.00  0.00     0.026 A 
ATOM      4  C   UNL d   1      56.024   0.668  35.055  0.00  0.00     0.023 A 
ATOM      5  C   UNL d   1      55.212   0.583  35.177  0.00  0.00     0.103 A 
ATOM      6  C   UNL d   1      54.693   0.416  34.514  0.00  0.00     0.023 A 
ATOM      7  N   UNL d   1      54.885   0.660  35.949  0.00  0.00    -0.148 N 
ATOM      8  C   UNL d   1      55.018   0.343  33.771  0.00  0.00     0.026 A 
ENDBRANCH   1   2
BRANCH   1   9
ATOM      9  C   UNL d   1      56.526  -0.343  32.665  0.00  0.00     0.122 C 
BRANCH   9  10
ATOM     10  C   UNL d   1      56.960  -0.346  31.945  0.00  0.00     0.025 A 
ATOM     11  C   UNL d   1      57.298   0.367  31.666  0.00  0.00     0.002 A 
ATOM     12  C   UNL d   1      57.725   0.373  30.960  0.00  0.00     0.000 A 
ATOM     13  C   UNL d   1      57.817  -0.348  30.525  0.00  0.00     0.000 A 
ATOM     14  C   UNL d   1      57.482  -1.038  30.809  0.00  0.00     0.000 A 
ATOM     15  C   UNL d   1      57.054  -1.044  31.515  0.00  0.00     0.002 A 
ENDBRANCH   9  10
ENDBRANCH   1   9
TORSDOF 3
ENDMDL
MODEL 5
REMARK VINA RESULT:      -2.7      1.271      1.979
REMARK  3 active torsions:
REMARK  status: ('A' for Active; 'I' for Inactive)
REMARK    1  A    between atoms: C_2  and  O_1 
REMARK    2  A    between atoms: C_5  and  O_1 
REMARK    3  A    between atoms: C_10  and  C_5 
ROOT
ATOM      1  O   UNL d   1      56.452   0.337  32.263  0.00  0.00    -0.305 OA
ENDROOT
BRANCH   1   2
ATOM      2  C   UNL d   1      57.168   0.359  31.837  0.00  0.00     0.100 A 
ATOM      3  C   UNL d   1      57.205   0.095  31.044  0.00  0.00     0.026 A 
ATOM      4  C   UNL d   1      57.920   0.121  30.633  0.00  0.00     0.023 A 
ATOM      5  C   UNL d   1      58.598   0.408  31.004  0.00  0.00     0.103 A 
ATOM      6  C   UNL d   1      58.560   0.679  31.819  0.00  0.00     0.023 A 
ATOM      7  N   UNL d   1      59.331   0.439  30.593  0.00  0.00    -0.148 N 
ATOM      8  C   UNL d   1      57.846   0.646  32.209  0.00  0.00     0.026 A 
ENDBRANCH   1   2
BRANCH   1   9
ATOM      9  C   UNL d   1      56.414  -0.077  32.973  0.00  0.00     0.122 C 
BRANCH   9  10
ATOM     10  C   UNL d   1      55.819   0.141  33.526  0.00  0.00     0.025 A 
ATOM     11  C   UNL d   1      55.018   0.155  33.283  0.00  0.00     0.002 A 
ATOM     12  C   UNL d   1      54.427   0.367  33.819  0.00  0.00     0.000 A 
ATOM     13  C   UNL d   1      54.641   0.568  34.614  0.00  0.00     0.000 A 
ATOM     14  C   UNL d   1      55.428   0.549  34.837  0.00  0.00     0.000 A 
ATOM     15  C   UNL d   1      56.019   0.338  34.301  0.00  0.00     0.002 A 
ENDBRANCH   9  10
ENDBRANCH   1   9
TORSDOF 3
ENDMDL
MODEL 6
REMARK VINA RESULT:      -2.2      9.634     10.024
REMARK  3 active torsions:
REMARK  status: ('A' for Active; 'I' for Inactive)
REMARK    1  A    between atoms: C_2  and  O_1 
REMARK    2  A    between atoms: C_5  and  O_1 
REMARK    3  A    between atoms: C_10  and  C_5 
ROOT
ATOM      1  O   UNL d   1      59.552  -9.677  33.595  0.00  0.00    -0.305 OA
ENDROOT
BRANCH   1   2
ATOM      2  C   UNL d   1      59.117  -9.707  32.885  0.00  0.00     0.100 A 
ATOM      3  C   UNL d   1      59.504  -9.789  32.147  0.00  0.00     0.026 A 
ATOM      4  C   UNL d   1      59.063  -9.818  31.451  0.00  0.00     0.023 A 
ATOM      5  C   UNL d   1      58.241  -9.765  31.482  0.00  0.00     0.103 A 
ATOM      6  C   UNL d   1      57.844  -9.681  32.239  0.00  0.00     0.023 A 
ATOM      7  N   UNL d   1      57.783  -9.794  30.777  0.00  0.00    -0.148 N 
ATOM      8  C   UNL d   1      58.295  -9.654  32.916  0.00  0.00     0.026 A 
ENDBRANCH   1   2
BRANCH   1   9
ATOM      9  C   UNL d   1      59.179  -9.442  34.290  0.00  0.00     0.122 C 
BRANCH   9  10
ATOM     10  C   UNL d   1      59.661  -9.251  34.952  0.00  0.00     0.025 A 
ATOM     11  C   UNL d   1      59.542  -8.524  35.351  0.00  0.00     0.002 A 
ATOM     12  C   UNL d   1      60.010  -8.328  36.001  0.00  0.00     0.000 A 
ATOM     13  C   UNL d   1      60.609  -8.870  36.259  0.00  0.00     0.000 A 
ATOM     14  C   UNL d   1      60.714  -9.576  35.861  0.00  0.00     0.000 A 
ATOM     15  C   UNL d   1      60.246  -9.772  35.210  0.00  0.00     0.002 A 
ENDBRANCH   9  10
ENDBRANCH   1   9
TORSDOF 3
ENDMDL
