MODEL 1
REMARK VINA RESULT:      -9.0      0.000      0.000
REMARK  2 active torsions:
REMARK  status: ('A' for Active; 'I' for Inactive)
REMARK    1  A    between atoms: C_6  and  C_1 
REMARK    2  A    between atoms: C_7  and  C_5 
ROOT
ATOM      1  C   UNL d   1      53.114  31.315  53.260  0.00  0.00     0.085 A 
ATOM      2  C   UNL d   1      52.620  31.958  53.103  0.00  0.00     0.137 A 
ATOM      3  C   UNL d   1      53.740  31.559  53.717  0.00  0.00     0.013 A 
ATOM      4  S   UNL d   1      52.956  32.610  53.475  0.00  0.00    -0.066 SA
ATOM      5  C   UNL d   1      53.633  32.372  53.848  0.00  0.00     0.031 A 
ATOM      6  N   UNL d   1      51.928  31.916  52.653  0.00  0.00    -0.141 N 
ENDROOT
BRANCH   5   7
ATOM      7  C   UNL d   1      54.159  32.814  54.289  0.00  0.00     0.006 A 
ATOM      8  C   UNL d   1      54.785  33.177  53.923  0.00  0.00     0.001 A 
ATOM      9  C   UNL d   1      55.322  33.626  54.365  0.00  0.00     0.000 A 
ATOM     10  C   UNL d   1      55.221  33.707  55.172  0.00  0.00     0.000 A 
ATOM     11  C   UNL d   1      54.585  33.339  55.545  0.00  0.00     0.000 A 
ATOM     12  C   UNL d   1      54.058  32.896  55.104  0.00  0.00     0.001 A 
ENDBRANCH   5   7
BRANCH   1  13
ATOM     13  C   UNL d   1      53.000  30.524  52.996  0.00  0.00     0.299 C 
ATOM     14  O   UNL d   1      53.034  30.352  52.201  0.00  0.00    -0.264 OA
ATOM     15  N   UNL d   1      52.856  29.936  53.550  0.00  0.00    -0.102 N 
ENDBRANCH   1  13
TORSDOF 2
ENDMDL
MODEL 2
REMARK VINA RESULT:      -8.8      2.259      3.347
REMARK  2 active torsions:
REMARK  status: ('A' for Active; 'I' for Inactive)
REMARK    1  A    between atoms: C_6  and  C_1 
REMARK    2  A    between atoms: C_7  and  C_5 
ROOT
ATOM      1  C   UNL d   1      53.674  32.860  54.233  0.00  0.00     0.085 A 
ATOM      2  C   UNL d   1      53.627  32.235  53.696  0.00  0.00     0.137 A 
ATOM      3  C   UNL d   1      53.072  33.387  54.089  0.00  0.00     0.013 A 
ATOM      4  S   UNL d   1      52.979  32.386  53.212  0.00  0.00    -0.066 SA
ATOM      5  C   UNL d   1      52.642  33.082  53.447  0.00  0.00     0.031 A 
ATOM      6  N   UNL d   1      54.150  31.595  53.678  0.00  0.00    -0.141 N 
ENDROOT
BRANCH   5   7
ATOM      7  C   UNL d   1      51.988  33.465  53.141  0.00  0.00     0.006 A 
ATOM      8  C   UNL d   1      51.252  33.304  53.439  0.00  0.00     0.001 A 
ATOM      9  C   UNL d   1      50.586  33.688  53.134  0.00  0.00     0.000 A 
ATOM     10  C   UNL d   1      50.668  34.232  52.529  0.00  0.00     0.000 A 
ATOM     11  C   UNL d   1      51.417  34.396  52.224  0.00  0.00     0.000 A 
ATOM     12  C   UNL d   1      52.071  34.014  52.530  0.00  0.00     0.001 A 
ENDBRANCH   5   7
BRANCH   1  13
ATOM     13  C   UNL d   1      54.249  32.953  54.841  0.00  0.00     0.299 C 
ATOM     14  O   UNL d   1      54.131  32.606  55.568  0.00  0.00    -0.264 OA
ATOM     15  N   UNL d   1      54.923  33.395  54.687  0.00  0.00    -0.102 N 
ENDBRANCH   1  13
TORSDOF 2
ENDMDL
MODEL 3
REMARK VINA RESULT:      -8.5      2.230      3.486
REMARK  2 active torsions:
REMARK  status: ('A' for Active; 'I' for Inactive)
REMARK    1  A    between atoms: C_6  and  C_1 
REMARK    2  A    between atoms: C_7  and  C_5 
ROOT
ATOM      1  C   UNL d   1      53.673  33.765  54.512  0.00  0.00     0.085 A 
ATOM      2  C   UNL d   1      54.431  33.466  54.647  0.00  0.00     0.137 A 
ATOM      3  C   UNL d   1      53.220  33.201  54.143  0.00  0.00     0.013 A 
ATOM      4  S   UNL d   1      54.438  32.698  54.351  0.00  0.00    -0.066 SA
ATOM      5  C   UNL d   1      53.707  32.535  54.046  0.00  0.00     0.031 A 
ATOM      6  N   UNL d   1      55.041  33.887  55.013  0.00  0.00    -0.141 N 
ENDROOT
BRANCH   5   7
ATOM      7  C   UNL d   1      53.440  31.849  53.691  0.00  0.00     0.006 A 
ATOM      8  C   UNL d   1      53.731  31.132  53.934  0.00  0.00     0.001 A 
ATOM      9  C   UNL d   1      53.465  30.433  53.579  0.00  0.00     0.000 A 
ATOM     10  C   UNL d   1      52.909  30.464  52.981  0.00  0.00     0.000 A 
ATOM     11  C   UNL d   1      52.613  31.193  52.733  0.00  0.00     0.000 A 
ATOM     12  C   UNL d   1      52.879  31.880  53.087  0.00  0.00     0.001 A 
ENDBRANCH   5   7
BRANCH   1  13
ATOM     13  C   UNL d   1      53.397  34.533  54.719  0.00  0.00     0.299 C 
ATOM     14  O   UNL d   1      53.311  34.737  55.502  0.00  0.00    -0.264 OA
ATOM     15  N   UNL d   1      53.218  35.066  54.121  0.00  0.00    -0.102 N 
ENDBRANCH   1  13
TORSDOF 2
ENDMDL
MODEL 4
REMARK VINA RESULT:      -8.2      2.340      3.142
REMARK  2 active torsions:
REMARK  status: ('A' for Active; 'I' for Inactive)
REMARK    1  A    between atoms: C_6  and  C_1 
REMARK    2  A    between atoms: C_7  and  C_5 
ROOT
ATOM      1  C   UNL d   1      51.919  33.698  52.848  0.00  0.00     0.085 A 
ATOM      2  C   UNL d   1      52.542  34.015  53.289  0.00  0.00     0.137 A 
ATOM      3  C   UNL d   1      52.006  32.893  52.797  0.00  0.00     0.013 A 
ATOM      4  S   UNL d   1      53.020  33.384  53.511  0.00  0.00    -0.066 SA
ATOM      5  C   UNL d   1      52.698  32.703  53.215  0.00  0.00     0.031 A 
ATOM      6  N   UNL d   1      52.634  34.820  53.454  0.00  0.00    -0.141 N 
ENDROOT
BRANCH   5   7
ATOM      7  C   UNL d   1      52.968  31.935  53.285  0.00  0.00     0.006 A 
ATOM      8  C   UNL d   1      53.637  31.783  53.717  0.00  0.00     0.001 A 
ATOM      9  C   UNL d   1      53.915  31.007  53.792  0.00  0.00     0.000 A 
ATOM     10  C   UNL d   1      53.516  30.392  53.432  0.00  0.00     0.000 A 
ATOM     11  C   UNL d   1      52.835  30.546  52.993  0.00  0.00     0.000 A 
ATOM     12  C   UNL d   1      52.565  31.314  52.922  0.00  0.00     0.001 A 
ENDBRANCH   5   7
BRANCH   1  13
ATOM     13  C   UNL d   1      51.285  34.130  52.500  0.00  0.00     0.299 C 
ATOM     14  O   UNL d   1      51.318  34.337  51.714  0.00  0.00    -0.264 OA
ATOM     15  N   UNL d   1      50.641  34.335  52.966  0.00  0.00    -0.102 N 
ENDBRANCH   1  13
TORSDOF 2
ENDMDL
MODEL 5
REMARK VINA RESULT:      -8.2      1.370      1.911
REMARK  2 active torsions:
REMARK  status: ('A' for Active; 'I' for Inactive)
REMARK    1  A    between atoms: C_6  and  C_1 
REMARK    2  A    between atoms: C_7  and  C_5 
ROOT
ATOM      1  C   UNL d   1      52.236  33.120  53.236  0.00  0.00     0.085 A 
ATOM      2  C   UNL d   1      52.546  32.374  53.065  0.00  0.00     0.137 A 
ATOM      3  C   UNL d   1      52.747  33.522  53.722  0.00  0.00     0.013 A 
ATOM      4  S   UNL d   1      53.266  32.321  53.458  0.00  0.00    -0.066 SA
ATOM      5  C   UNL d   1      53.391  33.014  53.857  0.00  0.00     0.031 A 
ATOM      6  N   UNL d   1      52.174  31.812  52.585  0.00  0.00    -0.141 N 
ENDROOT
BRANCH   5   7
ATOM      7  C   UNL d   1      54.024  33.229  54.326  0.00  0.00     0.006 A 
ATOM      8  C   UNL d   1      54.723  33.450  53.979  0.00  0.00     0.001 A 
ATOM      9  C   UNL d   1      55.369  33.670  54.449  0.00  0.00     0.000 A 
ATOM     10  C   UNL d   1      55.303  33.665  55.263  0.00  0.00     0.000 A 
ATOM     11  C   UNL d   1      54.593  33.440  55.616  0.00  0.00     0.000 A 
ATOM     12  C   UNL d   1      53.959  33.224  55.148  0.00  0.00     0.001 A 
ENDBRANCH   5   7
BRANCH   1  13
ATOM     13  C   UNL d   1      51.504  33.431  52.957  0.00  0.00     0.299 C 
ATOM     14  O   UNL d   1      50.809  33.229  53.328  0.00  0.00    -0.264 OA
ATOM     15  N   UNL d   1      51.508  33.936  52.310  0.00  0.00    -0.102 N 
ENDBRANCH   1  13
TORSDOF 2
ENDMDL
