MODEL 1
REMARK VINA RESULT:      21.9      0.000      0.000
REMARK  2 active torsions:
REMARK  status: ('A' for Active; 'I' for Inactive)
REMARK    1  A    between atoms: C_2  and  S_1 
REMARK    2  A    between atoms: N_3  and  S_1 
ROOT
ATOM      1  S   UNL d   1      13.797  12.524  -2.596  0.00  0.00     0.272 S 
ATOM      2  O   UNL d   1      13.423  11.965  -3.072  0.00  0.00    -0.200 OA
ATOM      3  O   UNL d   1      13.916  13.292  -2.881  0.00  0.00    -0.200 OA
ENDROOT
BRANCH   1   4
ATOM      4  C   UNL d   1      13.543  12.731  -3.352  0.00  0.00     0.115 A 
ATOM      5  C   UNL d   1      13.407  13.517  -3.531  0.00  0.00     0.071 A 
ATOM      6  C   UNL d   1      13.154  13.730  -4.281  0.00  0.00     0.024 A 
ATOM      7 CL   UNL d   1      13.520  14.111  -2.970  0.00  0.00    -0.082 Cl
ATOM      8  C   UNL d   1      13.035  13.148  -4.859  0.00  0.00     0.059 A 
ATOM      9  C   UNL d   1      13.174  12.357  -4.669  0.00  0.00     0.011 A 
ATOM     10 CL   UNL d   1      12.780  13.360  -5.613  0.00  0.00    -0.082 Cl
ATOM     11  C   UNL d   1      13.427  12.146  -3.919  0.00  0.00     0.015 A 
ATOM     12  C   UNL d   1      13.054  11.779  -5.247  0.00  0.00     0.001 C 
ENDBRANCH   1   4
BRANCH   1  13
ATOM     13  N   UNL d   1      14.053  12.321  -1.840  0.00  0.00    -0.229 N 
ATOM     14  C   UNL d   1      13.416  12.081  -1.325  0.00  0.00     0.092 A 
ATOM     15  C   UNL d   1      13.379  11.863  -0.640  0.00  0.00     0.020 A 
ATOM     16  C   UNL d   1      14.019  11.779  -0.113  0.00  0.00     0.002 A 
ATOM     17  C   UNL d   1      14.861  11.941  -0.291  0.00  0.00     0.002 A 
ATOM     18  C   UNL d   1      15.217  12.222  -1.050  0.00  0.00     0.020 A 
ATOM     19  C   UNL d   1      14.791  12.389  -1.761  0.00  0.00     0.092 A 
ENDBRANCH   1  13
TORSDOF 2
ENDMDL
