MODEL 1
REMARK VINA RESULT:      16.5      0.000      0.000
REMARK  7 active torsions:
REMARK  status: ('A' for Active; 'I' for Inactive)
REMARK    1  A    between atoms: C_2  and  S_1 
REMARK    2  A    between atoms: N_3  and  S_1 
REMARK    3  A    between atoms: C_11  and  N_3 
REMARK    4  A    between atoms: C_4  and  C_7 
REMARK       I    between atoms: N_12  and  C_4 
REMARK    5  A    between atoms: C_22  and  N_12 
REMARK    6  A    between atoms: O_20  and  C_24 
REMARK    7  A    between atoms: C_24  and  C_22 
ROOT
ATOM      1  C   UNL d   1      46.081 -17.069  43.692  0.00  0.00     0.058 A 
ATOM      2  C   UNL d   1      45.645 -15.706  44.504  0.00  0.00     0.094 A 
ATOM      3  C   UNL d   1      46.642 -16.657  44.136  0.00  0.00     0.006 A 
ATOM      4  C   UNL d   1      45.302 -16.800  43.655  0.00  0.00     0.006 A 
ATOM      5  C   UNL d   1      46.424 -15.976  44.541  0.00  0.00     0.020 A 
ATOM      6  C   UNL d   1      45.084 -16.118  44.061  0.00  0.00     0.020 A 
ENDROOT
BRANCH   2   7
ATOM      7  N   UNL d   1      45.427 -15.025  44.910  0.00  0.00    -0.158 NA
BRANCH   7   8
ATOM      8  S   UNL d   1      45.399 -14.301  44.514  0.00  0.00     0.285 S 
ATOM      9  O   UNL d   1      44.737 -14.086  44.955  0.00  0.00    -0.198 OA
ATOM     10  O   UNL d   1      46.062 -14.521  44.075  0.00  0.00    -0.198 OA
BRANCH   8  11
ATOM     11  C   UNL d   1      45.378 -13.583  44.115  0.00  0.00     0.105 A 
ATOM     12  C   UNL d   1      45.885 -12.971  44.328  0.00  0.00     0.012 A 
ATOM     13  C   UNL d   1      45.857 -12.254  43.923  0.00  0.00     0.001 A 
ATOM     14  C   UNL d   1      46.421 -13.090  44.954  0.00  0.00     0.001 C 
ATOM     15  C   UNL d   1      45.325 -12.146  43.307  0.00  0.00     0.000 A 
ATOM     16  C   UNL d   1      44.815 -12.758  43.090  0.00  0.00     0.001 A 
ATOM     17  C   UNL d   1      44.837 -13.477  43.490  0.00  0.00     0.013 A 
ATOM     18  C   UNL d   1      44.275 -12.644  42.463  0.00  0.00     0.000 C 
ENDBRANCH   8  11
ENDBRANCH   7   8
ENDBRANCH   2   7
BRANCH   1  19
ATOM     19  C   UNL d   1      46.296 -17.761  43.278  0.00  0.00     0.279 C 
ATOM     20  O   UNL d   1      46.627 -17.709  42.525  0.00  0.00    -0.265 OA
ATOM     21  N   UNL d   1      46.175 -18.494  43.629  0.00  0.00    -0.204 NA
BRANCH  21  22
ATOM     22  C   UNL d   1      46.387 -19.180  43.221  0.00  0.00     0.128 C 
BRANCH  22  23
ATOM     23  C   UNL d   1      46.226 -19.920  43.546  0.00  0.00     0.137 C 
BRANCH  23  24
ATOM     24  O   UNL d   1      45.969 -19.982  44.344  0.00  0.00    -0.325 OA
ATOM     25  C   UNL d   1      46.464 -20.314  44.909  0.00  0.00     0.182 C 
ENDBRANCH  23  24
ENDBRANCH  22  23
ENDBRANCH  21  22
ENDBRANCH   1  19
TORSDOF 7
ENDMDL
