MODEL 1
REMARK VINA RESULT:      57.6      0.000      0.000
REMARK  4 active torsions:
REMARK  status: ('A' for Active; 'I' for Inactive)
REMARK    1  A    between atoms: C_2  and  C_1 
REMARK       I    between atoms: N_7  and  C_1 
REMARK    2  A    between atoms: N_6  and  C_5 
REMARK    3  A    between atoms: C_12  and  N_7 
REMARK    4  A    between atoms: C_8  and  C_9 
ROOT
ATOM      1  C   UNL d   1     -54.925-102.078 -41.428  0.00  0.00     0.021 A 
ATOM      2  C   UNL d   1     -55.153-101.408 -42.669  0.00  0.00     0.085 A 
ATOM      3  C   UNL d   1     -55.144-101.400 -41.844  0.00  0.00     0.021 A 
ATOM      4  C   UNL d   1     -54.715-102.764 -41.837  0.00  0.00     0.002 A 
ATOM      5  C   UNL d   1     -54.725-102.767 -42.655  0.00  0.00     0.002 A 
ATOM      6  C   UNL d   1     -54.944-102.089 -43.071  0.00  0.00     0.019 A 
ENDROOT
BRANCH   1   7
ATOM      7  C   UNL d   1     -54.917-102.067 -40.595  0.00  0.00     0.103 A 
ATOM      8  N   UNL d   1     -55.102-102.744 -40.175  0.00  0.00    -0.147 NA
ATOM      9  N   UNL d   1     -55.093-102.728 -39.349  0.00  0.00    -0.130 NA
ATOM     10  C   UNL d   1     -54.899-102.032 -38.952  0.00  0.00     0.170 A 
ATOM     11  C   UNL d   1     -54.712-101.349 -39.384  0.00  0.00     0.041 A 
ATOM     12  C   UNL d   1     -54.723-101.370 -40.197  0.00  0.00     0.024 A 
BRANCH  10  13
ATOM     13  N   UNL d   1     -54.889-102.013 -38.135  0.00  0.00    -0.284 N 
ATOM     14  C   UNL d   1     -54.770-101.296 -37.743  0.00  0.00     0.108 A 
ATOM     15  C   UNL d   1     -54.759-101.273 -36.918  0.00  0.00     0.142 A 
ATOM     16  O   UNL d   1     -54.868-101.966 -36.485  0.00  0.00    -0.300 OA
ATOM     17  C   UNL d   1     -54.987-102.684 -36.876  0.00  0.00     0.142 A 
ATOM     18  C   UNL d   1     -54.997-102.707 -37.701  0.00  0.00     0.108 A 
ENDBRANCH  10  13
ENDBRANCH   1   7
BRANCH   2  19
ATOM     19  N   UNL d   1     -55.372-100.730 -43.085  0.00  0.00    -0.208 NA
ATOM     20  C   UNL d   1     -55.853-100.788 -43.745  0.00  0.00     0.280 C 
ATOM     21  O   UNL d   1     -56.119-101.529 -43.993  0.00  0.00    -0.265 OA
BRANCH  20  22
ATOM     22  C   UNL d   1     -56.070-100.114 -44.158  0.00  0.00     0.069 A 
ATOM     23  C   UNL d   1     -55.510 -99.551 -44.354  0.00  0.00     0.062 A 
ATOM     24 CL   UNL d   1     -54.714 -99.661 -44.133  0.00  0.00    -0.082 Cl
ATOM     25  C   UNL d   1     -55.729 -98.873 -44.770  0.00  0.00     0.012 A 
ATOM     26  C   UNL d   1     -56.508 -98.758 -44.990  0.00  0.00     0.001 A 
ATOM     27  C   UNL d   1     -57.077 -99.323 -44.795  0.00  0.00     0.000 A 
ATOM     28  C   UNL d   1     -56.858-100.001 -44.379  0.00  0.00     0.006 A 
ENDBRANCH  20  22
ENDBRANCH   2  19
TORSDOF 4
ENDMDL
