MODEL 1
REMARK VINA RESULT:      96.7      0.000      0.000
REMARK  6 active torsions:
REMARK  status: ('A' for Active; 'I' for Inactive)
REMARK    1  A    between atoms: C_9  and  N_1 
REMARK    2  A    between atoms: N_6  and  C_2 
REMARK    3  A    between atoms: C_7  and  C_5 
REMARK    4  A    between atoms: C_13  and  N_6 
REMARK    5  A    between atoms: C_8  and  C_7 
REMARK       I    between atoms: N_10  and  C_8 
REMARK    6  A    between atoms: C_14  and  N_10 
ROOT
ATOM      1  N   UNL d   1      60.698  48.627  51.450  0.00  0.00    -0.254 N 
ATOM      2  C   UNL d   1      60.792  47.954  50.980  0.00  0.00     0.182 A 
ATOM      3  C   UNL d   1      60.033  49.003  51.232  0.00  0.00     0.272 A 
ATOM      4  S   UNL d   1      60.139  47.935  50.451  0.00  0.00    -0.045 SA
ATOM      5  C   UNL d   1      59.670  48.590  50.611  0.00  0.00     0.093 A 
ATOM      6  O   UNL d   1      59.742  49.697  51.563  0.00  0.00    -0.266 OA
ENDROOT
BRANCH   5   7
ATOM      7  C   UNL d   1      58.981  48.790  50.231  0.00  0.00     0.074 C 
BRANCH   7   8
ATOM      8  C   UNL d   1      58.989  49.401  49.679  0.00  0.00     0.280 C 
ATOM      9  N   UNL d   1      58.253  49.704  49.406  0.00  0.00    -0.208 NA
ATOM     10  O   UNL d   1      59.681  49.699  49.409  0.00  0.00    -0.265 OA
BRANCH   9  11
ATOM     11  C   UNL d   1      57.558  49.389  49.692  0.00  0.00     0.085 A 
ATOM     12  C   UNL d   1      57.232  49.680  50.400  0.00  0.00     0.019 A 
ATOM     13  C   UNL d   1      56.521  49.365  50.701  0.00  0.00     0.002 A 
ATOM     14  C   UNL d   1      56.149  48.760  50.282  0.00  0.00     0.000 A 
ATOM     15  C   UNL d   1      56.472  48.467  49.573  0.00  0.00     0.002 A 
ATOM     16  C   UNL d   1      57.174  48.780  49.279  0.00  0.00     0.019 A 
ENDBRANCH   9  11
ENDBRANCH   7   8
ENDBRANCH   5   7
BRANCH   1  17
ATOM     17  C   UNL d   1      61.202  48.865  52.040  0.00  0.00     0.069 A 
ATOM     18  C   UNL d   1      61.121  48.535  52.799  0.00  0.00     0.018 A 
ATOM     19  C   UNL d   1      61.631  48.771  53.412  0.00  0.00     0.002 A 
ATOM     20  C   UNL d   1      62.217  49.334  53.258  0.00  0.00     0.000 A 
ATOM     21  C   UNL d   1      62.297  49.662  52.499  0.00  0.00     0.002 A 
ATOM     22  C   UNL d   1      61.787  49.423  51.898  0.00  0.00     0.018 A 
ENDBRANCH   1  17
BRANCH   2  23
ATOM     23  N   UNL d   1      61.374  47.383  50.976  0.00  0.00    -0.222 NA
BRANCH  23  24
ATOM     24  C   UNL d   1      61.420  46.838  50.369  0.00  0.00     0.084 A 
ATOM     25  C   UNL d   1      61.608  47.085  49.605  0.00  0.00     0.019 A 
ATOM     26  C   UNL d   1      61.654  46.523  48.991  0.00  0.00     0.002 A 
ATOM     27  C   UNL d   1      61.515  45.743  49.145  0.00  0.00     0.000 A 
ATOM     28  C   UNL d   1      61.326  45.493  49.914  0.00  0.00     0.002 A 
ATOM     29  C   UNL d   1      61.278  46.042  50.528  0.00  0.00     0.019 A 
ENDBRANCH  23  24
ENDBRANCH   2  23
TORSDOF 6
ENDMDL
