MODEL 1
REMARK VINA RESULT:      20.8      0.000      0.000
REMARK  1 active torsions:
REMARK  status: ('A' for Active; 'I' for Inactive)
REMARK    1  A    between atoms: C_10  and  N_3 
ROOT
ATOM      1  C   UNL d   1      46.267 -17.726  43.369  0.00  0.00     0.166 A 
ATOM      2  C   UNL d   1      46.170 -17.922  44.161  0.00  0.00     0.117 A 
ATOM      3  N   UNL d   1      46.463 -18.429  42.978  0.00  0.00    -0.289 N 
ATOM      4  N   UNL d   1      46.168 -16.946  43.101  0.00  0.00    -0.225 NA
ATOM      5  N   UNL d   1      45.969 -17.310  44.681  0.00  0.00    -0.241 NA
ATOM      6  C   UNL d   1      46.300 -18.715  44.258  0.00  0.00     0.037 A 
ATOM      7  C   UNL d   1      46.483 -19.031  43.521  0.00  0.00     0.067 A 
ATOM      8  C   UNL d   1      45.971 -16.361  43.623  0.00  0.00     0.101 A 
ATOM      9  C   UNL d   1      45.872 -16.554  44.423  0.00  0.00     0.099 A 
ATOM     10  C   UNL d   1      46.280 -19.206  44.919  0.00  0.00     0.003 A 
ATOM     11  C   UNL d   1      46.646 -19.839  43.446  0.00  0.00     0.018 A 
ATOM     12  C   UNL d   1      45.674 -15.968  44.955  0.00  0.00     0.021 A 
ATOM     13  C   UNL d   1      45.873 -15.604  43.373  0.00  0.00     0.021 A 
ATOM     14  C   UNL d   1      46.441 -20.012  44.850  0.00  0.00     0.000 A 
ATOM     15  C   UNL d   1      46.624 -20.329  44.112  0.00  0.00     0.002 A 
ATOM     16  C   UNL d   1      45.568 -15.177  44.713  0.00  0.00     0.002 A 
ATOM     17  C   UNL d   1      45.669 -15.007  43.928  0.00  0.00     0.002 A 
ENDROOT
BRANCH   3  18
ATOM     18  C   UNL d   1      46.610 -18.499  42.187  0.00  0.00     0.082 C 
ATOM     19  C   UNL d   1      45.998 -18.802  41.690  0.00  0.00     0.021 C 
ENDBRANCH   3  18
TORSDOF 1
ENDMDL
