MODEL 1
REMARK VINA RESULT:      -8.5      0.000      0.000
REMARK  3 active torsions:
REMARK  status: ('A' for Active; 'I' for Inactive)
REMARK    1  A    between atoms: C_6  and  C_1 
REMARK    2  A    between atoms: O_10  and  C_6 
REMARK    3  A    between atoms: C_13  and  O_10 
ROOT
ATOM      1  C   UNL d   1      53.178  31.943  53.265  0.00  0.00     0.121 A 
ATOM      2  C   UNL d   1      52.549  32.419  53.027  0.00  0.00     0.204 A 
ATOM      3  C   UNL d   1      53.834  32.280  53.639  0.00  0.00     0.107 A 
ATOM      4  C   UNL d   1      52.574  33.233  53.162  0.00  0.00     0.057 A 
ATOM      5  N   UNL d   1      53.856  33.100  53.774  0.00  0.00    -0.244 NA
ATOM      6  C   UNL d   1      53.227  33.577  53.536  0.00  0.00     0.085 A 
ATOM      7  O   UNL d   1      51.895  32.078  52.653  0.00  0.00    -0.286 OA
ATOM      8  C   UNL d   1      51.941  33.708  52.922  0.00  0.00     0.005 A 
ATOM      9  C   UNL d   1      53.252  34.381  53.670  0.00  0.00     0.019 A 
ATOM     10  C   UNL d   1      51.972  34.518  53.059  0.00  0.00     0.000 A 
ATOM     11  C   UNL d   1      52.628  34.855  53.433  0.00  0.00     0.002 A 
ENDROOT
BRANCH   1  12
ATOM     12  C   UNL d   1      53.161  31.128  53.134  0.00  0.00     0.305 C 
ATOM     13  O   UNL d   1      53.080  30.844  52.362  0.00  0.00    -0.259 OA
BRANCH  12  14
ATOM     14  O   UNL d   1      53.224  30.603  53.769  0.00  0.00    -0.271 OA
BRANCH  14  15
ATOM     15  C   UNL d   1      53.253  29.788  53.631  0.00  0.00     0.126 C 
ATOM     16  C   UNL d   1      53.290  29.266  54.269  0.00  0.00     0.029 C 
ENDBRANCH  14  15
ENDBRANCH  12  14
ENDBRANCH   1  12
TORSDOF 3
ENDMDL
MODEL 2
REMARK VINA RESULT:      -8.3      1.631      3.279
REMARK  3 active torsions:
REMARK  status: ('A' for Active; 'I' for Inactive)
REMARK    1  A    between atoms: C_6  and  C_1 
REMARK    2  A    between atoms: O_10  and  C_6 
REMARK    3  A    between atoms: C_13  and  O_10 
ROOT
ATOM      1  C   UNL d   1      52.260  34.135  53.304  0.00  0.00     0.121 A 
ATOM      2  C   UNL d   1      52.595  33.401  53.472  0.00  0.00     0.204 A 
ATOM      3  C   UNL d   1      52.546  34.816  53.676  0.00  0.00     0.107 A 
ATOM      4  C   UNL d   1      53.217  33.346  54.011  0.00  0.00     0.057 A 
ATOM      5  N   UNL d   1      53.173  34.757  54.219  0.00  0.00    -0.244 NA
ATOM      6  C   UNL d   1      53.509  34.023  54.387  0.00  0.00     0.085 A 
ATOM      7  O   UNL d   1      52.306  32.723  53.097  0.00  0.00    -0.286 OA
ATOM      8  C   UNL d   1      53.552  32.609  54.177  0.00  0.00     0.005 A 
ATOM      9  C   UNL d   1      54.124  33.970  54.921  0.00  0.00     0.019 A 
ATOM     10  C   UNL d   1      54.172  32.560  54.716  0.00  0.00     0.000 A 
ATOM     11  C   UNL d   1      54.458  33.241  55.088  0.00  0.00     0.002 A 
ENDROOT
BRANCH   1  12
ATOM     12  C   UNL d   1      51.637  34.199  52.766  0.00  0.00     0.305 C 
ATOM     13  O   UNL d   1      51.793  34.136  51.957  0.00  0.00    -0.259 OA
BRANCH  12  14
ATOM     14  O   UNL d   1      50.866  34.325  53.035  0.00  0.00    -0.271 OA
BRANCH  14  15
ATOM     15  C   UNL d   1      50.257  34.472  52.495  0.00  0.00     0.126 C 
ATOM     16  C   UNL d   1      49.515  34.707  52.768  0.00  0.00     0.029 C 
ENDBRANCH  14  15
ENDBRANCH  12  14
ENDBRANCH   1  12
TORSDOF 3
ENDMDL
MODEL 3
REMARK VINA RESULT:      -8.2      1.417      3.538
REMARK  3 active torsions:
REMARK  status: ('A' for Active; 'I' for Inactive)
REMARK    1  A    between atoms: C_6  and  C_1 
REMARK    2  A    between atoms: O_10  and  C_6 
REMARK    3  A    between atoms: C_13  and  O_10 
ROOT
ATOM      1  C   UNL d   1      53.413  32.655  53.565  0.00  0.00     0.121 A 
ATOM      2  C   UNL d   1      53.615  31.975  53.986  0.00  0.00     0.204 A 
ATOM      3  C   UNL d   1      52.968  32.595  52.870  0.00  0.00     0.107 A 
ATOM      4  C   UNL d   1      53.372  31.235  53.714  0.00  0.00     0.057 A 
ATOM      5  N   UNL d   1      52.726  31.847  52.599  0.00  0.00    -0.244 NA
ATOM      6  C   UNL d   1      52.927  31.167  53.020  0.00  0.00     0.085 A 
ATOM      7  O   UNL d   1      54.060  32.040  54.680  0.00  0.00    -0.286 OA
ATOM      8  C   UNL d   1      53.576  30.556  54.139  0.00  0.00     0.005 A 
ATOM      9  C   UNL d   1      52.687  30.436  52.751  0.00  0.00     0.019 A 
ATOM     10  C   UNL d   1      53.332  29.821  53.863  0.00  0.00     0.000 A 
ATOM     11  C   UNL d   1      52.887  29.761  53.168  0.00  0.00     0.002 A 
ENDROOT
BRANCH   1  12
ATOM     12  C   UNL d   1      53.652  33.399  53.830  0.00  0.00     0.305 C 
ATOM     13  O   UNL d   1      54.456  33.586  53.844  0.00  0.00    -0.259 OA
BRANCH  12  14
ATOM     14  O   UNL d   1      53.090  33.952  54.078  0.00  0.00    -0.271 OA
BRANCH  14  15
ATOM     15  C   UNL d   1      53.315  34.734  54.224  0.00  0.00     0.126 C 
ATOM     16  C   UNL d   1      52.741  35.297  54.413  0.00  0.00     0.029 C 
ENDBRANCH  14  15
ENDBRANCH  12  14
ENDBRANCH   1  12
TORSDOF 3
ENDMDL
MODEL 4
REMARK VINA RESULT:      -7.1      1.885      2.562
REMARK  3 active torsions:
REMARK  status: ('A' for Active; 'I' for Inactive)
REMARK    1  A    between atoms: C_6  and  C_1 
REMARK    2  A    between atoms: O_10  and  C_6 
REMARK    3  A    between atoms: C_13  and  O_10 
ROOT
ATOM      1  C   UNL d   1      53.138  33.740  53.577  0.00  0.00     0.121 A 
ATOM      2  C   UNL d   1      52.469  33.260  53.528  0.00  0.00     0.204 A 
ATOM      3  C   UNL d   1      53.092  34.537  53.360  0.00  0.00     0.107 A 
ATOM      4  C   UNL d   1      51.755  33.575  53.263  0.00  0.00     0.057 A 
ATOM      5  N   UNL d   1      52.369  34.851  53.093  0.00  0.00    -0.244 NA
ATOM      6  C   UNL d   1      51.701  34.371  53.044  0.00  0.00     0.085 A 
ATOM      7  O   UNL d   1      52.520  32.464  53.746  0.00  0.00    -0.286 OA
ATOM      8  C   UNL d   1      51.086  33.091  53.215  0.00  0.00     0.005 A 
ATOM      9  C   UNL d   1      50.994  34.683  52.782  0.00  0.00     0.019 A 
ATOM     10  C   UNL d   1      50.376  33.410  52.950  0.00  0.00     0.000 A 
ATOM     11  C   UNL d   1      50.330  34.207  52.733  0.00  0.00     0.002 A 
ENDROOT
BRANCH   1  12
ATOM     12  C   UNL d   1      53.857  33.433  53.841  0.00  0.00     0.305 C 
ATOM     13  O   UNL d   1      54.298  32.946  53.341  0.00  0.00    -0.259 OA
BRANCH  12  14
ATOM     14  O   UNL d   1      54.132  33.612  54.600  0.00  0.00    -0.271 OA
BRANCH  14  15
ATOM     15  C   UNL d   1      54.915  33.447  54.807  0.00  0.00     0.126 C 
ATOM     16  C   UNL d   1      55.217  33.724  55.522  0.00  0.00     0.029 C 
ENDBRANCH  14  15
ENDBRANCH  12  14
ENDBRANCH   1  12
TORSDOF 3
ENDMDL
