MODEL 1
REMARK VINA RESULT:      48.7      0.000      0.000
REMARK  8 active torsions:
REMARK  status: ('A' for Active; 'I' for Inactive)
REMARK    1  A    between atoms: C_4  and  N_1 
REMARK    2  A    between atoms: C_10  and  C_2 
REMARK    3  A    between atoms: N_14  and  C_4 
REMARK    4  A    between atoms: O_17  and  C_8 
REMARK    5  A    between atoms: O_15  and  C_10 
REMARK    6  A    between atoms: O_18  and  C_11 
REMARK    7  A    between atoms: C_16  and  O_15 
REMARK    8  A    between atoms: C_25  and  C_19 
ROOT
ATOM      1  N   UNL d   1      46.355 -18.918  43.650  0.00  0.00    -0.280 N 
ATOM      2  C   UNL d   1      46.205 -18.211  43.251  0.00  0.00     0.091 A 
ATOM      3  C   UNL d   1      46.015 -17.539  43.676  0.00  0.00     0.020 A 
ATOM      4  C   UNL d   1      45.972 -17.566  44.499  0.00  0.00     0.005 A 
ATOM      5  C   UNL d   1      45.867 -16.836  43.277  0.00  0.00     0.028 A 
ATOM      6  C   UNL d   1      46.312 -18.944  44.473  0.00  0.00     0.082 A 
ATOM      7  C   UNL d   1      45.674 -16.155  43.702  0.00  0.00     0.116 A 
ATOM      8  C   UNL d   1      45.781 -16.888  44.924  0.00  0.00     0.026 A 
ATOM      9  C   UNL d   1      45.631 -16.181  44.525  0.00  0.00     0.116 A 
ATOM     10  C   UNL d   1      46.119 -18.263  44.898  0.00  0.00     0.019 A 
ENDROOT
BRANCH   2  11
ATOM     11  C   UNL d   1      46.248 -18.185  42.428  0.00  0.00     0.140 C 
BRANCH  11  12
ATOM     12  O   UNL d   1      45.591 -18.392  41.973  0.00  0.00    -0.304 OA
BRANCH  12  13
ATOM     13  C   UNL d   1      45.545 -18.159  41.183  0.00  0.00     0.100 A 
ATOM     14  C   UNL d   1      46.227 -17.918  40.785  0.00  0.00     0.025 A 
ATOM     15  C   UNL d   1      46.181 -17.685  39.995  0.00  0.00     0.002 A 
ATOM     16  C   UNL d   1      45.454 -17.693  39.603  0.00  0.00     0.000 A 
ATOM     17  C   UNL d   1      44.773 -17.934  40.003  0.00  0.00     0.002 A 
ATOM     18  C   UNL d   1      44.818 -18.167  40.793  0.00  0.00     0.025 A 
BRANCH  16  19
ATOM     19  C   UNL d   1      45.408 -17.459  38.813  0.00  0.00     0.000 C 
ATOM     20  C   UNL d   1      45.451 -16.663  38.616  0.00  0.00     0.000 C 
ENDBRANCH  16  19
ENDBRANCH  12  13
ENDBRANCH  11  12
ENDBRANCH   2  11
BRANCH   1  21
ATOM     21  C   UNL d   1      46.549 -19.608  43.225  0.00  0.00     0.206 C 
ATOM     22  S   UNL d   1      46.645 -20.329  43.632  0.00  0.00    -0.038 SA
BRANCH  21  23
ATOM     23  N   UNL d   1      46.645 -19.577  42.414  0.00  0.00    -0.215 NA
ATOM     24  C   UNL d   1      46.574 -20.262  41.960  0.00  0.00     0.122 C 
ENDBRANCH  21  23
ENDBRANCH   1  21
BRANCH   7  25
ATOM     25  O   UNL d   1      45.524 -15.443  43.304  0.00  0.00    -0.326 OA
ATOM     26  C   UNL d   1      46.147 -14.924  43.113  0.00  0.00     0.181 C 
ENDBRANCH   7  25
BRANCH   9  27
ATOM     27  O   UNL d   1      45.438 -15.495  44.951  0.00  0.00    -0.326 OA
ATOM     28  C   UNL d   1      45.913 -14.813  44.891  0.00  0.00     0.181 C 
ENDBRANCH   9  27
TORSDOF 8
ENDMDL
MODEL 2
REMARK VINA RESULT:      50.1      1.730      4.128
REMARK  8 active torsions:
REMARK  status: ('A' for Active; 'I' for Inactive)
REMARK    1  A    between atoms: C_4  and  N_1 
REMARK    2  A    between atoms: C_10  and  C_2 
REMARK    3  A    between atoms: N_14  and  C_4 
REMARK    4  A    between atoms: O_17  and  C_8 
REMARK    5  A    between atoms: O_15  and  C_10 
REMARK    6  A    between atoms: O_18  and  C_11 
REMARK    7  A    between atoms: C_16  and  O_15 
REMARK    8  A    between atoms: C_25  and  C_19 
ROOT
ATOM      1  N   UNL d   1      45.566 -16.933  44.182  0.00  0.00    -0.280 N 
ATOM      2  C   UNL d   1      45.793 -16.782  43.403  0.00  0.00     0.091 A 
ATOM      3  C   UNL d   1      45.990 -17.402  42.911  0.00  0.00     0.020 A 
ATOM      4  C   UNL d   1      45.963 -18.179  43.188  0.00  0.00     0.005 A 
ATOM      5  C   UNL d   1      46.216 -17.249  42.136  0.00  0.00     0.028 A 
ATOM      6  C   UNL d   1      45.539 -17.710  44.459  0.00  0.00     0.082 A 
ATOM      7  C   UNL d   1      46.417 -17.873  41.634  0.00  0.00     0.116 A 
ATOM      8  C   UNL d   1      46.162 -18.802  42.690  0.00  0.00     0.026 A 
ATOM      9  C   UNL d   1      46.390 -18.650  41.911  0.00  0.00     0.116 A 
ATOM     10  C   UNL d   1      45.739 -18.335  43.958  0.00  0.00     0.019 A 
ENDROOT
BRANCH   2  11
ATOM     11  C   UNL d   1      45.820 -16.005  43.126  0.00  0.00     0.140 C 
BRANCH  11  12
ATOM     12  O   UNL d   1      45.766 -15.375  43.657  0.00  0.00    -0.304 OA
BRANCH  12  13
ATOM     13  C   UNL d   1      45.691 -14.603  43.375  0.00  0.00     0.100 A 
ATOM     14  C   UNL d   1      45.060 -14.133  43.623  0.00  0.00     0.025 A 
ATOM     15  C   UNL d   1      44.986 -13.361  43.341  0.00  0.00     0.002 A 
ATOM     16  C   UNL d   1      45.543 -13.060  42.810  0.00  0.00     0.000 A 
ATOM     17  C   UNL d   1      46.174 -13.531  42.563  0.00  0.00     0.002 A 
ATOM     18  C   UNL d   1      46.248 -14.303  42.845  0.00  0.00     0.025 A 
BRANCH  16  19
ATOM     19  C   UNL d   1      45.468 -12.288  42.528  0.00  0.00     0.000 C 
ATOM     20  C   UNL d   1      45.039 -12.139  41.843  0.00  0.00     0.000 C 
ENDBRANCH  16  19
ENDBRANCH  12  13
ENDBRANCH  11  12
ENDBRANCH   2  11
BRANCH   1  21
ATOM     21  C   UNL d   1      45.363 -16.306  44.692  0.00  0.00     0.206 C 
ATOM     22  S   UNL d   1      45.953 -15.777  44.950  0.00  0.00    -0.038 SA
BRANCH  21  23
ATOM     23  N   UNL d   1      44.589 -16.212  44.937  0.00  0.00    -0.215 NA
ATOM     24  C   UNL d   1      44.123 -15.609  44.620  0.00  0.00     0.122 C 
ENDBRANCH  21  23
ENDBRANCH   1  21
BRANCH   7  25
ATOM     25  O   UNL d   1      46.645 -17.723  40.851  0.00  0.00    -0.326 OA
ATOM     26  C   UNL d   1      46.122 -17.874  40.220  0.00  0.00     0.181 C 
ENDBRANCH   7  25
BRANCH   9  27
ATOM     27  O   UNL d   1      46.591 -19.276  41.406  0.00  0.00    -0.326 OA
ATOM     28  C   UNL d   1      46.586 -20.062  41.683  0.00  0.00     0.181 C 
ENDBRANCH   9  27
TORSDOF 8
ENDMDL
