MODEL 1
REMARK VINA RESULT:      16.1      0.000      0.000
REMARK  7 active torsions:
REMARK  status: ('A' for Active; 'I' for Inactive)
REMARK    1  A    between atoms: C_2  and  S_1 
REMARK    2  A    between atoms: N_7  and  S_1 
REMARK    3  A    between atoms: C_5  and  C_6 
REMARK    4  A    between atoms: C_6  and  C_8 
REMARK    5  A    between atoms: C_15  and  N_7 
REMARK    6  A    between atoms: C_8  and  C_12 
REMARK    7  A    between atoms: C_18  and  C_15 
ROOT
ATOM      1  C   UNL d   1     -58.785 -98.764 -44.702  0.00  0.00     0.105 A 
ATOM      2  C   UNL d   1     -58.997 -98.770 -43.914  0.00  0.00     0.012 A 
ATOM      3  C   UNL d   1     -57.972 -98.762 -44.916  0.00  0.00     0.013 A 
ATOM      4  C   UNL d   1     -57.396 -98.765 -44.327  0.00  0.00     0.001 A 
ATOM      5  C   UNL d   1     -58.421 -98.772 -43.325  0.00  0.00     0.001 A 
ATOM      6  C   UNL d   1     -57.629 -98.770 -43.519  0.00  0.00     0.000 A 
ATOM      7  C   UNL d   1     -59.821 -98.772 -43.710  0.00  0.00     0.001 C 
ENDROOT
BRANCH   1   8
ATOM      8  S   UNL d   1     -59.359 -98.762 -45.289  0.00  0.00     0.285 S 
ATOM      9  O   UNL d   1     -58.766 -98.755 -45.868  0.00  0.00    -0.198 OA
ATOM     10  O   UNL d   1     -59.960 -98.768 -44.702  0.00  0.00    -0.198 OA
BRANCH   8  11
ATOM     11  N   UNL d   1     -59.946 -98.759 -45.889  0.00  0.00    -0.153 NA
BRANCH  11  12
ATOM     12  C   UNL d   1     -59.724 -98.788 -46.686  0.00  0.00     0.157 C 
BRANCH  12  13
ATOM     13  C   UNL d   1     -59.952 -99.428 -47.155  0.00  0.00     0.256 C 
ATOM     14  O   UNL d   1     -59.913 -99.372 -47.980  0.00  0.00    -0.281 OA
ENDBRANCH  12  13
ENDBRANCH  11  12
ENDBRANCH   8  11
ENDBRANCH   1   8
BRANCH   4  15
ATOM     15  C   UNL d   1     -56.580 -98.762 -44.545  0.00  0.00     0.006 C 
BRANCH  15  16
ATOM     16  C   UNL d   1     -56.184 -99.479 -44.602  0.00  0.00     0.070 C 
BRANCH  16  17
ATOM     17  C   UNL d   1     -55.381 -99.497 -44.825  0.00  0.00     0.211 C 
ATOM     18  O   UNL d   1     -55.065 -98.855 -45.236  0.00  0.00    -0.644 OA
ATOM     19  O   UNL d   1     -54.914-100.144 -44.639  0.00  0.00    -0.644 OA
ENDBRANCH  16  17
ENDBRANCH  15  16
ENDBRANCH   4  15
TORSDOF 7
ENDMDL
