MODEL 1
REMARK VINA RESULT:      58.4      0.000      0.000
REMARK  3 active torsions:
REMARK  status: ('A' for Active; 'I' for Inactive)
REMARK    1  A    between atoms: C_6  and  C_1 
REMARK       I    between atoms: N_10  and  C_6 
REMARK    2  A    between atoms: C_23  and  N_10 
REMARK    3  A    between atoms: C_22  and  C_23 
ROOT
ATOM      1  C   UNL d   1     -49.926  26.937  33.657  0.00  0.00     0.266 C 
ATOM      2  N   UNL d   1     -49.353  26.872  34.239  0.00  0.00    -0.210 NA
ATOM      3  O   UNL d   1     -49.866  27.671  33.306  0.00  0.00    -0.269 OA
ENDROOT
BRANCH   1   4
ATOM      4  C   UNL d   1     -50.410  26.289  33.558  0.00  0.00     0.150 A 
ATOM      5  C   UNL d   1     -51.045  25.005  33.394  0.00  0.00     0.028 A 
ATOM      6  C   UNL d   1     -50.959  25.711  33.459  0.00  0.00     0.078 A 
ATOM      7  C   UNL d   1     -50.867  24.197  33.346  0.00  0.00     0.002 C 
ATOM      8  C   UNL d   1     -51.857  24.888  33.306  0.00  0.00     0.002 C 
ATOM      9  C   UNL d   1     -51.771  25.586  33.370  0.00  0.00     0.012 C 
ATOM     10  C   UNL d   1     -50.190  25.784  33.539  0.00  0.00    -0.023 A 
ATOM     11  C   UNL d   1     -51.614  26.193  33.434  0.00  0.00     0.211 A 
ATOM     12  C   UNL d   1     -49.678  26.264  33.627  0.00  0.00    -0.015 A 
ATOM     13  C   UNL d   1     -51.045  26.745  33.533  0.00  0.00     0.219 A 
ATOM     14  O   UNL d   1     -52.430  26.076  33.345  0.00  0.00    -0.288 OA
ATOM     15  O   UNL d   1     -51.695  27.235  33.509  0.00  0.00    -0.287 OA
ENDBRANCH   1   4
BRANCH   2  16
ATOM     16  C   UNL d   1     -48.835  27.501  34.382  0.00  0.00     0.102 C 
BRANCH  16  17
ATOM     17  C   UNL d   1     -48.585  28.060  34.930  0.00  0.00     0.021 A 
ATOM     18  C   UNL d   1     -48.138  28.711  34.678  0.00  0.00     0.028 A 
ATOM     19  C   UNL d   1     -47.883  29.280  35.233  0.00  0.00     0.119 A 
ATOM     20  O   UNL d   1     -47.443  29.967  35.154  0.00  0.00    -0.300 OA
ATOM     21  C   UNL d   1     -48.081  29.191  36.035  0.00  0.00     0.119 A 
ATOM     22  C   UNL d   1     -47.362  30.310  35.896  0.00  0.00     0.304 A 
ATOM     23  O   UNL d   1     -47.757  29.830  36.443  0.00  0.00    -0.300 OA
ATOM     24  C   UNL d   1     -48.528  28.538  36.276  0.00  0.00     0.026 A 
ATOM     25  C   UNL d   1     -48.780  27.974  35.728  0.00  0.00     0.004 A 
ENDBRANCH  16  17
ENDBRANCH   2  16
TORSDOF 3
ENDMDL
MODEL 2
REMARK VINA RESULT:      59.5      1.222      1.874
REMARK  3 active torsions:
REMARK  status: ('A' for Active; 'I' for Inactive)
REMARK    1  A    between atoms: C_6  and  C_1 
REMARK       I    between atoms: N_10  and  C_6 
REMARK    2  A    between atoms: C_23  and  N_10 
REMARK    3  A    between atoms: C_22  and  C_23 
ROOT
ATOM      1  C   UNL d   1     -51.030  26.153  33.341  0.00  0.00     0.266 C 
ATOM      2  N   UNL d   1     -50.216  26.243  33.383  0.00  0.00    -0.210 NA
ATOM      3  O   UNL d   1     -51.377  26.891  33.306  0.00  0.00    -0.269 OA
ENDROOT
BRANCH   1   4
ATOM      4  C   UNL d   1     -51.305  25.386  33.342  0.00  0.00     0.150 A 
ATOM      5  C   UNL d   1     -52.028  24.139  33.350  0.00  0.00     0.028 A 
ATOM      6  C   UNL d   1     -51.486  24.603  33.341  0.00  0.00     0.078 A 
ATOM      7  C   UNL d   1     -52.801  23.839  33.365  0.00  0.00     0.002 C 
ATOM      8  C   UNL d   1     -51.679  23.391  33.337  0.00  0.00     0.002 C 
ATOM      9  C   UNL d   1     -51.144  23.851  33.329  0.00  0.00     0.012 C 
ATOM     10  C   UNL d   1     -51.848  25.290  33.353  0.00  0.00    -0.023 A 
ATOM     11  C   UNL d   1     -50.724  24.320  33.322  0.00  0.00     0.211 A 
ATOM     12  C   UNL d   1     -51.729  25.987  33.355  0.00  0.00    -0.015 A 
ATOM     13  C   UNL d   1     -50.575  25.105  33.324  0.00  0.00     0.219 A 
ATOM     14  O   UNL d   1     -50.373  23.569  33.310  0.00  0.00    -0.288 OA
ATOM     15  O   UNL d   1     -49.808  24.831  33.306  0.00  0.00    -0.287 OA
ENDBRANCH   1   4
BRANCH   2  16
ATOM     16  C   UNL d   1     -49.883  26.999  33.385  0.00  0.00     0.102 C 
BRANCH  16  17
ATOM     17  C   UNL d   1     -49.517  27.575  33.843  0.00  0.00     0.021 A 
ATOM     18  C   UNL d   1     -48.970  27.349  34.425  0.00  0.00     0.028 A 
ATOM     19  C   UNL d   1     -48.596  27.931  34.892  0.00  0.00     0.119 A 
ATOM     20  O   UNL d   1     -48.044  27.881  35.495  0.00  0.00    -0.300 OA
ATOM     21  C   UNL d   1     -48.775  28.734  34.771  0.00  0.00     0.119 A 
ATOM     22  C   UNL d   1     -47.874  28.641  35.755  0.00  0.00     0.304 A 
ATOM     23  O   UNL d   1     -48.326  29.171  35.308  0.00  0.00    -0.300 OA
ATOM     24  C   UNL d   1     -49.322  28.948  34.189  0.00  0.00     0.026 A 
ATOM     25  C   UNL d   1     -49.692  28.373  33.726  0.00  0.00     0.004 A 
ENDBRANCH  16  17
ENDBRANCH   2  16
TORSDOF 3
ENDMDL
