MODEL 1
REMARK VINA RESULT:      35.0      0.000      0.000
REMARK  9 active torsions:
REMARK  status: ('A' for Active; 'I' for Inactive)
REMARK    1  A    between atoms: C_12  and  N_1 
REMARK    2  A    between atoms: C_13  and  N_2 
REMARK    3  A    between atoms: O_9  and  C_23 
REMARK    4  A    between atoms: C_10  and  O_9 
REMARK    5  A    between atoms: C_11  and  C_12 
REMARK    6  A    between atoms: C_18  and  C_13 
REMARK    7  A    between atoms: C_26  and  C_15 
REMARK    8  A    between atoms: C_16  and  C_26 
REMARK    9  A    between atoms: C_23  and  C_18 
ROOT
ATOM      1  N   UNL d   1      45.089 -12.106  42.199  0.00  0.00    -0.300 N 
ATOM      2  N   UNL d   1      44.971 -12.160  40.540  0.00  0.00    -0.297 N 
ATOM      3  C   UNL d   1      44.372 -12.128  41.838  0.00  0.00     0.100 A 
ATOM      4  C   UNL d   1      45.712 -12.138  40.891  0.00  0.00     0.100 A 
ATOM      5  C   UNL d   1      44.288 -12.155  41.015  0.00  0.00     0.100 A 
ATOM      6  C   UNL d   1      45.770 -12.111  41.721  0.00  0.00     0.100 A 
ENDROOT
BRANCH   2   7
ATOM      7  C   UNL d   1      44.901 -12.186  39.736  0.00  0.00     0.125 C 
BRANCH   7   8
ATOM      8  C   UNL d   1      44.662 -12.852  39.345  0.00  0.00     0.238 C 
ATOM      9  O   UNL d   1      43.916 -13.167  39.540  0.00  0.00    -0.283 OA
BRANCH   8  10
ATOM     10  C   UNL d   1      45.124 -13.197  38.792  0.00  0.00     0.166 C 
BRANCH  10  11
ATOM     11  O   UNL d   1      44.870 -13.883  38.401  0.00  0.00    -0.302 OA
BRANCH  11  12
ATOM     12  C   UNL d   1      45.337 -14.231  37.837  0.00  0.00     0.100 A 
ATOM     13  C   UNL d   1      45.023 -14.768  37.304  0.00  0.00     0.023 A 
ATOM     14  C   UNL d   1      45.487 -15.129  36.727  0.00  0.00     0.002 A 
ATOM     15  C   UNL d   1      46.295 -14.948  36.679  0.00  0.00     0.000 A 
ATOM     16  C   UNL d   1      46.631 -14.401  37.216  0.00  0.00     0.002 A 
ATOM     17  C   UNL d   1      46.138 -14.045  37.797  0.00  0.00     0.025 A 
BRANCH  13  18
ATOM     18  C   UNL d   1      44.232 -14.948  37.349  0.00  0.00     0.002 C 
BRANCH  18  19
ATOM     19  C   UNL d   1      43.901 -15.472  36.819  0.00  0.00     0.000 C 
ATOM     20  C   UNL d   1      43.086 -15.626  36.834  0.00  0.00     0.000 C 
ENDBRANCH  18  19
ENDBRANCH  13  18
ENDBRANCH  11  12
ENDBRANCH  10  11
ENDBRANCH   8  10
ENDBRANCH   7   8
ENDBRANCH   2   7
BRANCH   1  21
ATOM     21  C   UNL d   1      45.146 -12.080  43.005  0.00  0.00     0.080 C 
BRANCH  21  22
ATOM     22  C   UNL d   1      45.081 -12.775  43.422  0.00  0.00     0.020 A 
ATOM     23  C   UNL d   1      45.744 -13.113  43.745  0.00  0.00     0.028 A 
ATOM     24  C   UNL d   1      45.650 -13.822  44.166  0.00  0.00     0.119 A 
ATOM     25  O   UNL d   1      46.233 -14.264  44.540  0.00  0.00    -0.300 OA
ATOM     26  C   UNL d   1      44.920 -14.168  44.252  0.00  0.00     0.119 A 
ATOM     27  C   UNL d   1      45.856 -14.937  44.889  0.00  0.00     0.304 A 
ATOM     28  O   UNL d   1      45.039 -14.861  44.700  0.00  0.00    -0.300 OA
ATOM     29  C   UNL d   1      44.244 -13.824  43.922  0.00  0.00     0.026 A 
ATOM     30  C   UNL d   1      44.332 -13.119  43.503  0.00  0.00     0.004 A 
ENDBRANCH  21  22
ENDBRANCH   1  21
TORSDOF 9
ENDMDL
