MODEL 1
REMARK VINA RESULT:      -1.8      0.000      0.000
REMARK  4 active torsions:
REMARK  status: ('A' for Active; 'I' for Inactive)
REMARK    1  A    between atoms: C_7  and  C_1 
REMARK    2  A    between atoms: C_12  and  C_6 
REMARK       I    between atoms: N_11  and  C_7 
REMARK    3  A    between atoms: C_20  and  N_11 
REMARK       I    between atoms: C_13  and  N_14 
REMARK    4  A    between atoms: N_14  and  C_21 
ROOT
ATOM      1  C   UNL d   1     -39.382  15.287  19.491  0.00  0.00     0.108 A 
ATOM      2  C   UNL d   1     -39.886  15.103  18.391  0.00  0.00     0.044 A 
ATOM      3  C   UNL d   1     -39.335  14.924  18.865  0.00  0.00     0.116 A 
ATOM      4  C   UNL d   1     -40.325  15.622  18.737  0.00  0.00     0.112 A 
ATOM      5  S   UNL d   1     -40.015  15.743  19.428  0.00  0.00    -0.061 SA
ATOM      6  C   UNL d   1     -40.061  14.863  17.673  0.00  0.00     0.005 A 
ATOM      7  N   UNL d   1     -40.954  15.920  18.376  0.00  0.00    -0.239 NA
ATOM      8  C   UNL d   1     -40.682  15.152  17.306  0.00  0.00     0.018 A 
ATOM      9  C   UNL d   1     -41.121  15.671  17.652  0.00  0.00     0.082 A 
ATOM     10  N   UNL d   1     -38.640  14.319  18.734  0.00  0.00    -0.147 N 
ATOM     11  C   UNL d   1     -40.993  14.991  16.539  0.00  0.00     0.002 A 
ATOM     12  C   UNL d   1     -41.732  15.902  17.190  0.00  0.00     0.019 A 
ATOM     13  C   UNL d   1     -41.647  15.454  16.456  0.00  0.00     0.002 A 
ENDROOT
BRANCH   1  14
ATOM     14  C   UNL d   1     -38.787  15.250  20.302  0.00  0.00     0.287 C 
ATOM     15  N   UNL d   1     -38.662  14.872  21.208  0.00  0.00    -0.208 NA
ATOM     16  O   UNL d   1     -38.057  15.788  20.137  0.00  0.00    -0.265 OA
BRANCH  15  17
ATOM     17  C   UNL d   1     -39.236  14.352  21.530  0.00  0.00     0.085 A 
ATOM     18  C   UNL d   1     -39.941  14.675  21.824  0.00  0.00     0.021 A 
ATOM     19  C   UNL d   1     -40.528  14.170  22.151  0.00  0.00     0.021 A 
ATOM     20  C   UNL d   1     -40.407  13.346  22.181  0.00  0.00     0.085 A 
ATOM     21  C   UNL d   1     -39.703  13.033  21.886  0.00  0.00     0.021 A 
ATOM     22  C   UNL d   1     -39.120  13.533  21.562  0.00  0.00     0.021 A 
BRANCH  20  23
ATOM     23  N   UNL d   1     -41.126  12.760  22.577  0.00  0.00    -0.208 NA
ATOM     24  C   UNL d   1     -42.134  12.725  21.925  0.00  0.00     0.279 C 
ATOM     25  O   UNL d   1     -42.951  12.074  22.353  0.00  0.00    -0.265 OA
ATOM     26  C   UNL d   1     -42.488  13.332  20.750  0.00  0.00     0.068 C 
ENDBRANCH  20  23
ENDBRANCH  15  17
ENDBRANCH   1  14
BRANCH   6  27
ATOM     27  C   UNL d   1     -39.592  14.307  17.303  0.00  0.00     0.000 A 
ATOM     28  C   UNL d   1     -39.615  13.529  17.556  0.00  0.00     0.000 A 
ATOM     29  C   UNL d   1     -39.146  12.973  17.186  0.00  0.00     0.000 A 
ATOM     30  C   UNL d   1     -38.647  13.167  16.565  0.00  0.00     0.000 A 
ATOM     31  C   UNL d   1     -38.622  13.937  16.312  0.00  0.00     0.000 A 
ATOM     32  C   UNL d   1     -37.940  12.376  15.995  0.00  0.00     0.000 C 
ATOM     33  C   UNL d   1     -39.090  14.521  16.672  0.00  0.00     0.000 A 
ENDBRANCH   6  27
TORSDOF 4
ENDMDL
MODEL 2
REMARK VINA RESULT:      -1.2      4.730      8.038
REMARK  4 active torsions:
REMARK  status: ('A' for Active; 'I' for Inactive)
REMARK    1  A    between atoms: C_7  and  C_1 
REMARK    2  A    between atoms: C_12  and  C_6 
REMARK       I    between atoms: N_11  and  C_7 
REMARK    3  A    between atoms: C_20  and  N_11 
REMARK       I    between atoms: C_13  and  N_14 
REMARK    4  A    between atoms: N_14  and  C_21 
ROOT
ATOM      1  C   UNL d   1     -45.563  12.786  22.725  0.00  0.00     0.108 A 
ATOM      2  C   UNL d   1     -46.645  13.356  22.705  0.00  0.00     0.044 A 
ATOM      3  C   UNL d   1     -46.282  12.706  22.778  0.00  0.00     0.116 A 
ATOM      4  C   UNL d   1     -46.121  13.900  22.596  0.00  0.00     0.112 A 
ATOM      5  S   UNL d   1     -45.440  13.550  22.608  0.00  0.00    -0.061 SA
ATOM      6  C   UNL d   1     -47.400  13.542  22.721  0.00  0.00     0.005 A 
ATOM      7  N   UNL d   1     -46.334  14.648  22.500  0.00  0.00    -0.239 NA
ATOM      8  C   UNL d   1     -47.621  14.281  22.627  0.00  0.00     0.018 A 
ATOM      9  C   UNL d   1     -47.097  14.825  22.518  0.00  0.00     0.082 A 
ATOM     10  N   UNL d   1     -46.643  11.860  22.921  0.00  0.00    -0.147 N 
ATOM     11  C   UNL d   1     -48.390  14.629  22.620  0.00  0.00     0.002 A 
ATOM     12  C   UNL d   1     -47.429  15.547  22.433  0.00  0.00     0.019 A 
ATOM     13  C   UNL d   1     -48.281  15.418  22.500  0.00  0.00     0.002 A 
ENDROOT
BRANCH   1  14
ATOM     14  C   UNL d   1     -44.834  12.094  22.784  0.00  0.00     0.287 C 
ATOM     15  N   UNL d   1     -43.929  11.833  22.479  0.00  0.00    -0.208 NA
ATOM     16  O   UNL d   1     -45.123  11.431  23.354  0.00  0.00    -0.265 OA
BRANCH  15  17
ATOM     17  C   UNL d   1     -43.505  12.324  21.947  0.00  0.00     0.085 A 
ATOM     18  C   UNL d   1     -42.841  12.731  22.231  0.00  0.00     0.021 A 
ATOM     19  C   UNL d   1     -42.404  13.229  21.713  0.00  0.00     0.021 A 
ATOM     20  C   UNL d   1     -42.631  13.315  20.917  0.00  0.00     0.085 A 
ATOM     21  C   UNL d   1     -43.294  12.906  20.643  0.00  0.00     0.021 A 
ATOM     22  C   UNL d   1     -43.729  12.413  21.155  0.00  0.00     0.021 A 
BRANCH  20  23
ATOM     23  N   UNL d   1     -42.091  13.917  20.315  0.00  0.00    -0.208 NA
ATOM     24  C   UNL d   1     -40.978  14.126  20.715  0.00  0.00     0.279 C 
ATOM     25  O   UNL d   1     -40.357  14.798  20.054  0.00  0.00    -0.265 OA
ATOM     26  C   UNL d   1     -40.310  13.701  21.832  0.00  0.00     0.068 C 
ENDBRANCH  20  23
ENDBRANCH  15  17
ENDBRANCH   1  14
BRANCH   6  27
ATOM     27  C   UNL d   1     -47.961  12.961  22.837  0.00  0.00     0.000 A 
ATOM     28  C   UNL d   1     -48.295  12.589  22.187  0.00  0.00     0.000 A 
ATOM     29  C   UNL d   1     -48.855  12.007  22.303  0.00  0.00     0.000 A 
ATOM     30  C   UNL d   1     -49.099  11.779  23.052  0.00  0.00     0.000 A 
ATOM     31  C   UNL d   1     -48.770  12.145  23.696  0.00  0.00     0.000 A 
ATOM     32  C   UNL d   1     -49.922  10.926  23.264  0.00  0.00     0.000 C 
ATOM     33  C   UNL d   1     -48.198  12.740  23.605  0.00  0.00     0.000 A 
ENDBRANCH   6  27
TORSDOF 4
ENDMDL
MODEL 3
REMARK VINA RESULT:       0.1      5.103      7.939
REMARK  4 active torsions:
REMARK  status: ('A' for Active; 'I' for Inactive)
REMARK    1  A    between atoms: C_7  and  C_1 
REMARK    2  A    between atoms: C_12  and  C_6 
REMARK       I    between atoms: N_11  and  C_7 
REMARK    3  A    between atoms: C_20  and  N_11 
REMARK       I    between atoms: C_13  and  N_14 
REMARK    4  A    between atoms: N_14  and  C_21 
ROOT
ATOM      1  C   UNL d   1     -46.086  13.579  22.661  0.00  0.00     0.108 A 
ATOM      2  C   UNL d   1     -45.243  12.692  22.667  0.00  0.00     0.044 A 
ATOM      3  C   UNL d   1     -45.442  13.364  22.406  0.00  0.00     0.116 A 
ATOM      4  C   UNL d   1     -45.802  12.451  23.128  0.00  0.00     0.112 A 
ATOM      5  S   UNL d   1     -46.334  13.002  23.129  0.00  0.00    -0.061 SA
ATOM      6  C   UNL d   1     -44.617  12.246  22.552  0.00  0.00     0.005 A 
ATOM      7  N   UNL d   1     -45.753  11.757  23.489  0.00  0.00    -0.239 NA
ATOM      8  C   UNL d   1     -44.559  11.556  22.905  0.00  0.00     0.018 A 
ATOM      9  C   UNL d   1     -45.117  11.316  23.366  0.00  0.00     0.082 A 
ATOM     10  N   UNL d   1     -44.971  13.914  21.822  0.00  0.00    -0.147 N 
ATOM     11  C   UNL d   1     -43.950  10.974  22.877  0.00  0.00     0.002 A 
ATOM     12  C   UNL d   1     -44.959  10.596  23.677  0.00  0.00     0.019 A 
ATOM     13  C   UNL d   1     -44.189  10.371  23.355  0.00  0.00     0.002 A 
ENDROOT
BRANCH   1  14
ATOM     14  C   UNL d   1     -46.598  14.427  22.483  0.00  0.00     0.287 C 
ATOM     15  N   UNL d   1     -47.493  14.848  22.440  0.00  0.00    -0.208 NA
ATOM     16  O   UNL d   1     -45.986  15.084  22.276  0.00  0.00    -0.265 OA
BRANCH  15  17
ATOM     17  C   UNL d   1     -48.180  14.395  22.602  0.00  0.00     0.085 A 
ATOM     18  C   UNL d   1     -48.540  13.988  21.976  0.00  0.00     0.021 A 
ATOM     19  C   UNL d   1     -49.230  13.529  22.118  0.00  0.00     0.021 A 
ATOM     20  C   UNL d   1     -49.554  13.479  22.884  0.00  0.00     0.085 A 
ATOM     21  C   UNL d   1     -49.189  13.887  23.501  0.00  0.00     0.021 A 
ATOM     22  C   UNL d   1     -48.505  14.343  23.361  0.00  0.00     0.021 A 
BRANCH  20  23
ATOM     23  N   UNL d   1     -50.382  12.922  23.031  0.00  0.00    -0.208 NA
ATOM     24  C   UNL d   1     -50.150  11.771  23.286  0.00  0.00     0.279 C 
ATOM     25  O   UNL d   1     -51.064  11.131  23.454  0.00  0.00    -0.265 OA
ATOM     26  C   UNL d   1     -48.975  11.079  23.414  0.00  0.00     0.068 C 
ENDBRANCH  20  23
ENDBRANCH  15  17
ENDBRANCH   1  14
BRANCH   6  27
ATOM     27  C   UNL d   1     -44.019  12.503  22.059  0.00  0.00     0.000 A 
ATOM     28  C   UNL d   1     -43.314  12.763  22.384  0.00  0.00     0.000 A 
ATOM     29  C   UNL d   1     -42.716  13.020  21.891  0.00  0.00     0.000 A 
ATOM     30  C   UNL d   1     -42.797  13.028  21.076  0.00  0.00     0.000 A 
ATOM     31  C   UNL d   1     -43.494  12.772  20.751  0.00  0.00     0.000 A 
ATOM     32  C   UNL d   1     -41.939  13.400  20.316  0.00  0.00     0.000 C 
ATOM     33  C   UNL d   1     -44.117  12.505  21.231  0.00  0.00     0.000 A 
ENDBRANCH   6  27
TORSDOF 4
ENDMDL
MODEL 4
REMARK VINA RESULT:       0.8      5.466      8.695
REMARK  4 active torsions:
REMARK  status: ('A' for Active; 'I' for Inactive)
REMARK    1  A    between atoms: C_7  and  C_1 
REMARK    2  A    between atoms: C_12  and  C_6 
REMARK       I    between atoms: N_11  and  C_7 
REMARK    3  A    between atoms: C_20  and  N_11 
REMARK       I    between atoms: C_13  and  N_14 
REMARK    4  A    between atoms: N_14  and  C_21 
ROOT
ATOM      1  C   UNL d   1     -46.932  12.166  23.216  0.00  0.00     0.108 A 
ATOM      2  C   UNL d   1     -47.563  13.135  22.820  0.00  0.00     0.044 A 
ATOM      3  C   UNL d   1     -47.525  12.389  22.865  0.00  0.00     0.116 A 
ATOM      4  C   UNL d   1     -46.947  13.417  23.170  0.00  0.00     0.112 A 
ATOM      5  S   UNL d   1     -46.545  12.815  23.421  0.00  0.00    -0.061 SA
ATOM      6  C   UNL d   1     -48.084  13.618  22.502  0.00  0.00     0.005 A 
ATOM      7  N   UNL d   1     -46.830  14.192  23.214  0.00  0.00    -0.239 NA
ATOM      8  C   UNL d   1     -47.977  14.387  22.541  0.00  0.00     0.018 A 
ATOM      9  C   UNL d   1     -47.360  14.669  22.891  0.00  0.00     0.082 A 
ATOM     10  N   UNL d   1     -48.128  11.764  22.533  0.00  0.00    -0.147 N 
ATOM     11  C   UNL d   1     -48.447  15.023  22.248  0.00  0.00     0.002 A 
ATOM     12  C   UNL d   1     -47.347  15.468  22.874  0.00  0.00     0.019 A 
ATOM     13  C   UNL d   1     -48.063  15.701  22.451  0.00  0.00     0.002 A 
ENDROOT
BRANCH   1  14
ATOM     14  C   UNL d   1     -46.622  11.230  23.425  0.00  0.00     0.287 C 
ATOM     15  N   UNL d   1     -45.849  10.614  23.459  0.00  0.00    -0.208 NA
ATOM     16  O   UNL d   1     -47.359  10.746  23.695  0.00  0.00    -0.265 OA
BRANCH  15  17
ATOM     17  C   UNL d   1     -45.084  10.885  23.245  0.00  0.00     0.085 A 
ATOM     18  C   UNL d   1     -44.433  10.401  23.414  0.00  0.00     0.021 A 
ATOM     19  C   UNL d   1     -43.659  10.656  23.207  0.00  0.00     0.021 A 
ATOM     20  C   UNL d   1     -43.541  11.390  22.832  0.00  0.00     0.085 A 
ATOM     21  C   UNL d   1     -44.196  11.865  22.667  0.00  0.00     0.021 A 
ATOM     22  C   UNL d   1     -44.964  11.614  22.872  0.00  0.00     0.021 A 
BRANCH  20  23
ATOM     23  N   UNL d   1     -42.604  11.674  22.593  0.00  0.00    -0.208 NA
ATOM     24  C   UNL d   1     -42.560  12.539  21.760  0.00  0.00     0.279 C 
ATOM     25  O   UNL d   1     -41.518  12.871  21.479  0.00  0.00    -0.265 OA
ATOM     26  C   UNL d   1     -43.542  13.208  21.080  0.00  0.00     0.068 C 
ENDBRANCH  20  23
ENDBRANCH  15  17
ENDBRANCH   1  14
BRANCH   6  27
ATOM     27  C   UNL d   1     -48.743  13.317  22.128  0.00  0.00     0.000 A 
ATOM     28  C   UNL d   1     -48.691  13.088  21.343  0.00  0.00     0.000 A 
ATOM     29  C   UNL d   1     -49.350  12.786  20.969  0.00  0.00     0.000 A 
ATOM     30  C   UNL d   1     -50.070  12.703  21.353  0.00  0.00     0.000 A 
ATOM     31  C   UNL d   1     -50.125  12.928  22.130  0.00  0.00     0.000 A 
ATOM     32  C   UNL d   1     -51.064  12.263  20.835  0.00  0.00     0.000 C 
ATOM     33  C   UNL d   1     -49.468  13.238  22.533  0.00  0.00     0.000 A 
ENDBRANCH   6  27
TORSDOF 4
ENDMDL
