MODEL 1
REMARK VINA RESULT:      57.7      0.000      0.000
REMARK  9 active torsions:
REMARK  status: ('A' for Active; 'I' for Inactive)
REMARK    1  A    between atoms: N_2  and  S_1 
REMARK    2  A    between atoms: C_9  and  S_1 
REMARK    3  A    between atoms: C_4  and  N_2 
REMARK    4  A    between atoms: O_24  and  C_6 
REMARK    5  A    between atoms: O_26  and  C_7 
REMARK       I    between atoms: C_12  and  N_15 
REMARK    6  A    between atoms: C_22  and  C_12 
REMARK    7  A    between atoms: C_14  and  O_16 
REMARK    8  A    between atoms: N_15  and  C_23 
REMARK    9  A    between atoms: O_16  and  C_22 
ROOT
ATOM      1  C   UNL d   1      14.882  15.663  -1.433  0.00  0.00     0.105 A 
ATOM      2  C   UNL d   1      14.741  15.449  -2.211  0.00  0.00     0.015 A 
ATOM      3  C   UNL d   1      15.100  16.444  -1.247  0.00  0.00     0.015 A 
ATOM      4  C   UNL d   1      15.029  16.775  -2.629  0.00  0.00     0.085 A 
ATOM      5  C   UNL d   1      14.809  15.991  -2.831  0.00  0.00     0.020 A 
ATOM      6  C   UNL d   1      15.169  16.989  -1.857  0.00  0.00     0.020 A 
ENDROOT
BRANCH   1   7
ATOM      7  S   UNL d   1      14.813  15.118  -0.822  0.00  0.00     0.287 S 
ATOM      8  O   UNL d   1      15.331  15.596  -0.339  0.00  0.00    -0.198 OA
ATOM      9  O   UNL d   1      14.309  14.639  -1.274  0.00  0.00    -0.198 OA
BRANCH   7  10
ATOM     10  N   UNL d   1      14.759  14.576  -0.184  0.00  0.00    -0.139 NA
BRANCH  10  11
ATOM     11  C   UNL d   1      14.779  13.768  -0.302  0.00  0.00     0.182 A 
ATOM     12  N   UNL d   1      15.424  13.417  -0.621  0.00  0.00    -0.185 NA
ATOM     13  C   UNL d   1      15.459  12.590  -0.748  0.00  0.00     0.274 A 
ATOM     14  N   UNL d   1      14.821  12.130  -0.542  0.00  0.00    -0.181 NA
ATOM     15  C   UNL d   1      14.157  12.465  -0.217  0.00  0.00     0.185 A 
ATOM     16  C   UNL d   1      14.136  13.317  -0.093  0.00  0.00     0.084 A 
BRANCH  13  17
ATOM     17  O   UNL d   1      16.137  12.225  -1.083  0.00  0.00    -0.297 OA
ATOM     18  C   UNL d   1      16.680  12.665  -1.519  0.00  0.00     0.185 C 
ENDBRANCH  13  17
BRANCH  15  19
ATOM     19  O   UNL d   1      13.517  11.963  -0.015  0.00  0.00    -0.312 OA
ATOM     20  C   UNL d   1      12.954  11.781  -0.606  0.00  0.00     0.183 C 
ENDBRANCH  15  19
ENDBRANCH  10  11
ENDBRANCH   7  10
ENDBRANCH   1   7
BRANCH   4  21
ATOM     21  N   UNL d   1      15.106  17.346  -3.227  0.00  0.00    -0.206 NA
ATOM     22  C   UNL d   1      15.287  17.079  -4.002  0.00  0.00     0.304 C 
ATOM     23  O   UNL d   1      15.380  16.309  -4.150  0.00  0.00    -0.263 OA
BRANCH  22  24
ATOM     24  C   UNL d   1      15.364  17.647  -4.596  0.00  0.00     0.185 C 
BRANCH  24  25
ATOM     25  O   UNL d   1      14.739  17.811  -5.103  0.00  0.00    -0.300 OA
BRANCH  25  26
ATOM     26  C   UNL d   1      14.618  18.606  -5.344  0.00  0.00     0.100 A 
ATOM     27  C   UNL d   1      14.033  18.824  -5.879  0.00  0.00     0.023 A 
ATOM     28  C   UNL d   1      13.927  19.600  -6.105  0.00  0.00     0.002 A 
ATOM     29  C   UNL d   1      13.516  18.237  -6.217  0.00  0.00     0.002 C 
ATOM     30  C   UNL d   1      14.404  20.173  -5.799  0.00  0.00     0.000 A 
ATOM     31  C   UNL d   1      15.007  19.991  -5.254  0.00  0.00     0.002 A 
ATOM     32  C   UNL d   1      14.309  20.973  -6.019  0.00  0.00     0.000 C 
ATOM     33  C   UNL d   1      15.114  19.215  -5.028  0.00  0.00     0.025 A 
ENDBRANCH  25  26
ENDBRANCH  24  25
ENDBRANCH  22  24
ENDBRANCH   4  21
TORSDOF 9
ENDMDL
MODEL 2
REMARK VINA RESULT:      58.7      2.117      2.516
REMARK  9 active torsions:
REMARK  status: ('A' for Active; 'I' for Inactive)
REMARK    1  A    between atoms: N_2  and  S_1 
REMARK    2  A    between atoms: C_9  and  S_1 
REMARK    3  A    between atoms: C_4  and  N_2 
REMARK    4  A    between atoms: O_24  and  C_6 
REMARK    5  A    between atoms: O_26  and  C_7 
REMARK       I    between atoms: C_12  and  N_15 
REMARK    6  A    between atoms: C_22  and  C_12 
REMARK    7  A    between atoms: C_14  and  O_16 
REMARK    8  A    between atoms: N_15  and  C_23 
REMARK    9  A    between atoms: O_16  and  C_22 
ROOT
ATOM      1  C   UNL d   1      13.374  13.693  -4.422  0.00  0.00     0.105 A 
ATOM      2  C   UNL d   1      12.923  13.873  -5.081  0.00  0.00     0.015 A 
ATOM      3  C   UNL d   1      13.968  14.216  -4.167  0.00  0.00     0.015 A 
ATOM      4  C   UNL d   1      13.640  15.087  -5.244  0.00  0.00     0.085 A 
ATOM      5  C   UNL d   1      13.038  14.568  -5.511  0.00  0.00     0.020 A 
ATOM      6  C   UNL d   1      14.090  14.909  -4.589  0.00  0.00     0.020 A 
ENDROOT
BRANCH   1   7
ATOM      7  S   UNL d   1      13.253  12.998  -3.999  0.00  0.00     0.287 S 
ATOM      8  O   UNL d   1      12.960  13.454  -3.339  0.00  0.00    -0.198 OA
ATOM      9  O   UNL d   1      13.535  12.537  -4.629  0.00  0.00    -0.198 OA
BRANCH   7  10
ATOM     10  N   UNL d   1      13.121  12.303  -3.548  0.00  0.00    -0.139 NA
BRANCH  10  11
ATOM     11  C   UNL d   1      13.487  12.181  -2.829  0.00  0.00     0.182 A 
ATOM     12  N   UNL d   1      14.286  12.189  -2.768  0.00  0.00    -0.185 NA
ATOM     13  C   UNL d   1      14.674  12.065  -2.037  0.00  0.00     0.274 A 
ATOM     14  N   UNL d   1      14.230  11.932  -1.370  0.00  0.00    -0.181 NA
ATOM     15  C   UNL d   1      13.420  11.919  -1.408  0.00  0.00     0.185 A 
ATOM     16  C   UNL d   1      13.034  12.049  -2.167  0.00  0.00     0.084 A 
BRANCH  13  17
ATOM     17  O   UNL d   1      15.511  12.075  -1.978  0.00  0.00    -0.297 OA
ATOM     18  C   UNL d   1      15.881  12.268  -1.267  0.00  0.00     0.185 C 
ENDBRANCH  13  17
BRANCH  15  19
ATOM     19  O   UNL d   1      12.991  11.779  -0.701  0.00  0.00    -0.312 OA
ATOM     20  C   UNL d   1      13.209  12.203  -0.014  0.00  0.00     0.183 C 
ENDBRANCH  15  19
ENDBRANCH  10  11
ENDBRANCH   7  10
ENDBRANCH   1   7
BRANCH   4  21
ATOM     21  N   UNL d   1      13.784  15.795  -5.652  0.00  0.00    -0.206 NA
ATOM     22  C   UNL d   1      14.071  16.450  -5.210  0.00  0.00     0.304 C 
ATOM     23  O   UNL d   1      14.198  16.385  -4.433  0.00  0.00    -0.263 OA
BRANCH  22  24
ATOM     24  C   UNL d   1      14.214  17.154  -5.615  0.00  0.00     0.185 C 
BRANCH  24  25
ATOM     25  O   UNL d   1      13.686  17.781  -5.566  0.00  0.00    -0.300 OA
BRANCH  25  26
ATOM     26  C   UNL d   1      13.979  18.560  -5.677  0.00  0.00     0.100 A 
ATOM     27  C   UNL d   1      13.552  19.143  -6.070  0.00  0.00     0.023 A 
ATOM     28  C   UNL d   1      13.848  19.896  -6.171  0.00  0.00     0.002 A 
ATOM     29  C   UNL d   1      12.779  18.974  -6.386  0.00  0.00     0.002 C 
ATOM     30  C   UNL d   1      14.578  20.079  -5.881  0.00  0.00     0.000 A 
ATOM     31  C   UNL d   1      15.040  19.515  -5.478  0.00  0.00     0.002 A 
ATOM     32  C   UNL d   1      14.897  20.845  -5.975  0.00  0.00     0.000 C 
ATOM     33  C   UNL d   1      14.744  18.762  -5.377  0.00  0.00     0.025 A 
ENDBRANCH  25  26
ENDBRANCH  24  25
ENDBRANCH  22  24
ENDBRANCH   4  21
TORSDOF 9
ENDMDL
