MODEL 1
REMARK VINA RESULT:      65.1      0.000      0.000
REMARK  4 active torsions:
REMARK  status: ('A' for Active; 'I' for Inactive)
REMARK    1  A    between atoms: C_8  and  N_1 
REMARK    2  A    between atoms: C_11  and  C_13 
REMARK       I    between atoms: N_14  and  C_11 
REMARK    3  A    between atoms: C_18  and  N_14 
REMARK    4  A    between atoms: C_20  and  C_18 
ROOT
ATOM      1  C   UNL d   1     -50.259  25.804  33.419  0.00  0.00     0.066 A 
ATOM      2  C   UNL d   1     -50.125  26.607  33.548  0.00  0.00     0.022 A 
ATOM      3  C   UNL d   1     -49.346  26.892  33.566  0.00  0.00     0.059 A 
ATOM      4  C   UNL d   1     -49.624  25.281  33.308  0.00  0.00     0.017 A 
ATOM      5  C   UNL d   1     -48.712  26.369  33.455  0.00  0.00     0.005 A 
ATOM      6  C   UNL d   1     -48.855  25.569  33.328  0.00  0.00     0.002 A 
ENDROOT
BRANCH   1   7
ATOM      7  N   UNL d   1     -51.028  25.516  33.400  0.00  0.00    -0.261 N 
ATOM      8  C   UNL d   1     -51.059  24.694  33.397  0.00  0.00     0.174 A 
ATOM      9  O   UNL d   1     -51.671  24.134  33.381  0.00  0.00    -0.316 OA
ATOM     10  C   UNL d   1     -51.975  25.547  33.378  0.00  0.00     0.079 A 
ATOM     11  C   UNL d   1     -50.401  24.204  33.411  0.00  0.00     0.055 C 
ATOM     12  C   UNL d   1     -52.493  24.164  33.362  0.00  0.00     0.094 A 
ATOM     13  C   UNL d   1     -52.750  23.375  33.353  0.00  0.00     0.024 A 
ATOM     14  C   UNL d   1     -53.053  24.771  33.350  0.00  0.00     0.022 A 
ATOM     15  C   UNL d   1     -53.554  23.201  33.334  0.00  0.00     0.002 A 
ATOM     16  C   UNL d   1     -54.109  23.812  33.322  0.00  0.00    -0.000 A 
ATOM     17  C   UNL d   1     -53.859  24.597  33.330  0.00  0.00    -0.001 A 
ATOM     18  C   UNL d   1     -53.023  25.593  33.353  0.00  0.00     0.137 A 
ATOM     19  N   UNL d   1     -52.413  26.162  33.369  0.00  0.00    -0.216 NA
ATOM     20  C   UNL d   1     -51.592  26.131  33.389  0.00  0.00     0.348 A 
ATOM     21  O   UNL d   1     -51.246  26.873  33.399  0.00  0.00    -0.245 OA
ENDBRANCH   1   7
BRANCH   3  22
ATOM     22  C   UNL d   1     -49.212  27.695  33.695  0.00  0.00     0.279 C 
ATOM     23  N   UNL d   1     -48.606  27.935  34.197  0.00  0.00    -0.206 NA
ATOM     24  O   UNL d   1     -49.689  28.255  33.317  0.00  0.00    -0.265 OA
BRANCH  23  25
ATOM     25  C   UNL d   1     -48.473  28.743  34.325  0.00  0.00     0.102 C 
BRANCH  25  26
ATOM     26  C   UNL d   1     -48.142  28.993  35.035  0.00  0.00     0.019 A 
ATOM     27  C   UNL d   1     -47.409  29.374  35.045  0.00  0.00     0.002 A 
ATOM     28  C   UNL d   1     -47.086  29.622  35.761  0.00  0.00     0.000 A 
ATOM     29  C   UNL d   1     -47.484  29.495  36.470  0.00  0.00     0.000 A 
ATOM     30  C   UNL d   1     -48.221  29.112  36.458  0.00  0.00     0.000 A 
ATOM     31  C   UNL d   1     -48.548  28.863  35.746  0.00  0.00     0.002 A 
ENDBRANCH  25  26
ENDBRANCH  23  25
ENDBRANCH   3  22
TORSDOF 4
ENDMDL
