MODEL 1
REMARK VINA RESULT:      72.6      0.000      0.000
REMARK  5 active torsions:
REMARK  status: ('A' for Active; 'I' for Inactive)
REMARK    1  A    between atoms: C_8  and  C_1 
REMARK    2  A    between atoms: C_6  and  O_10 
REMARK       I    between atoms: N_7  and  C_6 
REMARK    3  A    between atoms: C_15  and  C_8 
REMARK    4  A    between atoms: O_10  and  C_12 
REMARK    5  A    between atoms: C_27  and  C_18 
ROOT
ATOM      1  C   UNL d   1     -56.195-102.557 -39.854  0.00  0.00     0.139 A 
ATOM      2  C   UNL d   1     -55.354-102.167 -40.827  0.00  0.00     0.064 A 
ATOM      3  C   UNL d   1     -55.404-102.536 -40.090  0.00  0.00     0.220 A 
ATOM      4  C   UNL d   1     -56.115-101.956 -41.055  0.00  0.00     0.105 A 
ATOM      5  O   UNL d   1     -56.645-102.195 -40.455  0.00  0.00    -0.304 OA
ATOM      6  C   UNL d   1     -56.238-101.576 -41.772  0.00  0.00     0.050 A 
ATOM      7  C   UNL d   1     -54.712-102.000 -41.313  0.00  0.00     0.007 A 
ATOM      8  C   UNL d   1     -55.603-101.410 -42.253  0.00  0.00     0.107 A 
ATOM      9  O   UNL d   1     -54.765-102.841 -39.647  0.00  0.00    -0.284 OA
ATOM     10  C   UNL d   1     -54.839-101.618 -42.032  0.00  0.00     0.025 A 
ENDROOT
BRANCH   1  11
ATOM     11  C   UNL d   1     -56.494-102.877 -39.154  0.00  0.00     0.028 C 
BRANCH  11  12
ATOM     12  C   UNL d   1     -56.103-102.745 -38.441  0.00  0.00     0.002 A 
ATOM     13  C   UNL d   1     -55.281-102.747 -38.417  0.00  0.00     0.000 A 
ATOM     14  C   UNL d   1     -54.877-102.616 -37.706  0.00  0.00     0.000 A 
ATOM     15  C   UNL d   1     -55.313-102.482 -37.013  0.00  0.00     0.000 A 
ATOM     16  C   UNL d   1     -56.143-102.479 -37.037  0.00  0.00     0.000 A 
ATOM     17  C   UNL d   1     -56.534-102.612 -37.754  0.00  0.00     0.000 A 
BRANCH  15  18
ATOM     18  C   UNL d   1     -54.917-102.350 -36.299  0.00  0.00     0.000 C 
ATOM     19  C   UNL d   1     -55.049-102.845 -35.656  0.00  0.00     0.000 C 
ENDBRANCH  15  18
ENDBRANCH  11  12
ENDBRANCH   1  11
BRANCH   8  20
ATOM     20  O   UNL d   1     -55.723-101.027 -42.977  0.00  0.00    -0.259 OA
BRANCH  20  21
ATOM     21  C   UNL d   1     -55.541-101.408 -43.694  0.00  0.00     0.378 C 
ATOM     22  N   UNL d   1     -55.268-100.976 -44.335  0.00  0.00    -0.247 N 
ATOM     23  C   UNL d   1     -55.171-100.149 -44.272  0.00  0.00     0.112 A 
ATOM     24  C   UNL d   1     -55.088-101.344 -45.043  0.00  0.00     0.112 A 
ATOM     25  C   UNL d   1     -54.897 -99.707 -44.913  0.00  0.00     0.142 A 
ATOM     26  O   UNL d   1     -54.717-100.097 -45.630  0.00  0.00    -0.300 OA
ATOM     27  C   UNL d   1     -54.812-100.911 -45.692  0.00  0.00     0.142 A 
ATOM     28  O   UNL d   1     -55.637-102.222 -43.756  0.00  0.00    -0.237 OA
ENDBRANCH  20  21
ENDBRANCH   8  20
TORSDOF 5
ENDMDL
