MODEL 1
REMARK VINA RESULT:       5.6      0.000      0.000
REMARK  3 active torsions:
REMARK  status: ('A' for Active; 'I' for Inactive)
REMARK    1  A    between atoms: C_6  and  C_1 
REMARK    2  A    between atoms: O_2  and  C_6 
REMARK    3  A    between atoms: C_3  and  O_2 
ROOT
ATOM      1  C   UNL d   1     -54.750-101.590 -36.758  0.00  0.00     0.134 A 
ATOM      2  C   UNL d   1     -54.732-101.838 -35.971  0.00  0.00     0.218 A 
ATOM      3  O   UNL d   1     -54.734-102.642 -35.788  0.00  0.00    -0.284 OA
ATOM      4  C   UNL d   1     -54.748-100.792 -36.943  0.00  0.00     0.028 A 
ATOM      5  C   UNL d   1     -54.713-101.290 -35.363  0.00  0.00     0.044 A 
ATOM      6  C   UNL d   1     -54.711-100.479 -35.543  0.00  0.00     0.003 A 
ATOM      7  C   UNL d   1     -54.729-100.231 -36.330  0.00  0.00     0.002 A 
ENDROOT
BRANCH   1   8
ATOM      8  O   UNL d   1     -54.769-102.144 -37.368  0.00  0.00    -0.316 OA
BRANCH   8   9
ATOM      9  C   UNL d   1     -55.153-101.957 -38.082  0.00  0.00     0.246 C 
BRANCH   9  10
ATOM     10  C   UNL d   1     -55.298-102.551 -38.632  0.00  0.00     0.217 C 
ATOM     11  O   UNL d   1     -56.044-102.877 -38.716  0.00  0.00    -0.645 OA
ATOM     12  O   UNL d   1     -54.712-102.849 -39.124  0.00  0.00    -0.645 OA
ENDBRANCH   9  10
ENDBRANCH   8   9
ENDBRANCH   1   8
TORSDOF 3
ENDMDL
MODEL 2
REMARK VINA RESULT:       7.8      7.826      8.632
REMARK  3 active torsions:
REMARK  status: ('A' for Active; 'I' for Inactive)
REMARK    1  A    between atoms: C_6  and  C_1 
REMARK    2  A    between atoms: O_2  and  C_6 
REMARK    3  A    between atoms: C_3  and  O_2 
ROOT
ATOM      1  C   UNL d   1     -58.365 -98.759 -44.172  0.00  0.00     0.134 A 
ATOM      2  C   UNL d   1     -59.026 -98.758 -44.665  0.00  0.00     0.218 A 
ATOM      3  O   UNL d   1     -58.934 -98.755 -45.485  0.00  0.00    -0.284 OA
ATOM      4  C   UNL d   1     -58.452 -98.762 -43.358  0.00  0.00     0.028 A 
ATOM      5  C   UNL d   1     -59.781 -98.760 -44.349  0.00  0.00     0.044 A 
ATOM      6  C   UNL d   1     -59.878 -98.762 -43.523  0.00  0.00     0.003 A 
ATOM      7  C   UNL d   1     -59.216 -98.764 -43.030  0.00  0.00     0.002 A 
ENDROOT
BRANCH   1   8
ATOM      8  O   UNL d   1     -57.605 -98.758 -44.494  0.00  0.00    -0.316 OA
BRANCH   8   9
ATOM      9  C   UNL d   1     -56.979 -99.105 -44.073  0.00  0.00     0.246 C 
BRANCH   9  10
ATOM     10  C   UNL d   1     -56.283 -99.300 -44.466  0.00  0.00     0.217 C 
ATOM     11  O   UNL d   1     -55.941-100.038 -44.382  0.00  0.00    -0.645 OA
ATOM     12  O   UNL d   1     -55.895 -98.772 -44.961  0.00  0.00    -0.645 OA
ENDBRANCH   9  10
ENDBRANCH   8   9
ENDBRANCH   1   8
TORSDOF 3
ENDMDL
MODEL 3
REMARK VINA RESULT:       8.5      1.011      3.002
REMARK  3 active torsions:
REMARK  status: ('A' for Active; 'I' for Inactive)
REMARK    1  A    between atoms: C_6  and  C_1 
REMARK    2  A    between atoms: O_2  and  C_6 
REMARK    3  A    between atoms: C_3  and  O_2 
ROOT
ATOM      1  C   UNL d   1     -55.215-102.383 -37.760  0.00  0.00     0.134 A 
ATOM      2  C   UNL d   1     -55.963-102.697 -37.908  0.00  0.00     0.218 A 
ATOM      3  O   UNL d   1     -56.469-102.879 -37.282  0.00  0.00    -0.284 OA
ATOM      4  C   UNL d   1     -54.711-102.202 -38.379  0.00  0.00     0.028 A 
ATOM      5  C   UNL d   1     -56.214-102.834 -38.675  0.00  0.00     0.044 A 
ATOM      6  C   UNL d   1     -55.707-102.652 -39.309  0.00  0.00     0.003 A 
ATOM      7  C   UNL d   1     -54.959-102.338 -39.161  0.00  0.00     0.002 A 
ENDROOT
BRANCH   1   8
ATOM      8  O   UNL d   1     -54.966-102.246 -36.986  0.00  0.00    -0.316 OA
BRANCH   8   9
ATOM      9  C   UNL d   1     -54.714-101.486 -36.763  0.00  0.00     0.246 C 
BRANCH   9  10
ATOM     10  C   UNL d   1     -54.742-101.266 -35.971  0.00  0.00     0.217 C 
ATOM     11  O   UNL d   1     -54.717-100.479 -35.749  0.00  0.00    -0.645 OA
ATOM     12  O   UNL d   1     -54.796-101.815 -35.362  0.00  0.00    -0.645 OA
ENDBRANCH   9  10
ENDBRANCH   8   9
ENDBRANCH   1   8
TORSDOF 3
ENDMDL
