MODEL 1
REMARK VINA RESULT:      -3.9      0.000      0.000
REMARK  5 active torsions:
REMARK  status: ('A' for Active; 'I' for Inactive)
REMARK    1  A    between atoms: N_2  and  S_1 
REMARK    2  A    between atoms: C_8  and  S_1 
REMARK    3  A    between atoms: S_5  and  C_3 
REMARK    4  A    between atoms: C_13  and  S_5 
REMARK    5  A    between atoms: C_12  and  C_13 
ROOT
ATOM      1  N   UNL d   1     -41.403-122.546 -53.375  0.00  0.00    -0.208 N 
ATOM      2  C   UNL d   1     -41.448-123.004 -52.681  0.00  0.00     0.189 A 
ATOM      3  N   UNL d   1     -41.274-123.790 -52.879  0.00  0.00    -0.219 NA
ATOM      4  C   UNL d   1     -41.201-123.054 -54.005  0.00  0.00     0.114 A 
ATOM      5  C   UNL d   1     -41.123-123.817 -53.695  0.00  0.00     0.121 A 
ENDROOT
BRANCH   1   6
ATOM      6  S   UNL d   1     -41.538-121.728 -53.427  0.00  0.00     0.273 S 
ATOM      7  O   UNL d   1     -41.136-121.654 -52.715  0.00  0.00    -0.200 OA
ATOM      8  O   UNL d   1     -41.544-120.916 -53.258  0.00  0.00    -0.200 OA
BRANCH   6   9
ATOM      9  C   UNL d   1     -41.946-121.783 -54.144  0.00  0.00     0.104 A 
ATOM     10  C   UNL d   1     -42.763-121.859 -54.139  0.00  0.00     0.013 A 
ATOM     11  C   UNL d   1     -43.168-121.913 -54.854  0.00  0.00     0.001 A 
ATOM     12  C   UNL d   1     -42.753-121.891 -55.567  0.00  0.00     0.000 A 
ATOM     13  C   UNL d   1     -41.936-121.814 -55.566  0.00  0.00     0.001 A 
ATOM     14  C   UNL d   1     -41.531-121.760 -54.845  0.00  0.00     0.013 A 
ENDBRANCH   6   9
ENDBRANCH   1   6
BRANCH   2  15
ATOM     15  S   UNL d   1     -41.634-122.721 -51.919  0.00  0.00    -0.049 SA
BRANCH  15  16
ATOM     16  C   UNL d   1     -41.452-123.177 -51.255  0.00  0.00     0.040 C 
BRANCH  16  17
ATOM     17  C   UNL d   1     -41.804-123.001 -50.529  0.00  0.00     0.026 A 
ATOM     18  C   UNL d   1     -42.642-123.031 -50.451  0.00  0.00     0.099 A 
ATOM     19  N   UNL d   1     -43.008-122.859 -49.734  0.00  0.00    -0.242 NA
ATOM     20  C   UNL d   1     -42.536-122.654 -49.089  0.00  0.00     0.099 A 
ATOM     21  C   UNL d   1     -41.714-122.624 -49.159  0.00  0.00     0.021 A 
ATOM     22  C   UNL d   1     -41.351-122.798 -49.881  0.00  0.00     0.004 A 
ENDBRANCH  16  17
ENDBRANCH  15  16
ENDBRANCH   2  15
TORSDOF 5
ENDMDL
MODEL 2
REMARK VINA RESULT:      -3.4      1.459      4.556
REMARK  5 active torsions:
REMARK  status: ('A' for Active; 'I' for Inactive)
REMARK    1  A    between atoms: N_2  and  S_1 
REMARK    2  A    between atoms: C_8  and  S_1 
REMARK    3  A    between atoms: S_5  and  C_3 
REMARK    4  A    between atoms: C_13  and  S_5 
REMARK    5  A    between atoms: C_12  and  C_13 
ROOT
ATOM      1  N   UNL d   1     -41.951-122.379 -50.475  0.00  0.00    -0.208 N 
ATOM      2  C   UNL d   1     -41.573-122.163 -51.185  0.00  0.00     0.189 A 
ATOM      3  N   UNL d   1     -41.123-121.482 -51.042  0.00  0.00    -0.219 NA
ATOM      4  C   UNL d   1     -41.732-121.825 -49.891  0.00  0.00     0.114 A 
ATOM      5  C   UNL d   1     -41.223-121.276 -50.244  0.00  0.00     0.121 A 
ENDROOT
BRANCH   1   6
ATOM      6  S   UNL d   1     -42.456-123.030 -50.371  0.00  0.00     0.273 S 
ATOM      7  O   UNL d   1     -42.773-122.855 -51.107  0.00  0.00    -0.200 OA
ATOM      8  O   UNL d   1     -43.041-123.605 -50.497  0.00  0.00    -0.200 OA
BRANCH   6   9
ATOM      9  C   UNL d   1     -42.149-123.222 -49.627  0.00  0.00     0.104 A 
ATOM     10  C   UNL d   1     -42.568-123.017 -48.953  0.00  0.00     0.013 A 
ATOM     11  C   UNL d   1     -42.262-123.209 -48.213  0.00  0.00     0.001 A 
ATOM     12  C   UNL d   1     -41.539-123.603 -48.154  0.00  0.00     0.000 A 
ATOM     13  C   UNL d   1     -41.123-123.805 -48.833  0.00  0.00     0.001 A 
ATOM     14  C   UNL d   1     -41.435-123.611 -49.576  0.00  0.00     0.013 A 
ENDBRANCH   6   9
ENDBRANCH   1   6
BRANCH   2  15
ATOM     15  S   UNL d   1     -41.636-122.565 -51.914  0.00  0.00    -0.049 SA
BRANCH  15  16
ATOM     16  C   UNL d   1     -41.138-122.360 -52.541  0.00  0.00     0.040 C 
BRANCH  16  17
ATOM     17  C   UNL d   1     -41.282-122.664 -53.294  0.00  0.00     0.026 A 
ATOM     18  C   UNL d   1     -41.281-123.498 -53.417  0.00  0.00     0.099 A 
ATOM     19  N   UNL d   1     -41.423-123.817 -54.161  0.00  0.00    -0.242 NA
ATOM     20  C   UNL d   1     -41.568-123.303 -54.791  0.00  0.00     0.099 A 
ATOM     21  C   UNL d   1     -41.570-122.486 -54.677  0.00  0.00     0.021 A 
ATOM     22  C   UNL d   1     -41.427-122.169 -53.927  0.00  0.00     0.004 A 
ENDBRANCH  16  17
ENDBRANCH  15  16
ENDBRANCH   2  15
TORSDOF 5
ENDMDL
MODEL 3
REMARK VINA RESULT:      -1.7      1.021      1.346
REMARK  5 active torsions:
REMARK  status: ('A' for Active; 'I' for Inactive)
REMARK    1  A    between atoms: N_2  and  S_1 
REMARK    2  A    between atoms: C_8  and  S_1 
REMARK    3  A    between atoms: S_5  and  C_3 
REMARK    4  A    between atoms: C_13  and  S_5 
REMARK    5  A    between atoms: C_12  and  C_13 
ROOT
ATOM      1  N   UNL d   1     -41.447-122.554 -52.028  0.00  0.00    -0.208 N 
ATOM      2  C   UNL d   1     -41.611-123.035 -51.368  0.00  0.00     0.189 A 
ATOM      3  N   UNL d   1     -41.410-123.816 -51.561  0.00  0.00    -0.219 NA
ATOM      4  C   UNL d   1     -41.143-123.044 -52.632  0.00  0.00     0.114 A 
ATOM      5  C   UNL d   1     -41.123-123.817 -52.340  0.00  0.00     0.121 A 
ENDROOT
BRANCH   1   6
ATOM      6  S   UNL d   1     -41.567-121.734 -52.074  0.00  0.00     0.273 S 
ATOM      7  O   UNL d   1     -41.333-121.693 -51.289  0.00  0.00    -0.200 OA
ATOM      8  O   UNL d   1     -41.611-120.929 -51.877  0.00  0.00    -0.200 OA
BRANCH   6   9
ATOM      9  C   UNL d   1     -41.806-121.755 -52.866  0.00  0.00     0.104 A 
ATOM     10  C   UNL d   1     -42.590-121.610 -53.055  0.00  0.00     0.013 A 
ATOM     11  C   UNL d   1     -42.827-121.631 -53.844  0.00  0.00     0.001 A 
ATOM     12  C   UNL d   1     -42.276-121.797 -54.436  0.00  0.00     0.000 A 
ATOM     13  C   UNL d   1     -41.492-121.941 -54.241  0.00  0.00     0.001 A 
ATOM     14  C   UNL d   1     -41.257-121.919 -53.446  0.00  0.00     0.013 A 
ENDBRANCH   6   9
ENDBRANCH   1   6
BRANCH   2  15
ATOM     15  S   UNL d   1     -41.922-122.775 -50.640  0.00  0.00    -0.049 SA
BRANCH  15  16
ATOM     16  C   UNL d   1     -42.261-123.320 -50.119  0.00  0.00     0.040 C 
BRANCH  16  17
ATOM     17  C   UNL d   1     -42.291-123.151 -49.312  0.00  0.00     0.026 A 
ATOM     18  C   UNL d   1     -42.978-122.791 -48.984  0.00  0.00     0.099 A 
ATOM     19  N   UNL d   1     -43.023-122.616 -48.181  0.00  0.00    -0.242 NA
ATOM     20  C   UNL d   1     -42.379-122.801 -47.699  0.00  0.00     0.099 A 
ATOM     21  C   UNL d   1     -41.703-123.154 -48.015  0.00  0.00     0.021 A 
ATOM     22  C   UNL d   1     -41.661-123.328 -48.822  0.00  0.00     0.004 A 
ENDBRANCH  16  17
ENDBRANCH  15  16
ENDBRANCH   2  15
TORSDOF 5
ENDMDL
