MODEL 1
REMARK VINA RESULT:       8.5      0.000      0.000
REMARK  2 active torsions:
REMARK  status: ('A' for Active; 'I' for Inactive)
REMARK    1  A    between atoms: N_8  and  C_7 
REMARK    2  A    between atoms: C_9  and  N_8 
ROOT
ATOM      1  N   UNL d   1      14.345  11.786  -2.596  0.00  0.00    -0.245 NA
ENDROOT
BRANCH   1   2
ATOM      2  C   UNL d   1      13.902  12.207  -3.140  0.00  0.00     0.093 A 
ATOM      3  C   UNL d   1      13.434  11.890  -3.736  0.00  0.00     0.118 A 
ATOM      4  S   UNL d   1      13.092  12.523  -4.147  0.00  0.00     0.213 S 
ATOM      5  C   UNL d   1      13.347  13.225  -3.806  0.00  0.00     0.100 A 
ATOM      6  O   UNL d   1      12.786  13.195  -4.512  0.00  0.00    -0.217 OA
ATOM      7  O   UNL d   1      12.889  11.779  -4.423  0.00  0.00    -0.217 OA
ATOM      8  C   UNL d   1      13.849  13.030  -3.182  0.00  0.00     0.032 A 
ENDBRANCH   1   2
BRANCH   1   9
ATOM      9  C   UNL d   1      14.264  11.952  -1.790  0.00  0.00     0.082 A 
ATOM     10  C   UNL d   1      14.891  12.288  -1.373  0.00  0.00     0.030 A 
ATOM     11  C   UNL d   1      14.814  12.452  -0.579  0.00  0.00     0.059 A 
ATOM     12 CL   UNL d   1      15.379  12.783  -0.089  0.00  0.00    -0.082 Cl
ATOM     13  C   UNL d   1      14.106  12.282  -0.189  0.00  0.00     0.011 A 
ATOM     14  C   UNL d   1      13.479  11.946  -0.605  0.00  0.00     0.002 A 
ATOM     15  C   UNL d   1      13.559  11.780  -1.412  0.00  0.00     0.019 A 
ENDBRANCH   1   9
TORSDOF 2
ENDMDL
