MODEL 1
REMARK VINA RESULT:      60.2      0.000      0.000
REMARK  6 active torsions:
REMARK  status: ('A' for Active; 'I' for Inactive)
REMARK    1  A    between atoms: C_7  and  S_1 
REMARK    2  A    between atoms: N_18  and  S_1 
REMARK    3  A    between atoms: C_6  and  C_4 
REMARK    4  A    between atoms: C_9  and  C_24 
REMARK    5  A    between atoms: C_26  and  N_18 
REMARK    6  A    between atoms: C_24  and  C_26 
ROOT
ATOM      1  S   UNL d   1      59.480  49.540  51.286  0.00  0.00     0.285 S 
ATOM      2  O   UNL d   1      60.054  49.533  51.878  0.00  0.00    -0.198 OA
ATOM      3  O   UNL d   1      58.902  49.641  51.861  0.00  0.00    -0.198 OA
ENDROOT
BRANCH   1   4
ATOM      4  C   UNL d   1      58.902  49.549  50.703  0.00  0.00     0.105 A 
ATOM      5  C   UNL d   1      58.113  49.409  50.901  0.00  0.00     0.019 A 
ATOM      6  C   UNL d   1      57.537  49.417  50.322  0.00  0.00     0.100 A 
ATOM      7  C   UNL d   1      57.743  49.565  49.535  0.00  0.00     0.144 A 
ATOM      8  C   UNL d   1      58.527  49.704  49.337  0.00  0.00     0.030 A 
ATOM      9  F   UNL d   1      57.169  49.575  48.948  0.00  0.00    -0.204 F 
ATOM     10  C   UNL d   1      59.108  49.697  49.917  0.00  0.00     0.015 A 
BRANCH   6  11
ATOM     11  C   UNL d   1      56.756  49.278  50.522  0.00  0.00     0.421 C 
ATOM     12  F   UNL d   1      56.037  49.144  50.700  0.00  0.00    -0.166 F 
ATOM     13  F   UNL d   1      56.246  49.707  51.065  0.00  0.00    -0.166 F 
ATOM     14  F   UNL d   1      56.228  48.658  50.238  0.00  0.00    -0.166 F 
ENDBRANCH   6  11
ENDBRANCH   1   4
BRANCH   1  15
ATOM     15  N   UNL d   1      60.070  49.439  50.716  0.00  0.00    -0.157 NA
BRANCH  15  16
ATOM     16  C   UNL d   1      60.815  49.208  50.933  0.00  0.00     0.114 C 
BRANCH  16  17
ATOM     17  C   UNL d   1      61.350  48.931  50.362  0.00  0.00     0.042 C 
BRANCH  17  18
ATOM     18  C   UNL d   1      61.420  48.105  50.230  0.00  0.00     0.102 A 
ATOM     19  N   UNL d   1      61.132  47.519  50.711  0.00  0.00    -0.227 NA
ATOM     20  C   UNL d   1      61.320  46.784  50.380  0.00  0.00     0.148 A 
ATOM     21  C   UNL d   1      61.168  46.015  50.626  0.00  0.00     0.037 A 
ATOM     22  N   UNL d   1      61.730  46.921  49.684  0.00  0.00    -0.288 N 
ATOM     23  C   UNL d   1      61.430  45.383  50.170  0.00  0.00     0.004 A 
ATOM     24  C   UNL d   1      61.277  44.612  50.419  0.00  0.00     0.000 C 
ATOM     25  C   UNL d   1      61.841  45.507  49.473  0.00  0.00     0.019 A 
ATOM     26  C   UNL d   1      61.992  46.286  49.228  0.00  0.00     0.082 A 
ATOM     27  C   UNL d   1      61.799  47.743  49.579  0.00  0.00     0.101 A 
ENDBRANCH  17  18
ENDBRANCH  16  17
ENDBRANCH  15  16
ENDBRANCH   1  15
TORSDOF 6
ENDMDL
