MODEL 1
REMARK VINA RESULT:      45.2      0.000      0.000
REMARK  6 active torsions:
REMARK  status: ('A' for Active; 'I' for Inactive)
REMARK    1  A    between atoms: C_3  and  C_1 
REMARK    2  A    between atoms: C_2  and  C_4 
REMARK    3  A    between atoms: C_9  and  C_3 
REMARK    4  A    between atoms: C_4  and  C_10 
REMARK    5  A    between atoms: C_17  and  C_9 
REMARK    6  A    between atoms: C_10  and  C_17 
ROOT
ATOM      1  C   UNL d   1     -49.006  27.560  34.245  0.00  0.00     0.006 C 
ATOM      2  C   UNL d   1     -48.380  27.019  34.062  0.00  0.00     0.000 C 
ENDROOT
BRANCH   1   3
ATOM      3  C   UNL d   1     -49.780  27.311  34.112  0.00  0.00     0.043 C 
BRANCH   3   4
ATOM      4  C   UNL d   1     -49.951  26.655  33.653  0.00  0.00     0.202 C 
ATOM      5  O   UNL d   1     -49.345  26.190  33.307  0.00  0.00    -0.286 OA
BRANCH   4   6
ATOM      6  C   UNL d   1     -50.734  26.432  33.519  0.00  0.00     0.068 A 
ATOM      7  S   UNL d   1     -50.971  25.642  33.449  0.00  0.00    -0.083 SA
ATOM      8  C   UNL d   1     -51.778  25.608  33.318  0.00  0.00     0.035 A 
ATOM      9  C   UNL d   1     -52.057  26.392  33.306  0.00  0.00     0.008 A 
ATOM     10  C   UNL d   1     -51.413  26.885  33.429  0.00  0.00     0.010 A 
ENDBRANCH   4   6
ENDBRANCH   3   4
ENDBRANCH   1   3
BRANCH   1  11
ATOM     11  C   UNL d   1     -48.852  28.309  34.545  0.00  0.00     0.043 C 
BRANCH  11  12
ATOM     12  C   UNL d   1     -48.234  28.417  35.122  0.00  0.00     0.202 C 
ATOM     13  O   UNL d   1     -47.921  27.770  35.510  0.00  0.00    -0.286 OA
BRANCH  12  14
ATOM     14  C   UNL d   1     -47.954  29.191  35.284  0.00  0.00     0.068 A 
ATOM     15  S   UNL d   1     -47.506  29.427  35.966  0.00  0.00    -0.083 SA
ATOM     16  C   UNL d   1     -47.350  30.229  35.900  0.00  0.00     0.035 A 
ATOM     17  C   UNL d   1     -47.691  30.502  35.192  0.00  0.00     0.008 A 
ATOM     18  C   UNL d   1     -48.053  29.877  34.824  0.00  0.00     0.010 A 
ENDBRANCH  12  14
ENDBRANCH  11  12
ENDBRANCH   1  11
TORSDOF 6
ENDMDL
MODEL 2
REMARK VINA RESULT:      45.5      2.533      5.186
REMARK  6 active torsions:
REMARK  status: ('A' for Active; 'I' for Inactive)
REMARK    1  A    between atoms: C_3  and  C_1 
REMARK    2  A    between atoms: C_2  and  C_4 
REMARK    3  A    between atoms: C_9  and  C_3 
REMARK    4  A    between atoms: C_4  and  C_10 
REMARK    5  A    between atoms: C_17  and  C_9 
REMARK    6  A    between atoms: C_10  and  C_17 
ROOT
ATOM      1  C   UNL d   1     -47.294  30.865  35.396  0.00  0.00     0.006 C 
ATOM      2  C   UNL d   1     -46.775  31.142  36.006  0.00  0.00     0.000 C 
ENDROOT
BRANCH   1   3
ATOM      3  C   UNL d   1     -47.700  31.428  34.953  0.00  0.00     0.043 C 
BRANCH   3   4
ATOM      4  C   UNL d   1     -47.353  32.134  34.728  0.00  0.00     0.202 C 
ATOM      5  O   UNL d   1     -46.619  32.386  35.047  0.00  0.00    -0.286 OA
BRANCH   4   6
ATOM      6  C   UNL d   1     -47.721  32.623  34.173  0.00  0.00     0.068 A 
ATOM      7  S   UNL d   1     -47.345  33.276  33.830  0.00  0.00    -0.083 SA
ATOM      8  C   UNL d   1     -47.856  33.642  33.306  0.00  0.00     0.035 A 
ATOM      9  C   UNL d   1     -48.569  33.212  33.318  0.00  0.00     0.008 A 
ATOM     10  C   UNL d   1     -48.475  32.594  33.849  0.00  0.00     0.010 A 
ENDBRANCH   4   6
ENDBRANCH   3   4
ENDBRANCH   1   3
BRANCH   1  11
ATOM     11  C   UNL d   1     -47.393  30.063  35.248  0.00  0.00     0.043 C 
BRANCH  11  12
ATOM     12  C   UNL d   1     -47.737  29.560  35.843  0.00  0.00     0.202 C 
ATOM     13  O   UNL d   1     -47.645  29.743  36.634  0.00  0.00    -0.286 OA
BRANCH  12  14
ATOM     14  C   UNL d   1     -48.167  28.879  35.607  0.00  0.00     0.068 A 
ATOM     15  S   UNL d   1     -48.179  28.544  34.826  0.00  0.00    -0.083 SA
ATOM     16  C   UNL d   1     -48.668  27.886  34.843  0.00  0.00     0.035 A 
ATOM     17  C   UNL d   1     -48.963  27.801  35.616  0.00  0.00     0.008 A 
ATOM     18  C   UNL d   1     -48.660  28.399  36.073  0.00  0.00     0.010 A 
ENDBRANCH  12  14
ENDBRANCH  11  12
ENDBRANCH   1  11
TORSDOF 6
ENDMDL
