MODEL 1
REMARK VINA RESULT:       3.5      0.000      0.000
REMARK  10 active torsions:
REMARK  status: ('A' for Active; 'I' for Inactive)
REMARK    1  A    between atoms: C_9  and  C_1 
REMARK    2  A    between atoms: C_11  and  C_2 
REMARK    3  A    between atoms: S_12  and  C_3 
REMARK    4  A    between atoms: C_16  and  C_4 
REMARK    5  A    between atoms: C_7  and  N_8 
REMARK       I    between atoms: N_8  and  C_15 
REMARK    6  A    between atoms: O_26  and  C_9 
REMARK    7  A    between atoms: C_21  and  S_12 
REMARK    8  A    between atoms: C_15  and  C_21 
REMARK    9  A    between atoms: C_24  and  C_32 
REMARK   10  A    between atoms: C_32  and  O_26 
ROOT
ATOM      1  C   UNL d   1      31.996  19.107 -24.005  0.00  0.00     0.081 A 
ATOM      2  C   UNL d   1      32.777  19.251 -22.807  0.00  0.00     0.045 A 
ATOM      3  C   UNL d   1      32.648  20.111 -22.845  0.00  0.00     0.112 A 
ATOM      4  C   UNL d   1      32.448  18.780 -23.385  0.00  0.00     0.010 A 
ATOM      5  C   UNL d   1      31.875  19.920 -24.040  0.00  0.00     0.087 A 
ATOM      6  N   UNL d   1      32.206  20.408 -23.456  0.00  0.00    -0.239 NA
ATOM      7  C   UNL d   1      31.418  20.262 -24.665  0.00  0.00     0.021 C 
ENDROOT
BRANCH   3   8
ATOM      8  S   UNL d   1      32.968  20.668 -22.264  0.00  0.00    -0.062 SA
BRANCH   8   9
ATOM      9  C   UNL d   1      33.050  21.459 -22.470  0.00  0.00     0.099 C 
BRANCH   9  10
ATOM     10  C   UNL d   1      32.904  22.022 -21.924  0.00  0.00     0.288 C 
ATOM     11  N   UNL d   1      33.213  21.937 -21.167  0.00  0.00    -0.182 NA
ATOM     12  O   UNL d   1      32.461  22.676 -22.095  0.00  0.00    -0.265 OA
BRANCH  11  13
ATOM     13  C   UNL d   1      33.073  22.497 -20.613  0.00  0.00     0.197 A 
ATOM     14  N   UNL d   1      32.934  22.275 -19.849  0.00  0.00    -0.219 NA
ATOM     15  C   UNL d   1      32.809  22.970 -19.410  0.00  0.00     0.108 A 
ATOM     16  C   UNL d   1      32.873  23.609 -19.909  0.00  0.00     0.059 A 
ATOM     17  S   UNL d   1      33.038  23.320 -20.664  0.00  0.00    -0.046 SA
ENDBRANCH  11  13
ENDBRANCH   9  10
ENDBRANCH   8   9
ENDBRANCH   3   8
BRANCH   2  18
ATOM     18  C   UNL d   1      33.232  18.893 -22.188  0.00  0.00     0.124 C 
ATOM     19  N   UNL d   1      33.000  18.958 -21.402  0.00  0.00    -0.146 N 
ENDBRANCH   2  18
BRANCH   4  20
ATOM     20  C   UNL d   1      32.567  17.982 -23.351  0.00  0.00     0.000 A 
ATOM     21  C   UNL d   1      32.177  17.527 -22.781  0.00  0.00     0.001 A 
ATOM     22  C   UNL d   1      32.296  16.730 -22.747  0.00  0.00     0.011 A 
ATOM     23  C   UNL d   1      32.808  16.362 -23.281  0.00  0.00     0.058 A 
ATOM     24  C   UNL d   1      33.203  16.817 -23.857  0.00  0.00     0.011 A 
ATOM     25 CL   UNL d   1      32.931  15.540 -23.245  0.00  0.00    -0.082 Cl
ATOM     26  C   UNL d   1      33.082  17.630 -23.892  0.00  0.00     0.001 A 
ENDBRANCH   4  20
BRANCH   1  27
ATOM     27  C   UNL d   1      31.667  18.587 -24.593  0.00  0.00     0.302 C 
ATOM     28  O   UNL d   1      32.135  18.033 -24.981  0.00  0.00    -0.259 OA
BRANCH  27  29
ATOM     29  O   UNL d   1      30.862  18.649 -24.770  0.00  0.00    -0.271 OA
BRANCH  29  30
ATOM     30  C   UNL d   1      30.466  18.020 -25.087  0.00  0.00     0.126 C 
BRANCH  30  31
ATOM     31  C   UNL d   1      29.671  17.882 -24.882  0.00  0.00     0.027 C 
ATOM     32  C   UNL d   1      29.430  17.139 -24.676  0.00  0.00     0.002 C 
ENDBRANCH  30  31
ENDBRANCH  29  30
ENDBRANCH  27  29
ENDBRANCH   1  27
TORSDOF 10
ENDMDL
MODEL 2
REMARK VINA RESULT:       5.4      2.333      5.558
REMARK  10 active torsions:
REMARK  status: ('A' for Active; 'I' for Inactive)
REMARK    1  A    between atoms: C_9  and  C_1 
REMARK    2  A    between atoms: C_11  and  C_2 
REMARK    3  A    between atoms: S_12  and  C_3 
REMARK    4  A    between atoms: C_16  and  C_4 
REMARK    5  A    between atoms: C_7  and  N_8 
REMARK       I    between atoms: N_8  and  C_15 
REMARK    6  A    between atoms: O_26  and  C_9 
REMARK    7  A    between atoms: C_21  and  S_12 
REMARK    8  A    between atoms: C_15  and  C_21 
REMARK    9  A    between atoms: C_24  and  C_32 
REMARK   10  A    between atoms: C_32  and  O_26 
ROOT
ATOM      1  C   UNL d   1      32.999  20.539 -22.084  0.00  0.00     0.081 A 
ATOM      2  C   UNL d   1      33.137  19.938 -23.381  0.00  0.00     0.045 A 
ATOM      3  C   UNL d   1      33.102  19.153 -23.006  0.00  0.00     0.112 A 
ATOM      4  C   UNL d   1      33.085  20.601 -22.910  0.00  0.00     0.010 A 
ATOM      5  C   UNL d   1      32.966  19.797 -21.729  0.00  0.00     0.087 A 
ATOM      6  N   UNL d   1      33.019  19.116 -22.200  0.00  0.00    -0.239 NA
ATOM      7  C   UNL d   1      32.879  19.723 -20.889  0.00  0.00     0.021 C 
ENDROOT
BRANCH   3   8
ATOM      8  S   UNL d   1      33.152  18.410 -23.446  0.00  0.00    -0.062 SA
BRANCH   8   9
ATOM      9  C   UNL d   1      32.818  17.732 -23.126  0.00  0.00     0.099 C 
BRANCH   9  10
ATOM     10  C   UNL d   1      32.385  17.251 -23.592  0.00  0.00     0.288 C 
ATOM     11  N   UNL d   1      31.796  16.788 -23.255  0.00  0.00    -0.182 NA
ATOM     12  O   UNL d   1      32.510  17.207 -24.390  0.00  0.00    -0.265 OA
BRANCH  11  13
ATOM     13  C   UNL d   1      31.356  16.303 -23.716  0.00  0.00     0.197 A 
ATOM     14  N   UNL d   1      30.572  16.202 -23.553  0.00  0.00    -0.219 NA
ATOM     15  C   UNL d   1      30.268  15.674 -24.119  0.00  0.00     0.108 A 
ATOM     16  C   UNL d   1      30.870  15.457 -24.621  0.00  0.00     0.059 A 
ATOM     17  S   UNL d   1      31.554  15.847 -24.375  0.00  0.00    -0.046 SA
ENDBRANCH  11  13
ENDBRANCH   9  10
ENDBRANCH   8   9
ENDBRANCH   3   8
BRANCH   2  18
ATOM     18  C   UNL d   1      33.224  20.029 -24.220  0.00  0.00     0.124 C 
ATOM     19  N   UNL d   1      32.999  19.429 -24.735  0.00  0.00    -0.146 N 
ENDBRANCH   2  18
BRANCH   4  20
ATOM     20  C   UNL d   1      33.118  21.329 -23.259  0.00  0.00     0.000 A 
ATOM     21  C   UNL d   1      33.061  21.400 -24.080  0.00  0.00     0.001 A 
ATOM     22  C   UNL d   1      33.094  22.128 -24.428  0.00  0.00     0.011 A 
ATOM     23  C   UNL d   1      33.184  22.806 -23.966  0.00  0.00     0.058 A 
ATOM     24  C   UNL d   1      33.241  22.739 -23.137  0.00  0.00     0.011 A 
ATOM     25 CL   UNL d   1      33.217  23.556 -24.324  0.00  0.00    -0.082 Cl
ATOM     26  C   UNL d   1      33.207  21.997 -22.782  0.00  0.00     0.001 A 
ENDBRANCH   4  20
BRANCH   1  27
ATOM     27  C   UNL d   1      32.947  21.251 -21.620  0.00  0.00     0.302 C 
ATOM     28  O   UNL d   1      32.665  21.951 -21.947  0.00  0.00    -0.259 OA
BRANCH  27  29
ATOM     29  O   UNL d   1      33.187  21.227 -20.830  0.00  0.00    -0.271 OA
BRANCH  29  30
ATOM     30  C   UNL d   1      33.198  21.904 -20.388  0.00  0.00     0.126 C 
BRANCH  30  31
ATOM     31  C   UNL d   1      32.839  21.915 -19.636  0.00  0.00     0.027 C 
ATOM     32  C   UNL d   1      32.703  22.620 -19.265  0.00  0.00     0.002 C 
ENDBRANCH  30  31
ENDBRANCH  29  30
ENDBRANCH  27  29
ENDBRANCH   1  27
TORSDOF 10
ENDMDL
