MODEL 1
REMARK VINA RESULT:      -5.4      0.000      0.000
REMARK  5 active torsions:
REMARK  status: ('A' for Active; 'I' for Inactive)
REMARK    1  A    between atoms: O_8  and  S_1 
REMARK    2  A    between atoms: C_9  and  S_1 
REMARK    3  A    between atoms: C_7  and  C_2 
REMARK    4  A    between atoms: C_20  and  C_7 
REMARK    5  A    between atoms: C_14  and  O_8 
ROOT
ATOM      1  C   UNL d   1     -42.611-123.293 -49.388  0.00  0.00     0.139 A 
ATOM      2  C   UNL d   1     -42.650-122.620 -50.534  0.00  0.00     0.064 A 
ATOM      3  C   UNL d   1     -43.049-122.749 -49.828  0.00  0.00     0.220 A 
ATOM      4  C   UNL d   1     -41.965-123.081 -50.537  0.00  0.00     0.105 A 
ATOM      5  O   UNL d   1     -41.942-123.498 -49.825  0.00  0.00    -0.304 OA
ATOM      6  C   UNL d   1     -41.464-123.056 -51.180  0.00  0.00     0.050 A 
ATOM      7  C   UNL d   1     -42.825-122.138 -51.179  0.00  0.00     0.007 A 
ATOM      8  C   UNL d   1     -41.639-122.575 -51.824  0.00  0.00     0.116 A 
ATOM      9  O   UNL d   1     -43.759-122.402 -49.592  0.00  0.00    -0.284 OA
ATOM     10  C   UNL d   1     -42.317-122.118 -51.822  0.00  0.00     0.026 A 
ENDROOT
BRANCH   8  11
ATOM     11  O   UNL d   1     -41.131-122.553 -52.471  0.00  0.00    -0.227 OA
BRANCH  11  12
ATOM     12  S   UNL d   1     -41.432-122.434 -53.230  0.00  0.00     0.304 S 
ATOM     13  O   UNL d   1     -41.367-123.231 -53.381  0.00  0.00    -0.193 OA
ATOM     14  O   UNL d   1     -41.503-121.628 -53.089  0.00  0.00    -0.193 OA
BRANCH  12  15
ATOM     15  C   UNL d   1     -41.736-122.319 -53.998  0.00  0.00     0.111 A 
ATOM     16  C   UNL d   1     -41.630-122.906 -54.571  0.00  0.00     0.014 A 
ATOM     17  C   UNL d   1     -41.930-122.792 -55.331  0.00  0.00     0.012 A 
ATOM     18  C   UNL d   1     -42.337-122.092 -55.518  0.00  0.00     0.058 A 
ATOM     19  C   UNL d   1     -42.437-121.512 -54.934  0.00  0.00     0.012 A 
ATOM     20 CL   UNL d   1     -42.633-121.981 -56.266  0.00  0.00    -0.082 Cl
ATOM     21  C   UNL d   1     -42.135-121.629 -54.175  0.00  0.00     0.014 A 
ENDBRANCH  12  15
ENDBRANCH  11  12
ENDBRANCH   8  11
BRANCH   1  22
ATOM     22  C   UNL d   1     -42.804-123.584 -48.641  0.00  0.00     0.029 C 
BRANCH  22  23
ATOM     23  C   UNL d   1     -42.328-123.411 -47.986  0.00  0.00     0.021 A 
ATOM     24  C   UNL d   1     -42.598-122.879 -47.424  0.00  0.00     0.099 A 
ATOM     25  N   UNL d   1     -42.137-122.699 -46.771  0.00  0.00    -0.242 NA
ATOM     26  C   UNL d   1     -41.391-123.059 -46.678  0.00  0.00     0.099 A 
ATOM     27  C   UNL d   1     -41.123-123.596 -47.248  0.00  0.00     0.021 A 
ATOM     28  C   UNL d   1     -41.599-123.768 -47.902  0.00  0.00     0.003 A 
ENDBRANCH  22  23
ENDBRANCH   1  22
TORSDOF 5
ENDMDL
MODEL 2
REMARK VINA RESULT:      -4.2      2.708      5.740
REMARK  5 active torsions:
REMARK  status: ('A' for Active; 'I' for Inactive)
REMARK    1  A    between atoms: O_8  and  S_1 
REMARK    2  A    between atoms: C_9  and  S_1 
REMARK    3  A    between atoms: C_7  and  C_2 
REMARK    4  A    between atoms: C_20  and  C_7 
REMARK    5  A    between atoms: C_14  and  O_8 
ROOT
ATOM      1  C   UNL d   1     -41.614-121.737 -53.202  0.00  0.00     0.139 A 
ATOM      2  C   UNL d   1     -41.400-121.873 -51.896  0.00  0.00     0.064 A 
ATOM      3  C   UNL d   1     -41.406-121.331 -52.514  0.00  0.00     0.220 A 
ATOM      4  C   UNL d   1     -41.603-122.615 -52.195  0.00  0.00     0.105 A 
ATOM      5  O   UNL d   1     -41.735-122.530 -53.006  0.00  0.00    -0.304 OA
ATOM      6  C   UNL d   1     -41.638-123.257 -51.694  0.00  0.00     0.050 A 
ATOM      7  C   UNL d   1     -41.235-121.783 -51.094  0.00  0.00     0.007 A 
ATOM      8  C   UNL d   1     -41.472-123.167 -50.892  0.00  0.00     0.116 A 
ATOM      9  O   UNL d   1     -41.238-120.525 -52.466  0.00  0.00    -0.284 OA
ATOM     10  C   UNL d   1     -41.272-122.432 -50.596  0.00  0.00     0.026 A 
ENDROOT
BRANCH   8  11
ATOM     11  O   UNL d   1     -41.509-123.817 -50.390  0.00  0.00    -0.227 OA
BRANCH  11  12
ATOM     12  S   UNL d   1     -41.860-123.747 -49.647  0.00  0.00     0.304 S 
ATOM     13  O   UNL d   1     -42.595-123.817 -49.987  0.00  0.00    -0.193 OA
ATOM     14  O   UNL d   1     -41.123-123.674 -49.292  0.00  0.00    -0.193 OA
BRANCH  12  15
ATOM     15  C   UNL d   1     -42.218-123.675 -48.897  0.00  0.00     0.111 A 
ATOM     16  C   UNL d   1     -41.747-123.546 -48.230  0.00  0.00     0.014 A 
ATOM     17  C   UNL d   1     -42.101-123.475 -47.489  0.00  0.00     0.012 A 
ATOM     18  C   UNL d   1     -42.927-123.534 -47.414  0.00  0.00     0.058 A 
ATOM     19  C   UNL d   1     -43.388-123.664 -48.091  0.00  0.00     0.012 A 
ATOM     20 CL   UNL d   1     -43.275-123.465 -46.684  0.00  0.00    -0.082 Cl
ATOM     21  C   UNL d   1     -43.030-123.734 -48.831  0.00  0.00     0.014 A 
ENDBRANCH  12  15
ENDBRANCH  11  12
ENDBRANCH   8  11
BRANCH   1  22
ATOM     22  C   UNL d   1     -41.688-121.413 -53.956  0.00  0.00     0.029 C 
BRANCH  22  23
ATOM     23  C   UNL d   1     -42.080-121.828 -54.556  0.00  0.00     0.021 A 
ATOM     24  C   UNL d   1     -42.830-121.589 -54.783  0.00  0.00     0.099 A 
ATOM     25  N   UNL d   1     -43.230-121.990 -55.375  0.00  0.00    -0.242 NA
ATOM     26  C   UNL d   1     -42.870-122.644 -55.748  0.00  0.00     0.099 A 
ATOM     27  C   UNL d   1     -42.112-122.881 -55.516  0.00  0.00     0.021 A 
ATOM     28  C   UNL d   1     -41.722-122.466 -54.916  0.00  0.00     0.003 A 
ENDBRANCH  22  23
ENDBRANCH   1  22
TORSDOF 5
ENDMDL
