MODEL 1
REMARK VINA RESULT:      10.6      0.000      0.000
REMARK  2 active torsions:
REMARK  status: ('A' for Active; 'I' for Inactive)
REMARK    1  A    between atoms: C_2  and  S_1 
REMARK    2  A    between atoms: C_7  and  C_3 
ROOT
ATOM      1  C   UNL d   1      23.743  12.638  -2.384  0.00  0.00     0.117 A 
ATOM      2  C   UNL d   1      23.619  12.873  -0.973  0.00  0.00     0.076 A 
ATOM      3  C   UNL d   1      23.362  13.001  -1.749  0.00  0.00     0.021 A 
ATOM      4  C   UNL d   1      24.387  12.143  -2.250  0.00  0.00     0.071 A 
ATOM      5  C   UNL d   1      24.264  12.378  -0.839  0.00  0.00     0.065 A 
ATOM      6  C   UNL d   1      24.649  12.011  -1.480  0.00  0.00     0.024 A 
ATOM      7 CL   UNL d   1      24.526  12.246  -0.070  0.00  0.00    -0.082 Cl
ATOM      8 CL   UNL d   1      24.768  11.780  -2.884  0.00  0.00    -0.082 Cl
ENDROOT
BRANCH   1   9
ATOM      9  S   UNL d   1      23.479  12.771  -3.156  0.00  0.00     0.303 S 
ATOM     10  O   UNL d   1      22.704  12.658  -2.916  0.00  0.00    -0.197 OA
ATOM     11  O   UNL d   1      24.265  12.889  -3.411  0.00  0.00    -0.197 OA
ATOM     12  N   UNL d   1      23.223  12.906  -3.931  0.00  0.00    -0.043 N 
ENDBRANCH   1   9
BRANCH   2  13
ATOM     13  C   UNL d   1      23.235  13.238  -0.341  0.00  0.00     0.212 C 
ATOM     14  O   UNL d   1      22.542  12.918  -0.036  0.00  0.00    -0.644 OA
ATOM     15  O   UNL d   1      23.551  13.929  -0.015  0.00  0.00    -0.644 OA
ENDBRANCH   2  13
TORSDOF 2
ENDMDL
