MODEL 1
REMARK VINA RESULT:      30.4      0.000      0.000
REMARK  4 active torsions:
REMARK  status: ('A' for Active; 'I' for Inactive)
REMARK    1  A    between atoms: C_3  and  N_1 
REMARK    2  A    between atoms: C_6  and  C_3 
REMARK    3  A    between atoms: C_9  and  C_3 
REMARK    4  A    between atoms: N_5  and  C_6 
ROOT
ATOM      1  C   UNL d   1     -58.229 -98.788 -44.642  0.00  0.00     0.106 C 
ENDROOT
BRANCH   1   2
ATOM      2  N   UNL d   1     -58.732 -98.779 -43.987  0.00  0.00    -0.228 N 
ATOM      3  N   UNL d   1     -58.581 -98.782 -43.170  0.00  0.00    -0.165 NA
ATOM      4  C   UNL d   1     -59.313 -98.769 -42.787  0.00  0.00     0.103 A 
ATOM      5  C   UNL d   1     -59.419 -98.767 -41.956  0.00  0.00     0.022 C 
ATOM      6  C   UNL d   1     -59.899 -98.758 -43.340  0.00  0.00     0.040 A 
ATOM      7  C   UNL d   1     -59.547 -98.764 -44.086  0.00  0.00     0.085 A 
ATOM      8  C   UNL d   1     -59.945 -98.757 -44.825  0.00  0.00     0.021 C 
ENDBRANCH   1   2
BRANCH   1   9
ATOM      9  C   UNL d   1     -58.549 -98.755 -45.397  0.00  0.00     0.167 C 
BRANCH   9  10
ATOM     10  N   UNL d   1     -58.857 -99.429 -45.764  0.00  0.00    -0.111 N 
ATOM     11  O   UNL d   1     -58.834-100.163 -45.382  0.00  0.00    -0.532 OA
ATOM     12  O   UNL d   1     -59.187 -99.361 -46.518  0.00  0.00    -0.532 OA
ENDBRANCH   9  10
ENDBRANCH   1   9
BRANCH   1  13
ATOM     13  C   UNL d   1     -57.412 -98.830 -44.521  0.00  0.00     0.019 A 
ATOM     14  C   UNL d   1     -57.126 -98.931 -43.762  0.00  0.00     0.002 A 
ATOM     15  C   UNL d   1     -56.308 -98.976 -43.616  0.00  0.00     0.011 A 
ATOM     16  C   UNL d   1     -55.787 -98.914 -44.281  0.00  0.00     0.058 A 
ATOM     17  C   UNL d   1     -56.082 -98.816 -45.020  0.00  0.00     0.011 A 
ATOM     18 CL   UNL d   1     -54.969 -98.954 -44.182  0.00  0.00    -0.082 Cl
ATOM     19  C   UNL d   1     -56.884 -98.774 -45.146  0.00  0.00     0.002 A 
ENDBRANCH   1  13
TORSDOF 4
ENDMDL
MODEL 2
REMARK VINA RESULT:      30.9      1.783      3.221
REMARK  4 active torsions:
REMARK  status: ('A' for Active; 'I' for Inactive)
REMARK    1  A    between atoms: C_3  and  N_1 
REMARK    2  A    between atoms: C_6  and  C_3 
REMARK    3  A    between atoms: C_9  and  C_3 
REMARK    4  A    between atoms: N_5  and  C_6 
ROOT
ATOM      1  C   UNL d   1     -58.219 -98.841 -44.404  0.00  0.00     0.106 C 
ENDROOT
BRANCH   1   2
ATOM      2  N   UNL d   1     -57.400 -98.938 -44.448  0.00  0.00    -0.228 N 
ATOM      3  N   UNL d   1     -56.887 -99.043 -45.094  0.00  0.00    -0.165 NA
ATOM      4  C   UNL d   1     -56.122 -99.109 -44.788  0.00  0.00     0.103 A 
ATOM      5  C   UNL d   1     -55.431 -99.221 -45.247  0.00  0.00     0.022 C 
ATOM      6  C   UNL d   1     -56.153 -99.048 -43.985  0.00  0.00     0.040 A 
ATOM      7  C   UNL d   1     -56.942 -98.941 -43.767  0.00  0.00     0.085 A 
ATOM      8  C   UNL d   1     -57.235 -98.852 -42.986  0.00  0.00     0.021 C 
ENDBRANCH   1   2
BRANCH   1   9
ATOM      9  C   UNL d   1     -58.577 -98.766 -43.670  0.00  0.00     0.167 C 
BRANCH   9  10
ATOM     10  N   UNL d   1     -59.287 -99.152 -43.495  0.00  0.00    -0.111 N 
ATOM     11  O   UNL d   1     -59.611 -99.111 -42.734  0.00  0.00    -0.532 OA
ATOM     12  O   UNL d   1     -59.670 -99.580 -44.089  0.00  0.00    -0.532 OA
ENDBRANCH   9  10
ENDBRANCH   1   9
BRANCH   1  13
ATOM     13  C   UNL d   1     -58.660 -98.821 -45.103  0.00  0.00     0.019 A 
ATOM     14  C   UNL d   1     -59.477 -98.828 -45.059  0.00  0.00     0.002 A 
ATOM     15  C   UNL d   1     -59.942 -98.809 -45.749  0.00  0.00     0.011 A 
ATOM     16  C   UNL d   1     -59.539 -98.781 -46.493  0.00  0.00     0.058 A 
ATOM     17  C   UNL d   1     -58.737 -98.775 -46.520  0.00  0.00     0.011 A 
ATOM     18 CL   UNL d   1     -59.960 -98.761 -47.202  0.00  0.00    -0.082 Cl
ATOM     19  C   UNL d   1     -58.296 -98.794 -45.837  0.00  0.00     0.002 A 
ENDBRANCH   1  13
TORSDOF 4
ENDMDL
