MODEL 1
REMARK VINA RESULT:      82.7      0.000      0.000
REMARK  5 active torsions:
REMARK  status: ('A' for Active; 'I' for Inactive)
REMARK    1  A    between atoms: C_14  and  N_4 
REMARK    2  A    between atoms: C_15  and  C_9 
REMARK    3  A    between atoms: O_20  and  C_12 
REMARK    4  A    between atoms: O_21  and  C_13 
REMARK    5  A    between atoms: C_18  and  C_14 
ROOT
ATOM      1  C   UNL d   1      14.418  14.735  -2.580  0.00  0.00     0.056 A 
ATOM      2  C   UNL d   1      14.793  15.446  -2.786  0.00  0.00     0.107 A 
ATOM      3  C   UNL d   1      14.571  15.849  -3.468  0.00  0.00     0.038 A 
ATOM      4  N   UNL d   1      13.606  14.844  -3.747  0.00  0.00    -0.304 N 
ATOM      5  N   UNL d   1      15.358  15.607  -2.204  0.00  0.00    -0.148 NA
ATOM      6  C   UNL d   1      13.820  14.431  -3.063  0.00  0.00     0.083 A 
ATOM      7  N   UNL d   1      15.334  15.001  -1.644  0.00  0.00    -0.148 NA
ATOM      8  C   UNL d   1      13.974  15.546  -3.951  0.00  0.00     0.068 A 
ATOM      9  C   UNL d   1      14.755  14.460  -1.871  0.00  0.00     0.106 A 
ATOM     10  C   UNL d   1      13.758  15.952  -4.630  0.00  0.00     0.044 A 
ATOM     11  C   UNL d   1      14.946  16.554  -3.669  0.00  0.00     0.029 A 
ATOM     12  C   UNL d   1      14.127  16.653  -4.835  0.00  0.00     0.118 A 
ATOM     13  C   UNL d   1      14.724  16.956  -4.351  0.00  0.00     0.116 A 
ENDROOT
BRANCH   4  14
ATOM     14  C   UNL d   1      13.003  14.538  -4.234  0.00  0.00     0.080 C 
BRANCH  14  15
ATOM     15  C   UNL d   1      13.134  13.851  -4.669  0.00  0.00     0.018 A 
ATOM     16  C   UNL d   1      12.769  13.149  -4.445  0.00  0.00     0.002 A 
ATOM     17  C   UNL d   1      12.898  12.454  -4.881  0.00  0.00     0.000 A 
ATOM     18  C   UNL d   1      13.398  12.470  -5.544  0.00  0.00     0.000 A 
ATOM     19  C   UNL d   1      13.764  13.181  -5.766  0.00  0.00     0.000 A 
ATOM     20  C   UNL d   1      13.532  11.779  -5.985  0.00  0.00     0.000 C 
ATOM     21  C   UNL d   1      13.634  13.867  -5.331  0.00  0.00     0.002 A 
ENDBRANCH  14  15
ENDBRANCH   4  14
BRANCH   9  22
ATOM     22  C   UNL d   1      14.613  13.794  -1.406  0.00  0.00     0.020 A 
ATOM     23  C   UNL d   1      14.300  13.884  -0.649  0.00  0.00     0.004 A 
ATOM     24  C   UNL d   1      14.154  13.220  -0.175  0.00  0.00     0.030 A 
ATOM     25  C   UNL d   1      14.327  12.456  -0.473  0.00  0.00     0.140 A 
ATOM     26  C   UNL d   1      14.641  12.374  -1.234  0.00  0.00     0.030 A 
ATOM     27  F   UNL d   1      14.188  11.780  -0.015  0.00  0.00    -0.204 F 
ATOM     28  C   UNL d   1      14.783  13.038  -1.698  0.00  0.00     0.004 A 
ENDBRANCH   9  22
BRANCH  12  29
ATOM     29  O   UNL d   1      13.904  17.064  -5.527  0.00  0.00    -0.326 OA
ATOM     30  C   UNL d   1      13.572  16.656  -6.165  0.00  0.00     0.181 C 
ENDBRANCH  12  29
BRANCH  13  31
ATOM     31  O   UNL d   1      15.100  17.671  -4.559  0.00  0.00    -0.326 OA
ATOM     32  C   UNL d   1      15.896  17.672  -4.779  0.00  0.00     0.181 C 
ENDBRANCH  13  31
TORSDOF 5
ENDMDL
MODEL 2
REMARK VINA RESULT:      84.0      1.678      3.694
REMARK  5 active torsions:
REMARK  status: ('A' for Active; 'I' for Inactive)
REMARK    1  A    between atoms: C_14  and  N_4 
REMARK    2  A    between atoms: C_15  and  C_9 
REMARK    3  A    between atoms: O_20  and  C_12 
REMARK    4  A    between atoms: O_21  and  C_13 
REMARK    5  A    between atoms: C_18  and  C_14 
ROOT
ATOM      1  C   UNL d   1      14.222  15.032  -3.036  0.00  0.00     0.056 A 
ATOM      2  C   UNL d   1      14.357  15.847  -3.119  0.00  0.00     0.107 A 
ATOM      3  C   UNL d   1      14.723  16.270  -2.515  0.00  0.00     0.038 A 
ATOM      4  N   UNL d   1      14.822  15.080  -1.744  0.00  0.00    -0.304 N 
ATOM      5  N   UNL d   1      14.067  16.074  -3.859  0.00  0.00    -0.148 NA
ATOM      6  C   UNL d   1      14.456  14.646  -2.344  0.00  0.00     0.083 A 
ATOM      7  N   UNL d   1      13.755  15.406  -4.231  0.00  0.00    -0.148 NA
ATOM      8  C   UNL d   1      14.957  15.883  -1.823  0.00  0.00     0.068 A 
ATOM      9  C   UNL d   1      13.848  14.760  -3.728  0.00  0.00     0.106 A 
ATOM     10  C   UNL d   1      15.321  16.310  -1.225  0.00  0.00     0.044 A 
ATOM     11  C   UNL d   1      14.856  17.078  -2.600  0.00  0.00     0.029 A 
ATOM     12  C   UNL d   1      15.455  17.114  -1.305  0.00  0.00     0.118 A 
ATOM     13  C   UNL d   1      15.221  17.500  -1.996  0.00  0.00     0.116 A 
ENDROOT
BRANCH   4  14
ATOM     14  C   UNL d   1      15.058  14.690  -1.046  0.00  0.00     0.080 C 
BRANCH  14  15
ATOM     15  C   UNL d   1      14.719  13.968  -0.843  0.00  0.00     0.018 A 
ATOM     16  C   UNL d   1      14.927  13.287  -1.254  0.00  0.00     0.002 A 
ATOM     17  C   UNL d   1      14.587  12.557  -1.052  0.00  0.00     0.000 A 
ATOM     18  C   UNL d   1      14.036  12.517  -0.432  0.00  0.00     0.000 A 
ATOM     19  C   UNL d   1      13.829  13.207  -0.019  0.00  0.00     0.000 A 
ATOM     20  C   UNL d   1      13.691  11.790  -0.223  0.00  0.00     0.000 C 
ATOM     21  C   UNL d   1      14.169  13.928  -0.223  0.00  0.00     0.002 A 
ENDBRANCH  14  15
ENDBRANCH   4  14
BRANCH   9  22
ATOM     22  C   UNL d   1      13.582  14.017  -3.963  0.00  0.00     0.020 A 
ATOM     23  C   UNL d   1      13.833  13.346  -3.556  0.00  0.00     0.004 A 
ATOM     24  C   UNL d   1      13.571  12.594  -3.787  0.00  0.00     0.030 A 
ATOM     25  C   UNL d   1      13.048  12.523  -4.437  0.00  0.00     0.140 A 
ATOM     26  C   UNL d   1      12.800  13.201  -4.842  0.00  0.00     0.030 A 
ATOM     27  F   UNL d   1      12.774  11.780  -4.683  0.00  0.00    -0.204 F 
ATOM     28  C   UNL d   1      13.066  13.944  -4.606  0.00  0.00     0.004 A 
ENDBRANCH   9  22
BRANCH  12  29
ATOM     29  O   UNL d   1      15.827  17.545  -0.693  0.00  0.00    -0.326 OA
ATOM     30  C   UNL d   1      16.249  17.151  -0.102  0.00  0.00     0.181 C 
ENDBRANCH  12  29
BRANCH  13  31
ATOM     31  O   UNL d   1      15.358  18.318  -2.078  0.00  0.00    -0.326 OA
ATOM     32  C   UNL d   1      15.032  18.731  -2.714  0.00  0.00     0.181 C 
ENDBRANCH  13  31
TORSDOF 5
ENDMDL
