MODEL 1
REMARK VINA RESULT:      -7.6      0.000      0.000
REMARK  3 active torsions:
REMARK  status: ('A' for Active; 'I' for Inactive)
REMARK    1  A    between atoms: S_5  and  C_1 
REMARK    2  A    between atoms: N_3  and  C_2 
REMARK    3  A    between atoms: C_4  and  S_5 
ROOT
ATOM      1  C   UNL d   1     -48.925  13.790  22.412  0.00  0.00     0.140 A 
ATOM      2  C   UNL d   1     -49.577  14.253  22.402  0.00  0.00     0.188 A 
ATOM      3  N   UNL d   1     -48.845  13.149  21.920  0.00  0.00    -0.216 NA
ATOM      4  C   UNL d   1     -50.199  14.074  21.868  0.00  0.00     0.209 A 
ATOM      5  N   UNL d   1     -50.125  13.443  21.381  0.00  0.00    -0.202 NA
ATOM      6  C   UNL d   1     -49.467  12.970  21.386  0.00  0.00     0.201 A 
ATOM      7  N   UNL d   1     -50.725  14.424  21.839  0.00  0.00    -0.125 N 
ENDROOT
BRANCH   1   8
ATOM      8  S   UNL d   1     -48.303  13.969  22.946  0.00  0.00    -0.028 SA
BRANCH   8   9
ATOM      9  C   UNL d   1     -47.597  13.488  22.950  0.00  0.00     0.196 A 
ATOM     10  N   UNL d   1     -47.600  12.753  23.322  0.00  0.00    -0.221 NA
ATOM     11  C   UNL d   1     -46.890  12.320  23.300  0.00  0.00     0.085 A 
ATOM     12  C   UNL d   1     -46.910  11.546  23.698  0.00  0.00     0.021 C 
ATOM     13  C   UNL d   1     -46.221  12.589  22.937  0.00  0.00     0.038 A 
ATOM     14  C   UNL d   1     -46.221  13.309  22.573  0.00  0.00     0.085 A 
ATOM     15  N   UNL d   1     -46.938  13.786  22.576  0.00  0.00    -0.221 NA
ATOM     16  C   UNL d   1     -45.537  13.585  22.202  0.00  0.00     0.021 C 
ENDBRANCH   8   9
ENDBRANCH   1   8
BRANCH   2  17
ATOM     17  N   UNL d   1     -49.657  14.893  22.893  0.00  0.00    -0.108 N 
ATOM     18  O   UNL d   1     -49.975  14.865  23.682  0.00  0.00    -0.532 OA
ATOM     19  O   UNL d   1     -49.433  15.672  22.685  0.00  0.00    -0.532 OA
ENDBRANCH   2  17
TORSDOF 3
ENDMDL
MODEL 2
REMARK VINA RESULT:      -5.4      9.074      9.789
REMARK  3 active torsions:
REMARK  status: ('A' for Active; 'I' for Inactive)
REMARK    1  A    between atoms: S_5  and  C_1 
REMARK    2  A    between atoms: N_3  and  C_2 
REMARK    3  A    between atoms: C_4  and  S_5 
ROOT
ATOM      1  C   UNL d   1     -39.655  15.101  18.661  0.00  0.00     0.140 A 
ATOM      2  C   UNL d   1     -39.904  14.973  17.911  0.00  0.00     0.188 A 
ATOM      3  N   UNL d   1     -39.001  15.554  18.824  0.00  0.00    -0.216 NA
ATOM      4  C   UNL d   1     -39.480  15.316  17.274  0.00  0.00     0.209 A 
ATOM      5  N   UNL d   1     -38.836  15.763  17.429  0.00  0.00    -0.202 NA
ATOM      6  C   UNL d   1     -38.577  15.897  18.186  0.00  0.00     0.201 A 
ATOM      7  N   UNL d   1     -39.657  15.230  16.672  0.00  0.00    -0.125 N 
ENDROOT
BRANCH   1   8
ATOM      8  S   UNL d   1     -40.079  14.758  19.298  0.00  0.00    -0.028 SA
BRANCH   8   9
ATOM      9  C   UNL d   1     -39.732  14.748  20.080  0.00  0.00     0.196 A 
ATOM     10  N   UNL d   1     -39.197  14.157  20.286  0.00  0.00    -0.221 NA
ATOM     11  C   UNL d   1     -38.885  14.188  21.057  0.00  0.00     0.085 A 
ATOM     12  C   UNL d   1     -38.321  13.557  21.260  0.00  0.00     0.021 C 
ATOM     13  C   UNL d   1     -39.086  14.760  21.590  0.00  0.00     0.038 A 
ATOM     14  C   UNL d   1     -39.611  15.337  21.385  0.00  0.00     0.085 A 
ATOM     15  N   UNL d   1     -39.954  15.337  20.595  0.00  0.00    -0.221 NA
ATOM     16  C   UNL d   1     -39.816  15.922  21.931  0.00  0.00     0.021 C 
ENDBRANCH   8   9
ENDBRANCH   1   8
BRANCH   2  17
ATOM     17  N   UNL d   1     -40.557  14.520  17.748  0.00  0.00    -0.108 N 
ATOM     18  O   UNL d   1     -40.559  13.671  17.693  0.00  0.00    -0.532 OA
ATOM     19  O   UNL d   1     -41.320  14.834  17.611  0.00  0.00    -0.532 OA
ENDBRANCH   2  17
TORSDOF 3
ENDMDL
