MODEL 1
REMARK VINA RESULT:      51.8      0.000      0.000
REMARK  2 active torsions:
REMARK  status: ('A' for Active; 'I' for Inactive)
REMARK    1  A    between atoms: C_8  and  N_2 
REMARK    2  A    between atoms: N_7  and  C_4 
ROOT
ATOM      1  C   UNL d   1     -50.718  25.389  33.629  0.00  0.00     0.358 A 
ATOM      2  N   UNL d   1     -51.521  25.580  33.675  0.00  0.00    -0.226 N 
ATOM      3  N   UNL d   1     -50.153  25.974  33.721  0.00  0.00    -0.174 NA
ATOM      4  C   UNL d   1     -50.380  26.752  33.860  0.00  0.00     0.158 A 
ATOM      5  C   UNL d   1     -51.758  26.356  33.814  0.00  0.00     0.271 A 
ATOM      6  C   UNL d   1     -51.184  26.943  33.907  0.00  0.00     0.099 A 
ATOM      7  O   UNL d   1     -50.488  24.605  33.488  0.00  0.00    -0.244 OA
ATOM      8  O   UNL d   1     -52.561  26.547  33.861  0.00  0.00    -0.266 OA
ENDROOT
BRANCH   2   9
ATOM      9  C   UNL d   1     -52.092  24.992  33.582  0.00  0.00     0.071 A 
ATOM     10  C   UNL d   1     -51.878  24.197  33.645  0.00  0.00     0.019 A 
ATOM     11  C   UNL d   1     -52.441  23.608  33.554  0.00  0.00     0.013 A 
ATOM     12  C   UNL d   1     -53.227  23.814  33.397  0.00  0.00     0.058 A 
ATOM     13  C   UNL d   1     -53.433  24.605  33.336  0.00  0.00     0.013 A 
ATOM     14 CL   UNL d   1     -53.789  23.227  33.306  0.00  0.00    -0.082 Cl
ATOM     15  C   UNL d   1     -52.870  25.196  33.428  0.00  0.00     0.019 A 
ENDBRANCH   2   9
BRANCH   4  16
ATOM     16  N   UNL d   1     -49.814  27.341  33.954  0.00  0.00    -0.285 N 
ATOM     17  C   UNL d   1     -49.361  27.361  34.646  0.00  0.00     0.108 A 
ATOM     18  C   UNL d   1     -48.792  27.950  34.742  0.00  0.00     0.142 A 
ATOM     19  O   UNL d   1     -48.673  28.523  34.146  0.00  0.00    -0.300 OA
ATOM     20  C   UNL d   1     -49.133  28.487  33.464  0.00  0.00     0.142 A 
ATOM     21  C   UNL d   1     -49.702  27.898  33.368  0.00  0.00     0.108 A 
ENDBRANCH   4  16
TORSDOF 2
ENDMDL
