MODEL 1
REMARK VINA RESULT:     104.6      0.000      0.000
REMARK  9 active torsions:
REMARK  status: ('A' for Active; 'I' for Inactive)
REMARK    1  A    between atoms: C_2  and  C_1 
REMARK    2  A    between atoms: C_23  and  C_7 
REMARK    3  A    between atoms: C_12  and  O_16 
REMARK    4  A    between atoms: C_18  and  C_12 
REMARK    5  A    between atoms: O_16  and  C_14 
REMARK    6  A    between atoms: C_30  and  C_17 
REMARK    7  A    between atoms: C_20  and  C_28 
REMARK    8  A    between atoms: O_25  and  C_23 
REMARK    9  A    between atoms: C_28  and  O_25 
ROOT
ATOM      1  C   UNL d   1     -50.837  26.362  34.655  0.00  0.00     0.098 A 
ATOM      2  C   UNL d   1     -50.466  26.883  34.118  0.00  0.00     0.202 A 
ATOM      3  C   UNL d   1     -49.967  27.480  34.393  0.00  0.00     0.062 A 
ATOM      4  C   UNL d   1     -50.701  26.449  35.474  0.00  0.00     0.130 A 
ATOM      5  C   UNL d   1     -49.832  27.566  35.212  0.00  0.00     0.105 A 
ATOM      6  O   UNL d   1     -50.198  27.050  35.762  0.00  0.00    -0.305 OA
ATOM      7  C   UNL d   1     -49.602  27.992  33.866  0.00  0.00     0.007 A 
ATOM      8  C   UNL d   1     -48.970  28.675  34.953  0.00  0.00     0.105 A 
ATOM      9  C   UNL d   1     -49.333  28.163  35.489  0.00  0.00     0.050 A 
ATOM     10  C   UNL d   1     -49.104  28.589  34.142  0.00  0.00     0.023 A 
ATOM     11  O   UNL d   1     -50.600  26.797  33.306  0.00  0.00    -0.286 OA
ENDROOT
BRANCH   1  12
ATOM     12  C   UNL d   1     -51.335  25.765  34.376  0.00  0.00     0.153 A 
ATOM     13  N   UNL d   1     -52.155  25.743  34.466  0.00  0.00    -0.227 NA
ATOM     14  C   UNL d   1     -52.429  25.054  34.106  0.00  0.00     0.099 A 
ATOM     15  C   UNL d   1     -53.185  24.742  34.022  0.00  0.00     0.021 A 
ATOM     16  C   UNL d   1     -51.779  24.652  33.794  0.00  0.00     0.083 A 
ATOM     17  C   UNL d   1     -53.295  24.026  33.626  0.00  0.00     0.002 A 
ATOM     18  C   UNL d   1     -52.638  23.628  33.316  0.00  0.00     0.002 A 
ATOM     19  C   UNL d   1     -51.885  23.939  33.399  0.00  0.00     0.019 A 
ATOM     20  N   UNL d   1     -51.105  25.096  33.964  0.00  0.00    -0.288 N 
ATOM     21  C   UNL d   1     -50.332  24.898  33.753  0.00  0.00     0.101 C 
ENDBRANCH   1  12
BRANCH   4  22
ATOM     22  C   UNL d   1     -51.070  25.930  36.012  0.00  0.00     0.142 C 
BRANCH  22  23
ATOM     23  O   UNL d   1     -51.093  26.115  36.816  0.00  0.00    -0.315 OA
BRANCH  23  24
ATOM     24  C   UNL d   1     -51.822  26.196  37.202  0.00  0.00     0.246 C 
BRANCH  24  25
ATOM     25  C   UNL d   1     -51.910  25.903  37.972  0.00  0.00     0.217 C 
ATOM     26  O   UNL d   1     -51.355  26.084  38.558  0.00  0.00    -0.645 OA
ATOM     27  O   UNL d   1     -52.559  25.426  38.152  0.00  0.00    -0.645 OA
ENDBRANCH  24  25
ENDBRANCH  23  24
ENDBRANCH  22  23
ENDBRANCH   4  22
BRANCH  10  28
ATOM     28  C   UNL d   1     -48.738  29.104  33.605  0.00  0.00     0.002 C 
ATOM     29  C   UNL d   1     -49.098  29.820  33.410  0.00  0.00     0.000 C 
ENDBRANCH  10  28
BRANCH   8  30
ATOM     30  O   UNL d   1     -48.471  29.272  35.229  0.00  0.00    -0.276 OA
BRANCH  30  31
ATOM     31  C   UNL d   1     -47.773  29.078  35.626  0.00  0.00     0.275 C 
ATOM     32  O   UNL d   1     -47.548  28.288  35.707  0.00  0.00    -0.264 OA
BRANCH  31  33
ATOM     33  C   UNL d   1     -47.297  29.678  35.943  0.00  0.00     0.078 C 
ATOM     34  C   UNL d   1     -46.822  30.282  36.264  0.00  0.00     0.010 C 
ATOM     35  C   UNL d   1     -46.690  29.468  35.427  0.00  0.00     0.010 C 
ATOM     36  C   UNL d   1     -47.914  29.884  36.460  0.00  0.00     0.010 C 
ENDBRANCH  31  33
ENDBRANCH  30  31
ENDBRANCH   8  30
TORSDOF 9
ENDMDL
