MODEL 1
REMARK VINA RESULT:      49.1      0.000      0.000
REMARK  4 active torsions:
REMARK  status: ('A' for Active; 'I' for Inactive)
REMARK    1  A    between atoms: S_5  and  C_2 
REMARK    2  A    between atoms: C_14  and  S_5 
REMARK    3  A    between atoms: N_11  and  C_8 
REMARK    4  A    between atoms: C_15  and  N_11 
ROOT
ATOM      1  C   UNL d   1      14.037  14.000  -2.962  0.00  0.00     0.197 A 
ATOM      2  C   UNL d   1      14.180  14.791  -2.781  0.00  0.00     0.227 A 
ATOM      3  N   UNL d   1      13.623  13.970  -3.677  0.00  0.00    -0.192 N 
ATOM      4  N   UNL d   1      14.232  13.298  -2.567  0.00  0.00    -0.206 NA
ATOM      5  N   UNL d   1      13.851  15.258  -3.389  0.00  0.00    -0.115 NA
ATOM      6  N   UNL d   1      13.507  14.743  -3.942  0.00  0.00    -0.058 NA
ATOM      7  C   UNL d   1      14.013  12.562  -2.884  0.00  0.00     0.166 A 
ATOM      8  C   UNL d   1      13.599  12.541  -3.600  0.00  0.00     0.054 A 
ATOM      9  C   UNL d   1      13.401  13.236  -3.999  0.00  0.00     0.089 A 
ATOM     10  C   UNL d   1      13.376  11.809  -3.925  0.00  0.00     0.005 A 
ATOM     11  C   UNL d   1      12.988  13.210  -4.713  0.00  0.00     0.019 A 
ATOM     12  C   UNL d   1      12.964  11.782  -4.636  0.00  0.00     0.000 A 
ATOM     13  C   UNL d   1      12.769  12.484  -5.032  0.00  0.00     0.002 A 
ENDROOT
BRANCH   2  14
ATOM     14  S   UNL d   1      14.576  15.081  -2.119  0.00  0.00     0.231 S 
ATOM     15  O   UNL d   1      15.230  14.603  -2.264  0.00  0.00    -0.215 OA
ATOM     16  O   UNL d   1      13.917  15.561  -1.976  0.00  0.00    -0.215 OA
BRANCH  14  17
ATOM     17  C   UNL d   1      14.927  15.402  -1.450  0.00  0.00     0.090 A 
ATOM     18  C   UNL d   1      15.044  14.934  -0.784  0.00  0.00     0.011 A 
ATOM     19  C   UNL d   1      15.394  15.245  -0.111  0.00  0.00     0.001 A 
ATOM     20  C   UNL d   1      15.631  16.041  -0.105  0.00  0.00     0.000 A 
ATOM     21  C   UNL d   1      15.511  16.510  -0.777  0.00  0.00     0.001 A 
ATOM     22  C   UNL d   1      15.162  16.192  -1.444  0.00  0.00     0.011 A 
ENDBRANCH  14  17
ENDBRANCH   2  14
BRANCH   7  23
ATOM     23  N   UNL d   1      14.206  11.863  -2.491  0.00  0.00    -0.227 NA
BRANCH  23  24
ATOM     24  C   UNL d   1      14.208  11.839  -1.668  0.00  0.00     0.083 A 
ATOM     25  C   UNL d   1      13.494  11.828  -1.254  0.00  0.00     0.019 A 
ATOM     26  C   UNL d   1      13.497  11.804  -0.431  0.00  0.00     0.002 A 
ATOM     27  C   UNL d   1      12.784  11.793  -0.016  0.00  0.00     0.000 C 
ATOM     28  C   UNL d   1      14.215  11.790  -0.016  0.00  0.00     0.000 A 
ATOM     29  C   UNL d   1      14.931  11.801  -0.441  0.00  0.00     0.002 A 
ATOM     30  C   UNL d   1      14.923  11.825  -1.260  0.00  0.00     0.019 A 
ENDBRANCH  23  24
ENDBRANCH   7  23
TORSDOF 4
ENDMDL
