MODEL 1
REMARK VINA RESULT:       0.8      0.000      0.000
REMARK  7 active torsions:
REMARK  status: ('A' for Active; 'I' for Inactive)
REMARK    1  A    between atoms: C_13  and  N_1 
REMARK    2  A    between atoms: C_2  and  N_6 
REMARK    3  A    between atoms: C_9  and  C_5 
REMARK       I    between atoms: N_6  and  C_9 
REMARK    4  A    between atoms: S_14  and  C_7 
REMARK    5  A    between atoms: C_21  and  S_14 
REMARK    6  A    between atoms: C_15  and  C_21 
REMARK    7  A    between atoms: O_25  and  C_15 
ROOT
ATOM      1  N   UNL d   1     -41.460-122.580 -52.119  0.00  0.00    -0.181 NA
ATOM      2  C   UNL d   1     -41.347-123.089 -51.540  0.00  0.00     0.283 C 
ATOM      3  O   UNL d   1     -41.123-123.817 -51.701  0.00  0.00    -0.265 OA
ENDROOT
BRANCH   2   4
ATOM      4  C   UNL d   1     -41.458-122.870 -50.805  0.00  0.00     0.080 A 
ATOM      5  C   UNL d   1     -41.842-123.265 -50.259  0.00  0.00     0.088 A 
ATOM      6  N   UNL d   1     -41.822-122.848 -49.602  0.00  0.00    -0.273 N 
ATOM      7  C   UNL d   1     -41.428-122.199 -49.743  0.00  0.00     0.265 A 
ATOM      8  C   UNL d   1     -41.199-122.208 -50.490  0.00  0.00     0.067 A 
ATOM      9  O   UNL d   1     -41.281-121.629 -49.227  0.00  0.00    -0.267 OA
BRANCH   6  10
ATOM     10  C   UNL d   1     -42.170-123.070 -48.871  0.00  0.00     0.067 A 
ATOM     11  C   UNL d   1     -41.691-123.392 -48.269  0.00  0.00     0.020 A 
ATOM     12  C   UNL d   1     -42.047-123.610 -47.544  0.00  0.00     0.031 A 
ATOM     13  C   UNL d   1     -42.859-123.509 -47.422  0.00  0.00     0.140 A 
ATOM     14  C   UNL d   1     -43.335-123.184 -48.032  0.00  0.00     0.031 A 
ATOM     15  F   UNL d   1     -43.215-123.729 -46.691  0.00  0.00    -0.204 F 
ATOM     16  C   UNL d   1     -42.993-122.967 -48.749  0.00  0.00     0.020 A 
ENDBRANCH   6  10
ENDBRANCH   2   4
BRANCH   1  17
ATOM     17  C   UNL d   1     -41.349-122.796 -52.857  0.00  0.00     0.219 A 
ATOM     18  S   UNL d   1     -41.329-122.325 -53.476  0.00  0.00    -0.019 SA
ATOM     19  C   UNL d   1     -41.208-122.756 -54.102  0.00  0.00     0.165 A 
ATOM     20  N   UNL d   1     -41.151-123.503 -53.886  0.00  0.00    -0.133 NA
ATOM     21  N   UNL d   1     -41.240-123.527 -53.103  0.00  0.00    -0.120 NA
BRANCH  19  22
ATOM     22  S   UNL d   1     -41.123-121.933 -55.603  0.00  0.00    -0.053 SA
BRANCH  22  23
ATOM     23  C   UNL d   1     -41.665-122.114 -56.211  0.00  0.00     0.106 C 
BRANCH  23  24
ATOM     24  C   UNL d   1     -42.417-121.729 -56.237  0.00  0.00     0.303 C 
ATOM     25  O   UNL d   1     -42.464-120.896 -56.286  0.00  0.00    -0.259 OA
BRANCH  24  26
ATOM     26  O   UNL d   1     -43.115-122.203 -56.213  0.00  0.00    -0.295 OA
ATOM     27  C   UNL d   1     -43.583-122.187 -55.523  0.00  0.00     0.185 C 
ENDBRANCH  24  26
ENDBRANCH  23  24
ENDBRANCH  22  23
ENDBRANCH  19  22
ENDBRANCH   1  17
TORSDOF 7
ENDMDL
MODEL 2
REMARK VINA RESULT:       2.3      1.155      1.308
REMARK  7 active torsions:
REMARK  status: ('A' for Active; 'I' for Inactive)
REMARK    1  A    between atoms: C_13  and  N_1 
REMARK    2  A    between atoms: C_2  and  N_6 
REMARK    3  A    between atoms: C_9  and  C_5 
REMARK       I    between atoms: N_6  and  C_9 
REMARK    4  A    between atoms: S_14  and  C_7 
REMARK    5  A    between atoms: C_21  and  S_14 
REMARK    6  A    between atoms: C_15  and  C_21 
REMARK    7  A    between atoms: O_25  and  C_15 
ROOT
ATOM      1  N   UNL d   1     -41.337-122.138 -51.443  0.00  0.00    -0.181 NA
ATOM      2  C   UNL d   1     -41.904-122.631 -51.233  0.00  0.00     0.283 C 
ATOM      3  O   UNL d   1     -42.453-122.833 -51.746  0.00  0.00    -0.265 OA
ENDROOT
BRANCH   2   4
ATOM      4  C   UNL d   1     -41.919-122.918 -50.513  0.00  0.00     0.080 A 
ATOM      5  C   UNL d   1     -42.531-122.938 -50.038  0.00  0.00     0.088 A 
ATOM      6  N   UNL d   1     -42.308-123.271 -49.371  0.00  0.00    -0.273 N 
ATOM      7  C   UNL d   1     -41.561-123.455 -49.435  0.00  0.00     0.265 A 
ATOM      8  C   UNL d   1     -41.313-123.237 -50.144  0.00  0.00     0.067 A 
ATOM      9  O   UNL d   1     -41.123-123.800 -48.886  0.00  0.00    -0.267 OA
BRANCH   6  10
ATOM     10  C   UNL d   1     -42.797-123.405 -48.702  0.00  0.00     0.067 A 
ATOM     11  C   UNL d   1     -42.453-123.450 -47.944  0.00  0.00     0.020 A 
ATOM     12  C   UNL d   1     -42.948-123.583 -47.283  0.00  0.00     0.031 A 
ATOM     13  C   UNL d   1     -43.766-123.669 -47.376  0.00  0.00     0.140 A 
ATOM     14  C   UNL d   1     -44.105-123.623 -48.141  0.00  0.00     0.031 A 
ATOM     15  F   UNL d   1     -44.262-123.804 -46.708  0.00  0.00    -0.204 F 
ATOM     16  C   UNL d   1     -43.626-123.492 -48.797  0.00  0.00     0.020 A 
ENDBRANCH   6  10
ENDBRANCH   2   4
BRANCH   1  17
ATOM     17  C   UNL d   1     -41.319-121.849 -52.163  0.00  0.00     0.219 A 
ATOM     18  S   UNL d   1     -41.326-122.260 -52.824  0.00  0.00    -0.019 SA
ATOM     19  C   UNL d   1     -41.301-121.765 -53.414  0.00  0.00     0.165 A 
ATOM     20  N   UNL d   1     -41.278-121.039 -53.133  0.00  0.00    -0.133 NA
ATOM     21  N   UNL d   1     -41.289-121.092 -52.346  0.00  0.00    -0.120 NA
BRANCH  19  22
ATOM     22  S   UNL d   1     -41.307-122.441 -54.989  0.00  0.00    -0.053 SA
BRANCH  22  23
ATOM     23  C   UNL d   1     -41.953-122.905 -55.243  0.00  0.00     0.106 C 
BRANCH  23  24
ATOM     24  C   UNL d   1     -42.656-122.532 -55.529  0.00  0.00     0.303 C 
ATOM     25  O   UNL d   1     -43.403-122.744 -55.222  0.00  0.00    -0.259 OA
BRANCH  24  26
ATOM     26  O   UNL d   1     -42.585-121.945 -56.131  0.00  0.00    -0.295 OA
ATOM     27  C   UNL d   1     -43.154-121.928 -56.741  0.00  0.00     0.185 C 
ENDBRANCH  24  26
ENDBRANCH  23  24
ENDBRANCH  22  23
ENDBRANCH  19  22
ENDBRANCH   1  17
TORSDOF 7
ENDMDL
