MODEL 1
REMARK VINA RESULT:      -4.8      0.000      0.000
REMARK  4 active torsions:
REMARK  status: ('A' for Active; 'I' for Inactive)
REMARK    1  A    between atoms: C_8  and  N_1 
REMARK    2  A    between atoms: C_7  and  C_2 
REMARK    3  A    between atoms: C_9  and  C_7 
REMARK    4  A    between atoms: C_17  and  C_8 
ROOT
ATOM      1  N   UNL d   1      58.440   0.497  30.546  0.00  0.00    -0.224 N 
ATOM      2  C   UNL d   1      57.515   0.503  31.630  0.00  0.00     0.117 A 
ATOM      3  C   UNL d   1      57.665   0.441  30.818  0.00  0.00     0.273 A 
ATOM      4  C   UNL d   1      59.052   0.613  31.067  0.00  0.00     0.359 A 
ATOM      5  N   UNL d   1      58.895   0.674  31.867  0.00  0.00    -0.153 NA
ATOM      6  C   UNL d   1      58.127   0.619  32.151  0.00  0.00     0.288 A 
ATOM      7  O   UNL d   1      59.823   0.670  30.801  0.00  0.00    -0.244 OA
ATOM      8  O   UNL d   1      57.051   0.324  30.295  0.00  0.00    -0.266 OA
ATOM      9  O   UNL d   1      57.984   0.682  32.956  0.00  0.00    -0.265 OA
ENDROOT
BRANCH   1  10
ATOM     10  C   UNL d   1      58.588   0.435  29.736  0.00  0.00     0.087 C 
BRANCH  10  11
ATOM     11  C   UNL d   1      58.903  -0.268  29.435  0.00  0.00     0.018 A 
ATOM     12  C   UNL d   1      59.669  -0.292  29.168  0.00  0.00     0.002 A 
ATOM     13  C   UNL d   1      59.985  -0.993  28.866  0.00  0.00     0.000 A 
ATOM     14  C   UNL d   1      59.512  -1.672  28.840  0.00  0.00     0.000 A 
ATOM     15  C   UNL d   1      58.746  -1.648  29.107  0.00  0.00     0.000 A 
ATOM     16  C   UNL d   1      58.431  -0.945  29.409  0.00  0.00     0.002 A 
ENDBRANCH  10  11
ENDBRANCH   1  10
BRANCH   2  17
ATOM     17  C   UNL d   1      56.731   0.446  31.913  0.00  0.00     0.034 C 
BRANCH  17  18
ATOM     18  C   UNL d   1      56.454  -0.263  32.204  0.00  0.00     0.100 A 
ATOM     19  O   UNL d   1      56.642  -1.047  32.036  0.00  0.00    -0.305 OA
ATOM     20  C   UNL d   1      56.183  -1.517  32.502  0.00  0.00     0.123 A 
ATOM     21  C   UNL d   1      55.705  -1.058  32.964  0.00  0.00     0.029 A 
ATOM     22  C   UNL d   1      55.868  -0.274  32.785  0.00  0.00     0.027 A 
ENDBRANCH  17  18
ENDBRANCH   2  17
TORSDOF 4
ENDMDL
MODEL 2
REMARK VINA RESULT:      -4.0      1.319      2.163
REMARK  4 active torsions:
REMARK  status: ('A' for Active; 'I' for Inactive)
REMARK    1  A    between atoms: C_8  and  N_1 
REMARK    2  A    between atoms: C_7  and  C_2 
REMARK    3  A    between atoms: C_9  and  C_7 
REMARK    4  A    between atoms: C_17  and  C_8 
ROOT
ATOM      1  N   UNL d   1      59.487  -0.835  29.104  0.00  0.00    -0.224 N 
ATOM      2  C   UNL d   1      58.710  -0.014  29.971  0.00  0.00     0.117 A 
ATOM      3  C   UNL d   1      58.757  -0.523  29.321  0.00  0.00     0.273 A 
ATOM      4  C   UNL d   1      60.156  -0.646  29.524  0.00  0.00     0.359 A 
ATOM      5  N   UNL d   1      60.102  -0.142  30.165  0.00  0.00    -0.153 NA
ATOM      6  C   UNL d   1      59.379   0.176  30.391  0.00  0.00     0.288 A 
ATOM      7  O   UNL d   1      60.884  -0.954  29.312  0.00  0.00    -0.244 OA
ATOM      8  O   UNL d   1      58.085  -0.713  28.899  0.00  0.00    -0.266 OA
ATOM      9  O   UNL d   1      59.339   0.680  31.036  0.00  0.00    -0.265 OA
ENDROOT
BRANCH   1  10
ATOM     10  C   UNL d   1      59.532  -1.343  28.455  0.00  0.00     0.087 C 
BRANCH  10  11
ATOM     11  C   UNL d   1      59.541  -2.160  28.580  0.00  0.00     0.018 A 
ATOM     12  C   UNL d   1      58.852  -2.589  28.535  0.00  0.00     0.002 A 
ATOM     13  C   UNL d   1      58.860  -3.406  28.660  0.00  0.00     0.000 A 
ATOM     14  C   UNL d   1      59.577  -3.783  28.830  0.00  0.00     0.000 A 
ATOM     15  C   UNL d   1      60.265  -3.354  28.875  0.00  0.00     0.000 A 
ATOM     16  C   UNL d   1      60.256  -2.537  28.750  0.00  0.00     0.002 A 
ENDBRANCH  10  11
ENDBRANCH   1  10
BRANCH   2  17
ATOM     17  C   UNL d   1      57.972   0.307  30.196  0.00  0.00     0.034 C 
BRANCH  17  18
ATOM     18  C   UNL d   1      57.540  -0.046  30.791  0.00  0.00     0.100 A 
ATOM     19  O   UNL d   1      57.379  -0.833  30.973  0.00  0.00    -0.305 OA
ATOM     20  C   UNL d   1      56.916  -0.846  31.632  0.00  0.00     0.123 A 
ATOM     21  C   UNL d   1      56.775  -0.089  31.879  0.00  0.00     0.029 A 
ATOM     22  C   UNL d   1      57.160   0.416  31.360  0.00  0.00     0.027 A 
ENDBRANCH  17  18
ENDBRANCH   2  17
TORSDOF 4
ENDMDL
MODEL 3
REMARK VINA RESULT:      -3.5      1.232      1.899
REMARK  4 active torsions:
REMARK  status: ('A' for Active; 'I' for Inactive)
REMARK    1  A    between atoms: C_8  and  N_1 
REMARK    2  A    between atoms: C_7  and  C_2 
REMARK    3  A    between atoms: C_9  and  C_7 
REMARK    4  A    between atoms: C_17  and  C_8 
ROOT
ATOM      1  N   UNL d   1      57.859  -0.656  30.242  0.00  0.00    -0.224 N 
ATOM      2  C   UNL d   1      57.045  -0.401  31.384  0.00  0.00     0.117 A 
ATOM      3  C   UNL d   1      57.480  -0.119  30.738  0.00  0.00     0.273 A 
ATOM      4  C   UNL d   1      57.807  -1.454  30.383  0.00  0.00     0.359 A 
ATOM      5  N   UNL d   1      57.376  -1.724  31.022  0.00  0.00    -0.153 NA
ATOM      6  C   UNL d   1      56.994  -1.199  31.525  0.00  0.00     0.288 A 
ATOM      7  O   UNL d   1      58.182  -1.990  29.893  0.00  0.00    -0.244 OA
ATOM      8  O   UNL d   1      57.532   0.682  30.597  0.00  0.00    -0.266 OA
ATOM      9  O   UNL d   1      56.564  -1.484  32.162  0.00  0.00    -0.265 OA
ENDROOT
BRANCH   1  10
ATOM     10  C   UNL d   1      58.292  -0.373  29.599  0.00  0.00     0.087 C 
BRANCH  10  11
ATOM     11  C   UNL d   1      59.114  -0.311  29.660  0.00  0.00     0.018 A 
ATOM     12  C   UNL d   1      59.587  -0.946  29.479  0.00  0.00     0.002 A 
ATOM     13  C   UNL d   1      60.409  -0.886  29.539  0.00  0.00     0.000 A 
ATOM     14  C   UNL d   1      60.745  -0.172  29.786  0.00  0.00     0.000 A 
ATOM     15  C   UNL d   1      60.273   0.463  29.968  0.00  0.00     0.000 A 
ATOM     16  C   UNL d   1      59.450   0.402  29.907  0.00  0.00     0.002 A 
ENDBRANCH  10  11
ENDBRANCH   1  10
BRANCH   2  17
ATOM     17  C   UNL d   1      56.658   0.138  31.891  0.00  0.00     0.034 C 
BRANCH  17  18
ATOM     18  C   UNL d   1      56.996   0.339  32.605  0.00  0.00     0.100 A 
ATOM     19  O   UNL d   1      57.778   0.451  32.842  0.00  0.00    -0.305 OA
ATOM     20  C   UNL d   1      57.776   0.646  33.623  0.00  0.00     0.123 A 
ATOM     21  C   UNL d   1      57.015   0.663  33.896  0.00  0.00     0.029 A 
ATOM     22  C   UNL d   1      56.523   0.473  33.268  0.00  0.00     0.027 A 
ENDBRANCH  17  18
ENDBRANCH   2  17
TORSDOF 4
ENDMDL
