MODEL 1
REMARK VINA RESULT:      -3.1      0.000      0.000
REMARK  4 active torsions:
REMARK  status: ('A' for Active; 'I' for Inactive)
REMARK    1  A    between atoms: N_7  and  C_1 
REMARK    2  A    between atoms: C_8  and  C_4 
REMARK    3  A    between atoms: C_10  and  N_7 
REMARK    4  A    between atoms: C_12  and  C_8 
ROOT
ATOM      1  C   UNL d   1      31.067  16.958 -24.506  0.00  0.00     0.184 A 
ATOM      2  N   UNL d   1      31.050  17.684 -24.104  0.00  0.00    -0.129 NA
ATOM      3  N   UNL d   1      31.749  18.006 -23.804  0.00  0.00    -0.147 NA
ATOM      4  C   UNL d   1      32.459  17.614 -23.900  0.00  0.00     0.103 A 
ATOM      5  C   UNL d   1      31.786  16.570 -24.599  0.00  0.00     0.039 A 
ATOM      6  C   UNL d   1      32.486  16.892 -24.298  0.00  0.00     0.022 A 
ATOM      7  C   UNL d   1      31.795  15.840 -25.005  0.00  0.00     0.003 A 
ATOM      8  C   UNL d   1      33.204  16.488 -24.400  0.00  0.00     0.002 A 
ATOM      9  C   UNL d   1      33.214  15.774 -24.797  0.00  0.00     0.000 A 
ATOM     10  C   UNL d   1      32.514  15.453 -25.097  0.00  0.00     0.000 A 
ENDROOT
BRANCH   1  11
ATOM     11  N   UNL d   1      30.376  16.640 -24.803  0.00  0.00    -0.225 NA
BRANCH  11  12
ATOM     12  C   UNL d   1      29.687  16.669 -24.365  0.00  0.00     0.083 A 
ATOM     13  C   UNL d   1      29.194  17.326 -24.408  0.00  0.00     0.020 A 
ATOM     14  C   UNL d   1      28.509  17.351 -23.970  0.00  0.00     0.013 A 
ATOM     15  C   UNL d   1      28.293  16.729 -23.480  0.00  0.00     0.058 A 
ATOM     16  C   UNL d   1      28.789  16.069 -23.437  0.00  0.00     0.013 A 
ATOM     17 CL   UNL d   1      27.617  16.743 -23.042  0.00  0.00    -0.082 Cl
ATOM     18  C   UNL d   1      29.487  16.034 -23.878  0.00  0.00     0.020 A 
ENDBRANCH  11  12
ENDBRANCH   1  11
BRANCH   4  19
ATOM     19  C   UNL d   1      33.159  17.936 -23.599  0.00  0.00     0.021 C 
BRANCH  19  20
ATOM     20  C   UNL d   1      33.154  18.696 -23.265  0.00  0.00     0.005 A 
ATOM     21  C   UNL d   1      33.098  18.782 -22.455  0.00  0.00     0.021 A 
ATOM     22  C   UNL d   1      33.094  19.535 -22.129  0.00  0.00     0.099 A 
ATOM     23  N   UNL d   1      33.145  20.196 -22.614  0.00  0.00    -0.242 NA
ATOM     24  C   UNL d   1      33.202  20.107 -23.429  0.00  0.00     0.099 A 
ATOM     25  C   UNL d   1      33.206  19.343 -23.753  0.00  0.00     0.021 A 
ENDBRANCH  19  20
ENDBRANCH   4  19
TORSDOF 4
ENDMDL
MODEL 2
REMARK VINA RESULT:      -1.2      2.011      3.810
REMARK  4 active torsions:
REMARK  status: ('A' for Active; 'I' for Inactive)
REMARK    1  A    between atoms: N_7  and  C_1 
REMARK    2  A    between atoms: C_8  and  C_4 
REMARK    3  A    between atoms: C_10  and  N_7 
REMARK    4  A    between atoms: C_12  and  C_8 
ROOT
ATOM      1  C   UNL d   1      33.137  19.420 -23.595  0.00  0.00     0.184 A 
ATOM      2  N   UNL d   1      33.136  19.345 -22.768  0.00  0.00    -0.129 NA
ATOM      3  N   UNL d   1      33.170  20.020 -22.294  0.00  0.00    -0.147 NA
ATOM      4  C   UNL d   1      33.204  20.763 -22.632  0.00  0.00     0.103 A 
ATOM      5  C   UNL d   1      33.172  20.171 -23.928  0.00  0.00     0.039 A 
ATOM      6  C   UNL d   1      33.206  20.847 -23.453  0.00  0.00     0.022 A 
ATOM      7  C   UNL d   1      33.172  20.237 -24.761  0.00  0.00     0.003 A 
ATOM      8  C   UNL d   1      33.240  21.598 -23.805  0.00  0.00     0.002 A 
ATOM      9  C   UNL d   1      33.241  21.664 -24.619  0.00  0.00     0.000 A 
ATOM     10  C   UNL d   1      33.207  20.988 -25.094  0.00  0.00     0.000 A 
ENDROOT
BRANCH   1  11
ATOM     11  N   UNL d   1      33.103  18.752 -24.065  0.00  0.00    -0.225 NA
BRANCH  11  12
ATOM     12  C   UNL d   1      32.661  18.106 -23.832  0.00  0.00     0.083 A 
ATOM     13  C   UNL d   1      31.859  18.066 -24.008  0.00  0.00     0.020 A 
ATOM     14  C   UNL d   1      31.422  17.421 -23.775  0.00  0.00     0.013 A 
ATOM     15  C   UNL d   1      31.765  16.800 -23.363  0.00  0.00     0.058 A 
ATOM     16  C   UNL d   1      32.572  16.840 -23.186  0.00  0.00     0.013 A 
ATOM     17 CL   UNL d   1      31.342  16.155 -23.126  0.00  0.00    -0.082 Cl
ATOM     18  C   UNL d   1      33.024  17.491 -23.419  0.00  0.00     0.020 A 
ENDBRANCH  11  12
ENDBRANCH   1  11
BRANCH   4  19
ATOM     19  C   UNL d   1      33.238  21.439 -22.157  0.00  0.00     0.021 C 
BRANCH  19  20
ATOM     20  C   UNL d   1      32.832  21.456 -21.434  0.00  0.00     0.005 A 
ATOM     21  C   UNL d   1      32.114  21.842 -21.382  0.00  0.00     0.021 A 
ATOM     22  C   UNL d   1      31.715  21.856 -20.664  0.00  0.00     0.099 A 
ATOM     23  N   UNL d   1      32.037  21.486 -20.005  0.00  0.00    -0.242 NA
ATOM     24  C   UNL d   1      32.759  21.098 -20.060  0.00  0.00     0.099 A 
ATOM     25  C   UNL d   1      33.157  21.087 -20.788  0.00  0.00     0.021 A 
ENDBRANCH  19  20
ENDBRANCH   4  19
TORSDOF 4
ENDMDL
MODEL 3
REMARK VINA RESULT:      -1.0      2.370      4.591
REMARK  4 active torsions:
REMARK  status: ('A' for Active; 'I' for Inactive)
REMARK    1  A    between atoms: N_7  and  C_1 
REMARK    2  A    between atoms: C_8  and  C_4 
REMARK    3  A    between atoms: C_10  and  N_7 
REMARK    4  A    between atoms: C_12  and  C_8 
ROOT
ATOM      1  C   UNL d   1      33.226  19.927 -22.559  0.00  0.00     0.184 A 
ATOM      2  N   UNL d   1      33.235  20.346 -23.276  0.00  0.00    -0.129 NA
ATOM      3  N   UNL d   1      33.239  21.172 -23.270  0.00  0.00    -0.147 NA
ATOM      4  C   UNL d   1      33.236  21.581 -22.563  0.00  0.00     0.103 A 
ATOM      5  C   UNL d   1      33.222  20.346 -21.852  0.00  0.00     0.039 A 
ATOM      6  C   UNL d   1      33.227  21.173 -21.846  0.00  0.00     0.022 A 
ATOM      7  C   UNL d   1      33.213  19.917 -21.135  0.00  0.00     0.003 A 
ATOM      8  C   UNL d   1      33.223  21.581 -21.123  0.00  0.00     0.002 A 
ATOM      9  C   UNL d   1      33.214  21.163 -20.422  0.00  0.00     0.000 A 
ATOM     10  C   UNL d   1      33.209  20.336 -20.428  0.00  0.00     0.000 A 
ENDROOT
BRANCH   1  11
ATOM     11  N   UNL d   1      33.221  19.110 -22.565  0.00  0.00    -0.225 NA
BRANCH  11  12
ATOM     12  C   UNL d   1      32.816  18.704 -23.146  0.00  0.00     0.083 A 
ATOM     13  C   UNL d   1      32.067  18.399 -22.996  0.00  0.00     0.020 A 
ATOM     14  C   UNL d   1      31.667  17.995 -23.577  0.00  0.00     0.013 A 
ATOM     15  C   UNL d   1      31.995  17.882 -24.321  0.00  0.00     0.058 A 
ATOM     16  C   UNL d   1      32.748  18.188 -24.472  0.00  0.00     0.013 A 
ATOM     17 CL   UNL d   1      31.608  17.483 -24.905  0.00  0.00    -0.082 Cl
ATOM     18  C   UNL d   1      33.163  18.600 -23.888  0.00  0.00     0.020 A 
ENDBRANCH  11  12
ENDBRANCH   1  11
BRANCH   4  19
ATOM     19  C   UNL d   1      33.240  22.408 -22.556  0.00  0.00     0.021 C 
BRANCH  19  20
ATOM     20  C   UNL d   1      32.897  22.828 -23.185  0.00  0.00     0.005 A 
ATOM     21  C   UNL d   1      32.223  23.270 -23.057  0.00  0.00     0.021 A 
ATOM     22  C   UNL d   1      31.887  23.684 -23.682  0.00  0.00     0.099 A 
ATOM     23  N   UNL d   1      32.228  23.652 -24.429  0.00  0.00    -0.242 NA
ATOM     24  C   UNL d   1      32.906  23.205 -24.555  0.00  0.00     0.099 A 
ATOM     25  C   UNL d   1      33.241  22.790 -23.920  0.00  0.00     0.021 A 
ENDBRANCH  19  20
ENDBRANCH   4  19
TORSDOF 4
ENDMDL
