MODEL 1
REMARK VINA RESULT:      55.3      0.000      0.000
REMARK  9 active torsions:
REMARK  status: ('A' for Active; 'I' for Inactive)
REMARK    1  A    between atoms: C_10  and  N_1 
REMARK    2  A    between atoms: C_7  and  N_3 
REMARK    3  A    between atoms: C_8  and  C_7 
REMARK       I    between atoms: N_12  and  C_8 
REMARK    4  A    between atoms: C_13  and  C_10 
REMARK    5  A    between atoms: C_21  and  N_12 
REMARK    6  A    between atoms: C_28  and  N_12 
REMARK       I    between atoms: N_19  and  C_13 
REMARK    7  A    between atoms: C_17  and  C_26 
REMARK    8  A    between atoms: C_26  and  N_19 
REMARK    9  A    between atoms: C_27  and  C_21 
ROOT
ATOM      1  N   UNL d   1      13.045  14.232  -4.503  0.00  0.00    -0.220 N 
ATOM      2  C   UNL d   1      13.027  13.748  -3.836  0.00  0.00     0.342 A 
ATOM      3  N   UNL d   1      13.098  12.913  -3.910  0.00  0.00    -0.254 N 
ATOM      4  C   UNL d   1      13.202  13.083  -5.337  0.00  0.00     0.102 A 
ATOM      5  C   UNL d   1      13.132  13.895  -5.245  0.00  0.00     0.276 A 
ATOM      6  C   UNL d   1      13.184  12.590  -4.657  0.00  0.00     0.080 A 
ATOM      7  S   UNL d   1      13.296  12.593  -6.014  0.00  0.00    -0.080 SA
ATOM      8  C   UNL d   1      13.268  11.788  -4.916  0.00  0.00     0.025 A 
ATOM      9  O   UNL d   1      12.941  14.071  -3.095  0.00  0.00    -0.245 OA
ATOM     10  C   UNL d   1      13.336  11.799  -5.757  0.00  0.00     0.037 A 
ATOM     11  O   UNL d   1      13.150  14.372  -5.905  0.00  0.00    -0.266 OA
ENDROOT
BRANCH   3  12
ATOM     12  C   UNL d   1      13.081  12.425  -3.257  0.00  0.00     0.146 C 
BRANCH  12  13
ATOM     13  C   UNL d   1      13.785  12.207  -2.880  0.00  0.00     0.283 C 
ATOM     14  N   UNL d   1      13.776  11.999  -2.083  0.00  0.00    -0.271 N 
ATOM     15  O   UNL d   1      14.486  12.200  -3.308  0.00  0.00    -0.265 OA
BRANCH  14  16
ATOM     16  C   UNL d   1      14.483  11.783  -1.714  0.00  0.00     0.083 C 
BRANCH  16  17
ATOM     17  C   UNL d   1      14.828  12.292  -1.165  0.00  0.00     0.018 A 
ATOM     18  C   UNL d   1      15.330  11.993  -0.587  0.00  0.00     0.002 A 
ATOM     19  C   UNL d   1      15.680  12.506  -0.031  0.00  0.00     0.000 A 
ATOM     20  C   UNL d   1      15.523  13.307  -0.062  0.00  0.00     0.000 A 
ATOM     21  C   UNL d   1      15.019  13.613  -0.642  0.00  0.00     0.000 A 
ATOM     22  C   UNL d   1      14.670  13.105  -1.195  0.00  0.00     0.002 A 
ENDBRANCH  16  17
ENDBRANCH  14  16
BRANCH  14  23
ATOM     23  C   UNL d   1      13.075  12.008  -1.663  0.00  0.00     0.083 C 
ATOM     24  C   UNL d   1      13.064  11.793  -0.867  0.00  0.00     0.021 C 
ENDBRANCH  14  23
ENDBRANCH  12  13
ENDBRANCH   3  12
BRANCH   1  25
ATOM     25  C   UNL d   1      12.976  15.030  -4.420  0.00  0.00     0.150 C 
BRANCH  25  26
ATOM     26  C   UNL d   1      13.653  15.500  -4.393  0.00  0.00     0.297 C 
ATOM     27  N   UNL d   1      13.819  15.955  -3.725  0.00  0.00    -0.203 NA
ATOM     28  O   UNL d   1      14.169  15.519  -5.035  0.00  0.00    -0.264 OA
BRANCH  27  29
ATOM     29  C   UNL d   1      14.493  16.426  -3.694  0.00  0.00     0.127 C 
BRANCH  29  30
ATOM     30  C   UNL d   1      14.801  16.667  -2.972  0.00  0.00     0.119 A 
ATOM     31  O   UNL d   1      15.568  16.951  -2.842  0.00  0.00    -0.304 OA
ATOM     32  C   UNL d   1      15.637  17.126  -2.041  0.00  0.00     0.123 A 
ATOM     33  C   UNL d   1      14.913  16.951  -1.673  0.00  0.00     0.029 A 
ATOM     34  C   UNL d   1      14.407  16.669  -2.258  0.00  0.00     0.028 A 
ENDBRANCH  29  30
ENDBRANCH  27  29
ENDBRANCH  25  26
ENDBRANCH   1  25
TORSDOF 9
ENDMDL
