MODEL 1
REMARK VINA RESULT:      -5.2      0.000      0.000
REMARK  3 active torsions:
REMARK  status: ('A' for Active; 'I' for Inactive)
REMARK    1  A    between atoms: N_3  and  C_1 
REMARK    2  A    between atoms: N_6  and  N_2 
REMARK    3  A    between atoms: S_5  and  N_6 
ROOT
ATOM      1  C   UNL d   1     -41.351-122.748 -52.944  0.00  0.00     0.771 A 
ATOM      2  N   UNL d   1     -41.594-122.538 -53.707  0.00  0.00    -0.026 N 
ATOM      3  N   UNL d   1     -41.124-123.538 -52.959  0.00  0.00     0.048 NA
ATOM      4  C   UNL d   1     -41.517-123.196 -54.190  0.00  0.00     0.204 A 
ATOM      5  N   UNL d   1     -41.226-123.817 -53.728  0.00  0.00    -0.112 NA
ATOM      6  C   UNL d   1     -41.697-123.234 -54.991  0.00  0.00     0.044 C 
ENDROOT
BRANCH   1   7
ATOM      7  N   UNL d   1     -41.342-122.243 -52.286  0.00  0.00    -0.056 N 
ATOM      8  N   UNL d   1     -41.203-121.428 -52.295  0.00  0.00    -0.150 NA
ATOM      9  C   UNL d   1     -41.246-121.154 -51.518  0.00  0.00     0.103 A 
ATOM     10  C   UNL d   1     -41.142-120.370 -51.271  0.00  0.00     0.022 C 
ATOM     11  C   UNL d   1     -41.411-121.795 -51.033  0.00  0.00     0.041 A 
ATOM     12  C   UNL d   1     -41.470-122.470 -51.504  0.00  0.00     0.102 A 
ATOM     13  C   UNL d   1     -41.630-123.234 -51.238  0.00  0.00     0.021 C 
ENDBRANCH   1   7
BRANCH   2  14
ATOM     14  N   UNL d   1     -41.866-121.794 -53.936  0.00  0.00    -0.059 NA
BRANCH  14  15
ATOM     15  S   UNL d   1     -42.254-121.702 -54.668  0.00  0.00     0.282 S 
ATOM     16  O   UNL d   1     -42.991-121.912 -54.388  0.00  0.00    -0.201 OA
ATOM     17  O   UNL d   1     -41.503-121.491 -54.944  0.00  0.00    -0.201 OA
ATOM     18  C   UNL d   1     -42.560-121.591 -55.417  0.00  0.00     0.167 C 
ENDBRANCH  14  15
ENDBRANCH   2  14
TORSDOF 3
ENDMDL
MODEL 2
REMARK VINA RESULT:      -4.7      1.901      3.497
REMARK  3 active torsions:
REMARK  status: ('A' for Active; 'I' for Inactive)
REMARK    1  A    between atoms: N_3  and  C_1 
REMARK    2  A    between atoms: N_6  and  N_2 
REMARK    3  A    between atoms: S_5  and  N_6 
ROOT
ATOM      1  C   UNL d   1     -41.411-121.994 -52.449  0.00  0.00     0.771 A 
ATOM      2  N   UNL d   1     -41.551-122.352 -51.716  0.00  0.00    -0.026 N 
ATOM      3  N   UNL d   1     -41.148-121.227 -52.311  0.00  0.00     0.048 NA
ATOM      4  C   UNL d   1     -41.376-121.807 -51.129  0.00  0.00     0.204 A 
ATOM      5  N   UNL d   1     -41.126-121.110 -51.495  0.00  0.00    -0.112 NA
ATOM      6  C   UNL d   1     -41.437-121.932 -50.318  0.00  0.00     0.044 C 
ENDROOT
BRANCH   1   7
ATOM      7  N   UNL d   1     -41.518-122.354 -53.189  0.00  0.00    -0.056 N 
ATOM      8  N   UNL d   1     -41.123-123.022 -53.471  0.00  0.00    -0.150 NA
ATOM      9  C   UNL d   1     -41.404-123.184 -54.230  0.00  0.00     0.103 A 
ATOM     10  C   UNL d   1     -41.160-123.805 -54.720  0.00  0.00     0.022 C 
ATOM     11  C   UNL d   1     -41.971-122.618 -54.415  0.00  0.00     0.041 A 
ATOM     12  C   UNL d   1     -42.043-122.104 -53.773  0.00  0.00     0.102 A 
ATOM     13  C   UNL d   1     -42.552-121.456 -53.728  0.00  0.00     0.021 C 
ENDBRANCH   1   7
BRANCH   2  14
ATOM     14  N   UNL d   1     -41.821-123.123 -51.603  0.00  0.00    -0.059 NA
BRANCH  14  15
ATOM     15  S   UNL d   1     -41.992-123.392 -50.832  0.00  0.00     0.282 S 
ATOM     16  O   UNL d   1     -42.691-122.977 -50.763  0.00  0.00    -0.201 OA
ATOM     17  O   UNL d   1     -41.281-123.809 -50.911  0.00  0.00    -0.201 OA
ATOM     18  C   UNL d   1     -42.088-123.699 -50.082  0.00  0.00     0.167 C 
ENDBRANCH  14  15
ENDBRANCH   2  14
TORSDOF 3
ENDMDL
MODEL 3
REMARK VINA RESULT:      -3.4      3.614      4.726
REMARK  3 active torsions:
REMARK  status: ('A' for Active; 'I' for Inactive)
REMARK    1  A    between atoms: N_3  and  C_1 
REMARK    2  A    between atoms: N_6  and  N_2 
REMARK    3  A    between atoms: S_5  and  N_6 
ROOT
ATOM      1  C   UNL d   1     -42.645-123.058 -49.991  0.00  0.00     0.771 A 
ATOM      2  N   UNL d   1     -42.503-123.171 -49.183  0.00  0.00    -0.026 N 
ATOM      3  N   UNL d   1     -43.367-123.406 -50.173  0.00  0.00     0.048 NA
ATOM      4  C   UNL d   1     -43.136-123.587 -48.869  0.00  0.00     0.204 A 
ATOM      5  N   UNL d   1     -43.673-123.733 -49.480  0.00  0.00    -0.112 NA
ATOM      6  C   UNL d   1     -43.223-123.817 -48.085  0.00  0.00     0.044 C 
ENDROOT
BRANCH   1   7
ATOM      7  N   UNL d   1     -42.140-122.663 -50.517  0.00  0.00    -0.056 N 
ATOM      8  N   UNL d   1     -42.134-121.851 -50.673  0.00  0.00    -0.150 NA
ATOM      9  C   UNL d   1     -41.544-121.703 -51.231  0.00  0.00     0.103 A 
ATOM     10  C   UNL d   1     -41.344-120.964 -51.546  0.00  0.00     0.022 C 
ATOM     11  C   UNL d   1     -41.188-122.420 -51.418  0.00  0.00     0.041 A 
ATOM     12  C   UNL d   1     -41.555-123.014 -50.979  0.00  0.00     0.102 A 
ATOM     13  C   UNL d   1     -41.366-123.817 -50.999  0.00  0.00     0.021 C 
ENDBRANCH   1   7
BRANCH   2  14
ATOM     14  N   UNL d   1     -41.838-122.908 -48.772  0.00  0.00    -0.059 NA
BRANCH  14  15
ATOM     15  S   UNL d   1     -41.822-122.956 -47.940  0.00  0.00     0.282 S 
ATOM     16  O   UNL d   1     -42.451-122.449 -47.825  0.00  0.00    -0.201 OA
ATOM     17  O   UNL d   1     -41.185-123.469 -48.065  0.00  0.00    -0.201 OA
ATOM     18  C   UNL d   1     -41.741-123.055 -47.133  0.00  0.00     0.167 C 
ENDBRANCH  14  15
ENDBRANCH   2  14
TORSDOF 3
ENDMDL
MODEL 4
REMARK VINA RESULT:      -2.8      1.038      1.926
REMARK  3 active torsions:
REMARK  status: ('A' for Active; 'I' for Inactive)
REMARK    1  A    between atoms: N_3  and  C_1 
REMARK    2  A    between atoms: N_6  and  N_2 
REMARK    3  A    between atoms: S_5  and  N_6 
ROOT
ATOM      1  C   UNL d   1     -42.142-122.050 -53.166  0.00  0.00     0.771 A 
ATOM      2  N   UNL d   1     -41.881-122.261 -53.923  0.00  0.00    -0.026 N 
ATOM      3  N   UNL d   1     -42.802-121.568 -53.251  0.00  0.00     0.048 NA
ATOM      4  C   UNL d   1     -42.379-121.910 -54.471  0.00  0.00     0.204 A 
ATOM      5  N   UNL d   1     -42.950-121.480 -54.058  0.00  0.00    -0.112 NA
ATOM      6  C   UNL d   1     -42.321-121.975 -55.289  0.00  0.00     0.044 C 
ENDROOT
BRANCH   1   7
ATOM      7  N   UNL d   1     -41.792-122.288 -52.453  0.00  0.00    -0.056 N 
ATOM      8  N   UNL d   1     -41.801-123.050 -52.132  0.00  0.00    -0.150 NA
ATOM      9  C   UNL d   1     -41.386-123.031 -51.419  0.00  0.00     0.103 A 
ATOM     10  C   UNL d   1     -41.258-123.673 -50.912  0.00  0.00     0.022 C 
ATOM     11  C   UNL d   1     -41.124-122.262 -51.299  0.00  0.00     0.041 A 
ATOM     12  C   UNL d   1     -41.373-121.801 -51.936  0.00  0.00     0.102 A 
ATOM     13  C   UNL d   1     -41.227-120.995 -52.036  0.00  0.00     0.021 C 
ENDBRANCH   1   7
BRANCH   2  14
ATOM     14  N   UNL d   1     -41.231-122.742 -54.089  0.00  0.00    -0.059 NA
BRANCH  14  15
ATOM     15  S   UNL d   1     -41.179-123.125 -54.828  0.00  0.00     0.282 S 
ATOM     16  O   UNL d   1     -41.123-122.437 -55.263  0.00  0.00    -0.201 OA
ATOM     17  O   UNL d   1     -41.237-123.817 -54.378  0.00  0.00    -0.201 OA
ATOM     18  C   UNL d   1     -41.133-123.572 -55.510  0.00  0.00     0.167 C 
ENDBRANCH  14  15
ENDBRANCH   2  14
TORSDOF 3
ENDMDL
MODEL 5
REMARK VINA RESULT:      -2.5      2.834      4.181
REMARK  3 active torsions:
REMARK  status: ('A' for Active; 'I' for Inactive)
REMARK    1  A    between atoms: N_3  and  C_1 
REMARK    2  A    between atoms: N_6  and  N_2 
REMARK    3  A    between atoms: S_5  and  N_6 
ROOT
ATOM      1  C   UNL d   1     -42.499-122.320 -51.041  0.00  0.00     0.771 A 
ATOM      2  N   UNL d   1     -42.362-122.572 -50.264  0.00  0.00    -0.026 N 
ATOM      3  N   UNL d   1     -43.194-121.881 -51.046  0.00  0.00     0.048 NA
ATOM      4  C   UNL d   1     -42.970-122.290 -49.793  0.00  0.00     0.204 A 
ATOM      5  N   UNL d   1     -43.487-121.862 -50.275  0.00  0.00    -0.112 NA
ATOM      6  C   UNL d   1     -43.053-122.412 -48.984  0.00  0.00     0.044 C 
ENDROOT
BRANCH   1   7
ATOM      7  N   UNL d   1     -42.014-122.485 -51.693  0.00  0.00    -0.056 N 
ATOM      8  N   UNL d   1     -41.970-123.202 -52.102  0.00  0.00    -0.150 NA
ATOM      9  C   UNL d   1     -41.418-123.116 -52.709  0.00  0.00     0.103 A 
ATOM     10  C   UNL d   1     -41.199-123.698 -53.256  0.00  0.00     0.022 C 
ATOM     11  C   UNL d   1     -41.123-122.350 -52.675  0.00  0.00     0.041 A 
ATOM     12  C   UNL d   1     -41.489-121.958 -52.049  0.00  0.00     0.102 A 
ATOM     13  C   UNL d   1     -41.353-121.177 -51.820  0.00  0.00     0.021 C 
ENDBRANCH   1   7
BRANCH   2  14
ATOM     14  N   UNL d   1     -41.722-123.029 -50.015  0.00  0.00    -0.059 NA
BRANCH  14  15
ATOM     15  S   UNL d   1     -41.558-123.100 -49.200  0.00  0.00     0.282 S 
ATOM     16  O   UNL d   1     -41.157-122.392 -49.144  0.00  0.00    -0.201 OA
ATOM     17  O   UNL d   1     -41.966-123.817 -49.267  0.00  0.00    -0.201 OA
ATOM     18  C   UNL d   1     -41.437-123.243 -48.405  0.00  0.00     0.167 C 
ENDBRANCH  14  15
ENDBRANCH   2  14
TORSDOF 3
ENDMDL
