MODEL 1
REMARK VINA RESULT:      -1.5      0.000      0.000
REMARK  5 active torsions:
REMARK  status: ('A' for Active; 'I' for Inactive)
REMARK    1  A    between atoms: N_4  and  C_1 
REMARK    2  A    between atoms: C_10  and  C_3 
REMARK       I    between atoms: C_7  and  N_4 
REMARK    3  A    between atoms: C_8  and  C_7 
REMARK    4  A    between atoms: C_9  and  C_8 
REMARK    5  A    between atoms: C_12  and  C_9 
ROOT
ATOM      1  C   UNL d   1      58.798  -9.715  32.106  0.00  0.00     0.197 A 
ATOM      2  N   UNL d   1      58.125  -9.703  31.635  0.00  0.00    -0.221 NA
ATOM      3  C   UNL d   1      58.351  -9.766  30.853  0.00  0.00     0.090 A 
ATOM      4  S   UNL d   1      59.447  -9.786  31.624  0.00  0.00    -0.046 SA
ATOM      5  C   UNL d   1      59.176  -9.818  30.846  0.00  0.00     0.058 A 
ENDROOT
BRANCH   1   6
ATOM      6  N   UNL d   1      58.803  -9.663  32.946  0.00  0.00    -0.183 NA
ATOM      7  C   UNL d   1      59.505  -9.477  33.336  0.00  0.00     0.281 C 
ATOM      8  O   UNL d   1      60.185  -9.345  32.924  0.00  0.00    -0.265 OA
BRANCH   7   9
ATOM      9  C   UNL d   1      59.516  -9.424  34.161  0.00  0.00     0.063 C 
BRANCH   9  10
ATOM     10  C   UNL d   1      60.125  -9.029  34.545  0.00  0.00     0.005 C 
BRANCH  10  11
ATOM     11  C   UNL d   1      59.960  -8.483  35.142  0.00  0.00     0.000 A 
ATOM     12  C   UNL d   1      60.434  -7.836  35.228  0.00  0.00     0.000 A 
ATOM     13  C   UNL d   1      60.281  -7.302  35.804  0.00  0.00     0.000 A 
ATOM     14  C   UNL d   1      59.629  -7.405  36.326  0.00  0.00     0.000 A 
ATOM     15  C   UNL d   1      59.148  -8.058  36.242  0.00  0.00     0.000 A 
ATOM     16  C   UNL d   1      59.313  -8.605  35.645  0.00  0.00     0.000 A 
ENDBRANCH  10  11
ENDBRANCH   9  10
ENDBRANCH   7   9
ENDBRANCH   1   6
BRANCH   3  17
ATOM     17  C   UNL d   1      57.811  -9.772  30.225  0.00  0.00     0.018 A 
ATOM     18  C   UNL d   1      58.075  -9.743  29.467  0.00  0.00     0.002 A 
ATOM     19  C   UNL d   1      57.522  -9.750  28.849  0.00  0.00     0.000 A 
ATOM     20  C   UNL d   1      56.720  -9.786  29.008  0.00  0.00     0.000 A 
ATOM     21  C   UNL d   1      56.456  -9.816  29.787  0.00  0.00     0.000 A 
ATOM     22  C   UNL d   1      56.994  -9.809  30.387  0.00  0.00     0.002 A 
ENDBRANCH   3  17
TORSDOF 5
ENDMDL
MODEL 2
REMARK VINA RESULT:      -0.7      0.873      5.463
REMARK  5 active torsions:
REMARK  status: ('A' for Active; 'I' for Inactive)
REMARK    1  A    between atoms: N_4  and  C_1 
REMARK    2  A    between atoms: C_10  and  C_3 
REMARK       I    between atoms: C_7  and  N_4 
REMARK    3  A    between atoms: C_8  and  C_7 
REMARK    4  A    between atoms: C_9  and  C_8 
REMARK    5  A    between atoms: C_12  and  C_9 
ROOT
ATOM      1  C   UNL d   1      59.513  -9.433  33.670  0.00  0.00     0.197 A 
ATOM      2  N   UNL d   1      59.243  -8.821  34.146  0.00  0.00    -0.221 NA
ATOM      3  C   UNL d   1      59.841  -8.600  34.654  0.00  0.00     0.090 A 
ATOM      4  S   UNL d   1      60.281  -9.599  33.876  0.00  0.00    -0.046 SA
ATOM      5  C   UNL d   1      60.489  -9.085  34.486  0.00  0.00     0.058 A 
ENDROOT
BRANCH   1   6
ATOM      6  N   UNL d   1      59.064  -9.818  33.071  0.00  0.00    -0.183 NA
ATOM      7  C   UNL d   1      58.846  -9.400  32.395  0.00  0.00     0.281 C 
ATOM      8  O   UNL d   1      59.059  -8.628  32.299  0.00  0.00    -0.265 OA
BRANCH   7   9
ATOM      9  C   UNL d   1      58.405  -9.774  31.804  0.00  0.00     0.063 C 
BRANCH   9  10
ATOM     10  C   UNL d   1      57.723  -9.424  31.509  0.00  0.00     0.005 C 
BRANCH  10  11
ATOM     11  C   UNL d   1      57.495  -9.544  30.724  0.00  0.00     0.000 A 
ATOM     12  C   UNL d   1      56.721  -9.700  30.558  0.00  0.00     0.000 A 
ATOM     13  C   UNL d   1      56.492  -9.818  29.799  0.00  0.00     0.000 A 
ATOM     14  C   UNL d   1      57.049  -9.781  29.170  0.00  0.00     0.000 A 
ATOM     15  C   UNL d   1      57.832  -9.623  29.335  0.00  0.00     0.000 A 
ATOM     16  C   UNL d   1      58.060  -9.502  30.121  0.00  0.00     0.000 A 
ENDBRANCH  10  11
ENDBRANCH   9  10
ENDBRANCH   7   9
ENDBRANCH   1   6
BRANCH   3  17
ATOM     17  C   UNL d   1      59.760  -7.995  35.214  0.00  0.00     0.018 A 
ATOM     18  C   UNL d   1      59.056  -7.879  35.583  0.00  0.00     0.002 A 
ATOM     19  C   UNL d   1      58.991  -7.269  36.141  0.00  0.00     0.000 A 
ATOM     20  C   UNL d   1      59.633  -6.793  36.314  0.00  0.00     0.000 A 
ATOM     21  C   UNL d   1      60.352  -6.917  35.933  0.00  0.00     0.000 A 
ATOM     22  C   UNL d   1      60.415  -7.510  35.391  0.00  0.00     0.002 A 
ENDBRANCH   3  17
TORSDOF 5
ENDMDL
MODEL 3
REMARK VINA RESULT:      -0.1      8.049      8.401
REMARK  5 active torsions:
REMARK  status: ('A' for Active; 'I' for Inactive)
REMARK    1  A    between atoms: N_4  and  C_1 
REMARK    2  A    between atoms: C_10  and  C_3 
REMARK       I    between atoms: C_7  and  N_4 
REMARK    3  A    between atoms: C_8  and  C_7 
REMARK    4  A    between atoms: C_9  and  C_8 
REMARK    5  A    between atoms: C_12  and  C_9 
ROOT
ATOM      1  C   UNL d   1      58.930  -1.354  29.629  0.00  0.00     0.197 A 
ATOM      2  N   UNL d   1      58.831  -2.152  29.462  0.00  0.00    -0.221 NA
ATOM      3  C   UNL d   1      59.528  -2.443  29.153  0.00  0.00     0.090 A 
ATOM      4  S   UNL d   1      59.687  -1.141  29.427  0.00  0.00    -0.046 SA
ATOM      5  C   UNL d   1      60.062  -1.813  29.131  0.00  0.00     0.058 A 
ENDROOT
BRANCH   1   6
ATOM      6  N   UNL d   1      58.341  -0.849  29.955  0.00  0.00    -0.183 NA
ATOM      7  C   UNL d   1      58.439  -0.548  30.715  0.00  0.00     0.281 C 
ATOM      8  O   UNL d   1      59.093  -0.730  31.151  0.00  0.00    -0.265 OA
BRANCH   7   9
ATOM      9  C   UNL d   1      57.863  -0.052  31.040  0.00  0.00     0.063 C 
BRANCH   9  10
ATOM     10  C   UNL d   1      57.126  -0.348  31.245  0.00  0.00     0.005 C 
BRANCH  10  11
ATOM     11  C   UNL d   1      56.781  -0.151  31.970  0.00  0.00     0.000 A 
ATOM     12  C   UNL d   1      57.074   0.473  32.389  0.00  0.00     0.000 A 
ATOM     13  C   UNL d   1      56.746   0.672  33.092  0.00  0.00     0.000 A 
ATOM     14  C   UNL d   1      56.096   0.237  33.402  0.00  0.00     0.000 A 
ATOM     15  C   UNL d   1      55.797  -0.394  32.981  0.00  0.00     0.000 A 
ATOM     16  C   UNL d   1      56.142  -0.592  32.256  0.00  0.00     0.000 A 
ENDBRANCH  10  11
ENDBRANCH   9  10
ENDBRANCH   7   9
ENDBRANCH   1   6
BRANCH   3  17
ATOM     17  C   UNL d   1      59.626  -3.232  28.922  0.00  0.00     0.018 A 
ATOM     18  C   UNL d   1      58.998  -3.734  28.923  0.00  0.00     0.002 A 
ATOM     19  C   UNL d   1      59.113  -4.521  28.688  0.00  0.00     0.000 A 
ATOM     20  C   UNL d   1      59.853  -4.784  28.459  0.00  0.00     0.000 A 
ATOM     21  C   UNL d   1      60.492  -4.265  28.460  0.00  0.00     0.000 A 
ATOM     22  C   UNL d   1      60.380  -3.501  28.688  0.00  0.00     0.002 A 
ENDBRANCH   3  17
TORSDOF 5
ENDMDL
