MODEL 1
REMARK VINA RESULT:      95.7      0.000      0.000
REMARK  4 active torsions:
REMARK  status: ('A' for Active; 'I' for Inactive)
REMARK    1  A    between atoms: C_9  and  C_1 
REMARK    2  A    between atoms: C_8  and  C_6 
REMARK    3  A    between atoms: C_14  and  C_9 
REMARK    4  A    between atoms: C_15  and  C_10 
ROOT
ATOM      1  C   UNL d   1      61.157  47.407  50.493  0.00  0.00     0.089 A 
ATOM      2  C   UNL d   1      60.402  48.372  51.020  0.00  0.00     0.048 A 
ATOM      3  C   UNL d   1      61.133  47.990  51.063  0.00  0.00     0.114 A 
ATOM      4  C   UNL d   1      59.975  48.013  50.411  0.00  0.00     0.112 A 
ATOM      5  S   UNL d   1      60.447  47.414  50.086  0.00  0.00    -0.063 SA
ATOM      6  C   UNL d   1      60.069  48.996  51.450  0.00  0.00     0.076 A 
ATOM      7  N   UNL d   1      59.218  48.282  50.240  0.00  0.00    -0.239 NA
ATOM      8  C   UNL d   1      58.883  48.895  50.658  0.00  0.00     0.082 A 
ATOM      9  C   UNL d   1      59.311  49.254  51.267  0.00  0.00     0.023 A 
ATOM     10  N   UNL d   1      61.741  48.178  51.606  0.00  0.00    -0.147 N 
ENDROOT
BRANCH   1  11
ATOM     11  C   UNL d   1      61.787  46.898  50.351  0.00  0.00     0.203 C 
ATOM     12  O   UNL d   1      62.535  47.115  50.547  0.00  0.00    -0.286 OA
BRANCH  11  13
ATOM     13  C   UNL d   1      61.641  46.161  50.003  0.00  0.00     0.040 A 
ATOM     14  C   UNL d   1      61.442  46.096  49.207  0.00  0.00     0.003 A 
ATOM     15  C   UNL d   1      61.300  45.369  48.873  0.00  0.00     0.000 A 
ATOM     16  C   UNL d   1      61.356  44.675  49.342  0.00  0.00     0.000 A 
ATOM     17  C   UNL d   1      61.552  44.734  50.129  0.00  0.00     0.000 A 
ATOM     18  C   UNL d   1      61.697  45.467  50.472  0.00  0.00     0.003 A 
ENDBRANCH  11  13
ENDBRANCH   1  11
BRANCH   6  19
ATOM     19  C   UNL d   1      60.496  49.354  52.057  0.00  0.00     0.419 C 
ATOM     20  F   UNL d   1      60.917  49.707  52.656  0.00  0.00    -0.166 F 
ATOM     21  F   UNL d   1      60.996  49.707  51.497  0.00  0.00    -0.166 F 
ATOM     22  F   UNL d   1      60.000  49.004  52.612  0.00  0.00    -0.166 F 
ENDBRANCH   6  19
BRANCH   8  23
ATOM     23  C   UNL d   1      58.126  49.165  50.487  0.00  0.00     0.018 A 
ATOM     24  C   UNL d   1      57.583  49.264  51.105  0.00  0.00     0.002 A 
ATOM     25  C   UNL d   1      56.814  49.534  50.957  0.00  0.00     0.000 A 
ATOM     26  C   UNL d   1      56.595  49.707  50.166  0.00  0.00     0.000 A 
ATOM     27  C   UNL d   1      57.139  49.609  49.548  0.00  0.00     0.000 A 
ATOM     28  C   UNL d   1      57.900  49.337  49.723  0.00  0.00     0.002 A 
ENDBRANCH   8  23
TORSDOF 4
ENDMDL
