MODEL 1
REMARK VINA RESULT:      -7.9      0.000      0.000
REMARK  3 active torsions:
REMARK  status: ('A' for Active; 'I' for Inactive)
REMARK    1  A    between atoms: C_2  and  C_4 
REMARK    2  A    between atoms: N_3  and  C_2 
REMARK    3  A    between atoms: C_5  and  N_3 
ROOT
ATOM      1  N   UNL d   1     -47.698  12.945  23.286  0.00  0.00    -0.243 NA
ATOM      2  C   UNL d   1     -47.614  13.682  22.902  0.00  0.00     0.109 A 
ATOM      3  C   UNL d   1     -47.066  12.416  23.303  0.00  0.00     0.081 A 
ATOM      4  C   UNL d   1     -46.899  13.878  22.541  0.00  0.00     0.021 A 
ATOM      5  C   UNL d   1     -46.346  12.618  22.937  0.00  0.00     0.018 A 
ATOM      6  C   UNL d   1     -46.263  13.348  22.557  0.00  0.00     0.003 A 
ATOM      7  C   UNL d   1     -47.141  11.688  23.680  0.00  0.00     0.019 A 
ATOM      8  C   UNL d   1     -45.718  12.089  22.955  0.00  0.00     0.002 A 
ATOM      9  C   UNL d   1     -46.512  11.166  23.694  0.00  0.00     0.002 A 
ATOM     10  C   UNL d   1     -45.800  11.367  23.332  0.00  0.00     0.000 A 
ENDROOT
BRANCH   2  11
ATOM     11  C   UNL d   1     -48.250  14.213  22.886  0.00  0.00     0.153 C 
ATOM     12  S   UNL d   1     -48.113  15.026  22.947  0.00  0.00    -0.056 SA
BRANCH  11  13
ATOM     13  N   UNL d   1     -49.019  13.927  22.810  0.00  0.00    -0.233 NA
BRANCH  13  14
ATOM     14  C   UNL d   1     -49.659  14.429  22.945  0.00  0.00     0.082 A 
ATOM     15  C   UNL d   1     -50.421  14.201  22.706  0.00  0.00     0.018 A 
ATOM     16  C   UNL d   1     -50.538  13.478  22.335  0.00  0.00     0.002 C 
ATOM     17  C   UNL d   1     -51.057  14.708  22.844  0.00  0.00     0.002 A 
ATOM     18  C   UNL d   1     -50.942  15.435  23.217  0.00  0.00     0.000 A 
ATOM     19  C   UNL d   1     -50.182  15.659  23.454  0.00  0.00     0.002 A 
ATOM     20  C   UNL d   1     -49.539  15.154  23.318  0.00  0.00     0.019 A 
ENDBRANCH  13  14
ENDBRANCH  11  13
ENDBRANCH   2  11
TORSDOF 3
ENDMDL
MODEL 2
REMARK VINA RESULT:      -7.5      1.505      4.184
REMARK  3 active torsions:
REMARK  status: ('A' for Active; 'I' for Inactive)
REMARK    1  A    between atoms: C_2  and  C_4 
REMARK    2  A    between atoms: N_3  and  C_2 
REMARK    3  A    between atoms: C_5  and  N_3 
ROOT
ATOM      1  N   UNL d   1     -48.614  12.849  23.417  0.00  0.00    -0.243 NA
ATOM      2  C   UNL d   1     -48.118  12.183  23.512  0.00  0.00     0.109 A 
ATOM      3  C   UNL d   1     -49.433  12.761  23.462  0.00  0.00     0.081 A 
ATOM      4  C   UNL d   1     -48.448  11.441  23.652  0.00  0.00     0.021 A 
ATOM      5  C   UNL d   1     -49.761  12.009  23.603  0.00  0.00     0.018 A 
ATOM      6  C   UNL d   1     -49.270  11.350  23.698  0.00  0.00     0.003 A 
ATOM      7  C   UNL d   1     -49.928  13.411  23.369  0.00  0.00     0.019 A 
ATOM      8  C   UNL d   1     -50.577  11.924  23.648  0.00  0.00     0.002 A 
ATOM      9  C   UNL d   1     -50.739  13.319  23.415  0.00  0.00     0.002 A 
ATOM     10  C   UNL d   1     -51.064  12.576  23.554  0.00  0.00     0.000 A 
ENDROOT
BRANCH   2  11
ATOM     11  C   UNL d   1     -47.296  12.274  23.467  0.00  0.00     0.153 C 
ATOM     12  S   UNL d   1     -46.797  11.649  23.679  0.00  0.00    -0.056 SA
BRANCH  11  13
ATOM     13  N   UNL d   1     -46.977  12.989  23.209  0.00  0.00    -0.233 NA
BRANCH  13  14
ATOM     14  C   UNL d   1     -46.247  12.998  22.825  0.00  0.00     0.082 A 
ATOM     15  C   UNL d   1     -45.951  13.710  22.515  0.00  0.00     0.018 A 
ATOM     16  C   UNL d   1     -46.384  14.403  22.590  0.00  0.00     0.002 C 
ATOM     17  C   UNL d   1     -45.220  13.712  22.133  0.00  0.00     0.002 A 
ATOM     18  C   UNL d   1     -44.783  13.016  22.056  0.00  0.00     0.000 A 
ATOM     19  C   UNL d   1     -45.081  12.310  22.366  0.00  0.00     0.002 A 
ATOM     20  C   UNL d   1     -45.814  12.301  22.751  0.00  0.00     0.019 A 
ENDBRANCH  13  14
ENDBRANCH  11  13
ENDBRANCH   2  11
TORSDOF 3
ENDMDL
