MODEL 1
REMARK VINA RESULT:      69.4      0.000      0.000
REMARK  5 active torsions:
REMARK  status: ('A' for Active; 'I' for Inactive)
REMARK    1  A    between atoms: C_6  and  C_1 
REMARK    2  A    between atoms: C_9  and  C_5 
REMARK       I    between atoms: N_13  and  C_6 
REMARK    3  A    between atoms: C_7  and  C_15 
REMARK    4  A    between atoms: N_10  and  N_13 
REMARK    5  A    between atoms: C_15  and  N_10 
ROOT
ATOM      1  C   UNL d   1     -49.358  28.138  34.812  0.00  0.00     0.316 C 
ATOM      2  N   UNL d   1     -49.331  29.029  34.432  0.00  0.00    -0.104 NA
ATOM      3  O   UNL d   1     -48.946  28.030  35.514  0.00  0.00    -0.262 OA
ENDROOT
BRANCH   1   4
ATOM      4  C   UNL d   1     -49.758  27.505  34.481  0.00  0.00     0.164 A 
ATOM      5  C   UNL d   1     -49.868  26.820  34.920  0.00  0.00     0.047 A 
ATOM      6  C   UNL d   1     -50.554  26.229  33.837  0.00  0.00     0.105 A 
ATOM      7  N   UNL d   1     -50.445  26.914  33.397  0.00  0.00    -0.148 NA
ATOM      8  N   UNL d   1     -50.045  27.554  33.720  0.00  0.00    -0.143 NA
BRANCH   6   9
ATOM      9  C   UNL d   1     -50.912  25.505  33.705  0.00  0.00     0.019 A 
ATOM     10  C   UNL d   1     -51.728  25.454  33.702  0.00  0.00     0.002 A 
ATOM     11  C   UNL d   1     -52.091  24.728  33.570  0.00  0.00     0.000 A 
ATOM     12  C   UNL d   1     -52.905  24.672  33.566  0.00  0.00     0.000 A 
ATOM     13  C   UNL d   1     -51.628  24.057  33.441  0.00  0.00     0.000 A 
ATOM     14  C   UNL d   1     -53.265  23.954  33.435  0.00  0.00     0.000 A 
ATOM     15  C   UNL d   1     -52.811  23.279  33.305  0.00  0.00     0.000 A 
ATOM     16  C   UNL d   1     -51.996  23.331  33.308  0.00  0.00     0.000 A 
ATOM     17  C   UNL d   1     -50.822  24.121  33.446  0.00  0.00     0.000 A 
ATOM     18  C   UNL d   1     -50.463  24.845  33.578  0.00  0.00     0.002 A 
ENDBRANCH   6   9
ENDBRANCH   1   4
BRANCH   2  19
ATOM     19  N   UNL d   1     -48.885  29.875  34.736  0.00  0.00    -0.143 NA
BRANCH  19  20
ATOM     20  C   UNL d   1     -48.030  29.922  34.784  0.00  0.00     0.126 C 
BRANCH  20  21
ATOM     21  C   UNL d   1     -47.649  30.668  34.999  0.00  0.00     0.060 A 
ATOM     22  C   UNL d   1     -47.760  31.368  34.512  0.00  0.00     0.005 A 
ATOM     23  C   UNL d   1     -47.380  32.114  34.727  0.00  0.00     0.000 A 
ATOM     24  C   UNL d   1     -48.255  31.328  33.800  0.00  0.00     0.000 A 
ATOM     25  C   UNL d   1     -47.492  32.821  34.234  0.00  0.00     0.000 A 
ATOM     26  C   UNL d   1     -46.883  32.165  35.435  0.00  0.00     0.003 A 
ATOM     27  C   UNL d   1     -47.987  32.777  33.525  0.00  0.00     0.000 A 
ATOM     28  C   UNL d   1     -48.368  32.035  33.307  0.00  0.00     0.000 A 
ATOM     29  C   UNL d   1     -46.777  31.456  35.920  0.00  0.00     0.042 A 
ATOM     30  C   UNL d   1     -47.157  30.709  35.705  0.00  0.00     0.197 A 
ATOM     31  O   UNL d   1     -47.047  30.013  36.190  0.00  0.00    -0.286 OA
ENDBRANCH  20  21
ENDBRANCH  19  20
ENDBRANCH   2  19
TORSDOF 5
ENDMDL
