MODEL 1
REMARK VINA RESULT:      -9.2      0.000      0.000
REMARK  5 active torsions:
REMARK  status: ('A' for Active; 'I' for Inactive)
REMARK    1  A    between atoms: C_10  and  C_3 
REMARK    2  A    between atoms: N_13  and  C_4 
REMARK    3  A    between atoms: N_12  and  C_17 
REMARK    4  A    between atoms: C_16  and  N_13 
REMARK    5  A    between atoms: C_17  and  C_16 
ROOT
ATOM      1  C   UNL d   1      53.407  32.778  54.069  0.00  0.00     0.150 A 
ATOM      2  N   UNL d   1      52.885  32.885  53.434  0.00  0.00    -0.275 N 
ATOM      3  C   UNL d   1      53.657  33.427  54.512  0.00  0.00     0.056 A 
ATOM      4  C   UNL d   1      52.608  33.643  53.239  0.00  0.00     0.149 A 
ATOM      5  N   UNL d   1      53.677  32.017  54.256  0.00  0.00    -0.227 NA
ATOM      6  C   UNL d   1      53.387  34.183  54.324  0.00  0.00     0.007 A 
ATOM      7  C   UNL d   1      52.864  34.291  53.690  0.00  0.00     0.038 A 
ATOM      8  C   UNL d   1      52.905  31.466  53.176  0.00  0.00     0.084 A 
ATOM      9  C   UNL d   1      53.428  31.358  53.811  0.00  0.00     0.099 A 
ATOM     10  C   UNL d   1      53.636  34.842  54.769  0.00  0.00     0.000 C 
ATOM     11  C   UNL d   1      52.649  30.817  52.726  0.00  0.00     0.019 A 
ATOM     12  C   UNL d   1      53.698  30.601  53.998  0.00  0.00     0.021 A 
ATOM     13  C   UNL d   1      52.926  30.060  52.921  0.00  0.00     0.002 A 
ATOM     14  C   UNL d   1      53.448  29.952  53.555  0.00  0.00     0.002 A 
ENDROOT
BRANCH   4  15
ATOM     15  N   UNL d   1      52.089  33.750  52.608  0.00  0.00    -0.225 NA
BRANCH  15  16
ATOM     16  C   UNL d   1      51.351  34.095  52.735  0.00  0.00     0.120 C 
BRANCH  16  17
ATOM     17  C   UNL d   1      50.790  34.090  52.144  0.00  0.00     0.101 C 
BRANCH  17  18
ATOM     18  N   UNL d   1      50.070  34.460  52.255  0.00  0.00    -0.298 N 
ATOM     19  C   UNL d   1      49.516  34.467  51.645  0.00  0.00     0.107 A 
ATOM     20  C   UNL d   1      48.787  34.840  51.753  0.00  0.00     0.142 A 
ATOM     21  O   UNL d   1      48.607  35.209  52.468  0.00  0.00    -0.300 OA
ATOM     22  C   UNL d   1      49.170  35.199  53.082  0.00  0.00     0.142 A 
ATOM     23  C   UNL d   1      49.898  34.827  52.973  0.00  0.00     0.107 A 
ENDBRANCH  17  18
ENDBRANCH  16  17
ENDBRANCH  15  16
ENDBRANCH   4  15
BRANCH   3  24
ATOM     24  C   UNL d   1      54.177  33.319  55.143  0.00  0.00     0.125 C 
ATOM     25  N   UNL d   1      54.866  33.690  55.158  0.00  0.00    -0.146 N 
ENDBRANCH   3  24
TORSDOF 5
ENDMDL
MODEL 2
REMARK VINA RESULT:      -8.6      0.752      2.578
REMARK  5 active torsions:
REMARK  status: ('A' for Active; 'I' for Inactive)
REMARK    1  A    between atoms: C_10  and  C_3 
REMARK    2  A    between atoms: N_13  and  C_4 
REMARK    3  A    between atoms: N_12  and  C_17 
REMARK    4  A    between atoms: C_16  and  N_13 
REMARK    5  A    between atoms: C_17  and  C_16 
ROOT
ATOM      1  C   UNL d   1      53.456  31.980  53.874  0.00  0.00     0.150 A 
ATOM      2  N   UNL d   1      53.164  32.635  53.459  0.00  0.00    -0.275 N 
ATOM      3  C   UNL d   1      53.238  31.218  53.649  0.00  0.00     0.056 A 
ATOM      4  C   UNL d   1      52.651  32.532  52.816  0.00  0.00     0.149 A 
ATOM      5  N   UNL d   1      53.969  32.094  54.515  0.00  0.00    -0.227 NA
ATOM      6  C   UNL d   1      52.727  31.106  53.010  0.00  0.00     0.007 A 
ATOM      7  C   UNL d   1      52.435  31.761  52.594  0.00  0.00     0.038 A 
ATOM      8  C   UNL d   1      53.900  33.517  54.332  0.00  0.00     0.084 A 
ATOM      9  C   UNL d   1      54.193  32.862  54.747  0.00  0.00     0.099 A 
ATOM     10  C   UNL d   1      52.503  30.338  52.778  0.00  0.00     0.000 C 
ATOM     11  C   UNL d   1      54.116  34.287  54.553  0.00  0.00     0.019 A 
ATOM     12  C   UNL d   1      54.703  32.973  55.386  0.00  0.00     0.021 A 
ATOM     13  C   UNL d   1      54.629  34.390  55.196  0.00  0.00     0.002 A 
ATOM     14  C   UNL d   1      54.922  33.735  55.612  0.00  0.00     0.002 A 
ENDROOT
BRANCH   4  15
ATOM     15  N   UNL d   1      52.360  33.183  52.403  0.00  0.00    -0.225 NA
BRANCH  15  16
ATOM     16  C   UNL d   1      51.578  33.424  52.509  0.00  0.00     0.120 C 
BRANCH  16  17
ATOM     17  C   UNL d   1      51.311  34.108  52.157  0.00  0.00     0.101 C 
BRANCH  17  18
ATOM     18  N   UNL d   1      50.538  34.352  52.264  0.00  0.00    -0.298 N 
ATOM     19  C   UNL d   1      50.000  34.293  51.642  0.00  0.00     0.107 A 
ATOM     20  C   UNL d   1      49.219  34.538  51.747  0.00  0.00     0.142 A 
ATOM     21  O   UNL d   1      48.968  34.843  52.471  0.00  0.00    -0.300 OA
ATOM     22  C   UNL d   1      49.515  34.901  53.096  0.00  0.00     0.142 A 
ATOM     23  C   UNL d   1      50.295  34.656  52.992  0.00  0.00     0.107 A 
ENDBRANCH  17  18
ENDBRANCH  16  17
ENDBRANCH  15  16
ENDBRANCH   4  15
BRANCH   3  24
ATOM     24  C   UNL d   1      53.529  30.566  54.062  0.00  0.00     0.125 C 
ATOM     25  N   UNL d   1      53.816  29.947  53.678  0.00  0.00    -0.146 N 
ENDBRANCH   3  24
TORSDOF 5
ENDMDL
MODEL 3
REMARK VINA RESULT:      -8.4      1.920      4.267
REMARK  5 active torsions:
REMARK  status: ('A' for Active; 'I' for Inactive)
REMARK    1  A    between atoms: C_10  and  C_3 
REMARK    2  A    between atoms: N_13  and  C_4 
REMARK    3  A    between atoms: N_12  and  C_17 
REMARK    4  A    between atoms: C_16  and  N_13 
REMARK    5  A    between atoms: C_17  and  C_16 
ROOT
ATOM      1  C   UNL d   1      53.012  34.068  53.978  0.00  0.00     0.150 A 
ATOM      2  N   UNL d   1      53.093  33.355  53.562  0.00  0.00    -0.275 N 
ATOM      3  C   UNL d   1      53.588  34.295  54.522  0.00  0.00     0.056 A 
ATOM      4  C   UNL d   1      53.751  32.866  53.687  0.00  0.00     0.149 A 
ATOM      5  N   UNL d   1      52.350  34.549  53.846  0.00  0.00    -0.227 NA
ATOM      6  C   UNL d   1      54.246  33.815  54.652  0.00  0.00     0.007 A 
ATOM      7  C   UNL d   1      54.328  33.103  54.236  0.00  0.00     0.038 A 
ATOM      8  C   UNL d   1      51.846  33.611  52.881  0.00  0.00     0.084 A 
ATOM      9  C   UNL d   1      51.765  34.323  53.298  0.00  0.00     0.099 A 
ATOM     10  C   UNL d   1      54.831  34.041  55.200  0.00  0.00     0.000 C 
ATOM     11  C   UNL d   1      51.270  33.375  52.332  0.00  0.00     0.019 A 
ATOM     12  C   UNL d   1      51.107  34.804  53.167  0.00  0.00     0.021 A 
ATOM     13  C   UNL d   1      50.612  33.864  52.208  0.00  0.00     0.002 A 
ATOM     14  C   UNL d   1      50.531  34.576  52.624  0.00  0.00     0.002 A 
ENDROOT
BRANCH   4  15
ATOM     15  N   UNL d   1      53.832  32.159  53.273  0.00  0.00    -0.225 NA
BRANCH  15  16
ATOM     16  C   UNL d   1      53.724  31.439  53.661  0.00  0.00     0.120 C 
BRANCH  16  17
ATOM     17  C   UNL d   1      53.774  30.739  53.245  0.00  0.00     0.101 C 
BRANCH  17  18
ATOM     18  N   UNL d   1      53.405  30.066  53.525  0.00  0.00    -0.298 N 
ATOM     19  C   UNL d   1      53.732  29.654  54.160  0.00  0.00     0.107 A 
ATOM     20  C   UNL d   1      53.363  28.974  54.446  0.00  0.00     0.142 A 
ATOM     21  O   UNL d   1      52.665  28.699  54.102  0.00  0.00    -0.300 OA
ATOM     22  C   UNL d   1      52.338  29.119  53.461  0.00  0.00     0.142 A 
ATOM     23  C   UNL d   1      52.708  29.798  53.175  0.00  0.00     0.107 A 
ENDBRANCH  17  18
ENDBRANCH  16  17
ENDBRANCH  15  16
ENDBRANCH   4  15
BRANCH   3  24
ATOM     24  C   UNL d   1      53.507  35.004  54.936  0.00  0.00     0.125 C 
ATOM     25  N   UNL d   1      53.360  35.001  55.705  0.00  0.00    -0.146 N 
ENDBRANCH   3  24
TORSDOF 5
ENDMDL
MODEL 4
REMARK VINA RESULT:      -8.1      1.962      4.380
REMARK  5 active torsions:
REMARK  status: ('A' for Active; 'I' for Inactive)
REMARK    1  A    between atoms: C_10  and  C_3 
REMARK    2  A    between atoms: N_13  and  C_4 
REMARK    3  A    between atoms: N_12  and  C_17 
REMARK    4  A    between atoms: C_16  and  N_13 
REMARK    5  A    between atoms: C_17  and  C_16 
ROOT
ATOM      1  C   UNL d   1      52.596  33.933  53.631  0.00  0.00     0.150 A 
ATOM      2  N   UNL d   1      52.940  33.215  53.400  0.00  0.00    -0.275 N 
ATOM      3  C   UNL d   1      51.888  34.180  53.288  0.00  0.00     0.056 A 
ATOM      4  C   UNL d   1      52.578  32.739  52.825  0.00  0.00     0.149 A 
ATOM      5  N   UNL d   1      52.965  34.401  54.207  0.00  0.00    -0.227 NA
ATOM      6  C   UNL d   1      51.521  33.712  52.715  0.00  0.00     0.007 A 
ATOM      7  C   UNL d   1      51.865  32.994  52.484  0.00  0.00     0.038 A 
ATOM      8  C   UNL d   1      54.025  33.438  54.325  0.00  0.00     0.084 A 
ATOM      9  C   UNL d   1      53.681  34.156  54.556  0.00  0.00     0.099 A 
ATOM     10  C   UNL d   1      50.806  33.958  52.366  0.00  0.00     0.000 C 
ATOM     11  C   UNL d   1      54.738  33.182  54.666  0.00  0.00     0.019 A 
ATOM     12  C   UNL d   1      54.048  34.623  55.129  0.00  0.00     0.021 A 
ATOM     13  C   UNL d   1      55.099  33.658  55.241  0.00  0.00     0.002 A 
ATOM     14  C   UNL d   1      54.755  34.376  55.472  0.00  0.00     0.002 A 
ENDROOT
BRANCH   4  15
ATOM     15  N   UNL d   1      52.920  32.025  52.596  0.00  0.00    -0.225 NA
BRANCH  15  16
ATOM     16  C   UNL d   1      52.639  31.314  52.905  0.00  0.00     0.120 C 
BRANCH  16  17
ATOM     17  C   UNL d   1      53.034  30.618  52.753  0.00  0.00     0.101 C 
BRANCH  17  18
ATOM     18  N   UNL d   1      53.004  30.002  53.289  0.00  0.00    -0.298 N 
ATOM     19  C   UNL d   1      53.634  29.879  53.807  0.00  0.00     0.107 A 
ATOM     20  C   UNL d   1      53.608  29.258  54.350  0.00  0.00     0.142 A 
ATOM     21  O   UNL d   1      52.955  28.755  54.381  0.00  0.00    -0.300 OA
ATOM     22  C   UNL d   1      52.321  28.883  53.855  0.00  0.00     0.142 A 
ATOM     23  C   UNL d   1      52.348  29.503  53.313  0.00  0.00     0.107 A 
ENDBRANCH  17  18
ENDBRANCH  16  17
ENDBRANCH  15  16
ENDBRANCH   4  15
BRANCH   3  24
ATOM     24  C   UNL d   1      51.545  34.894  53.518  0.00  0.00     0.125 C 
ATOM     25  N   UNL d   1      50.771  34.950  53.620  0.00  0.00    -0.146 N 
ENDBRANCH   3  24
TORSDOF 5
ENDMDL
MODEL 5
REMARK VINA RESULT:      -6.7      9.571     10.834
REMARK  5 active torsions:
REMARK  status: ('A' for Active; 'I' for Inactive)
REMARK    1  A    between atoms: C_10  and  C_3 
REMARK    2  A    between atoms: N_13  and  C_4 
REMARK    3  A    between atoms: N_12  and  C_17 
REMARK    4  A    between atoms: C_16  and  N_13 
REMARK    5  A    between atoms: C_17  and  C_16 
ROOT
ATOM      1  C   UNL d   1      44.648  30.639  58.814  0.00  0.00     0.150 A 
ATOM      2  N   UNL d   1      44.906  29.867  58.972  0.00  0.00    -0.275 N 
ATOM      3  C   UNL d   1      44.577  30.898  58.035  0.00  0.00     0.056 A 
ATOM      4  C   UNL d   1      45.095  29.350  58.352  0.00  0.00     0.149 A 
ATOM      5  N   UNL d   1      44.462  31.148  59.441  0.00  0.00    -0.227 NA
ATOM      6  C   UNL d   1      44.763  30.390  57.412  0.00  0.00     0.007 A 
ATOM      7  C   UNL d   1      45.021  29.618  57.570  0.00  0.00     0.038 A 
ATOM      8  C   UNL d   1      44.790  30.118  60.389  0.00  0.00     0.084 A 
ATOM      9  C   UNL d   1      44.532  30.890  60.230  0.00  0.00     0.099 A 
ATOM     10  C   UNL d   1      44.693  30.647  56.623  0.00  0.00     0.000 C 
ATOM     11  C   UNL d   1      44.864  29.850  61.171  0.00  0.00     0.019 A 
ATOM     12  C   UNL d   1      44.346  31.398  60.854  0.00  0.00     0.021 A 
ATOM     13  C   UNL d   1      44.675  30.367  61.791  0.00  0.00     0.002 A 
ATOM     14  C   UNL d   1      44.417  31.139  61.633  0.00  0.00     0.002 A 
ENDROOT
BRANCH   4  15
ATOM     15  N   UNL d   1      45.352  28.583  58.509  0.00  0.00    -0.225 NA
BRANCH  15  16
ATOM     16  C   UNL d   1      45.146  27.966  58.001  0.00  0.00     0.120 C 
BRANCH  16  17
ATOM     17  C   UNL d   1      45.456  27.221  58.118  0.00  0.00     0.101 C 
BRANCH  17  18
ATOM     18  N   UNL d   1      45.104  26.570  57.770  0.00  0.00    -0.298 N 
ATOM     19  C   UNL d   1      44.786  25.975  58.243  0.00  0.00     0.107 A 
ATOM     20  C   UNL d   1      44.431  25.316  57.896  0.00  0.00     0.142 A 
ATOM     21  O   UNL d   1      44.389  25.246  57.075  0.00  0.00    -0.300 OA
ATOM     22  C   UNL d   1      44.712  25.850  56.601  0.00  0.00     0.142 A 
ATOM     23  C   UNL d   1      45.067  26.508  56.948  0.00  0.00     0.107 A 
ENDBRANCH  17  18
ENDBRANCH  16  17
ENDBRANCH  15  16
ENDBRANCH   4  15
BRANCH   3  24
ATOM     24  C   UNL d   1      44.320  31.666  57.878  0.00  0.00     0.125 C 
ATOM     25  N   UNL d   1      44.571  32.047  57.241  0.00  0.00    -0.146 N 
ENDBRANCH   3  24
TORSDOF 5
ENDMDL
