MODEL 1
REMARK VINA RESULT:      59.0      0.000      0.000
REMARK  4 active torsions:
REMARK  status: ('A' for Active; 'I' for Inactive)
REMARK    1  A    between atoms: S_3  and  N_1 
REMARK    2  A    between atoms: C_9  and  S_3 
REMARK    3  A    between atoms: C_10  and  N_5 
REMARK    4  A    between atoms: C_15  and  C_10 
ROOT
ATOM      1  N   UNL d   1      13.717  13.921  -2.960  0.00  0.00    -0.195 N 
ATOM      2  C   UNL d   1      13.608  13.388  -3.566  0.00  0.00     0.193 A 
ATOM      3  C   UNL d   1      13.670  12.579  -3.420  0.00  0.00     0.185 A 
ATOM      4  N   UNL d   1      13.842  12.514  -2.624  0.00  0.00    -0.269 N 
ATOM      5  C   UNL d   1      13.870  13.282  -2.355  0.00  0.00     0.179 A 
ATOM      6  N   UNL d   1      13.437  13.662  -4.323  0.00  0.00    -0.223 NA
ATOM      7  N   UNL d   1      13.560  12.042  -4.035  0.00  0.00    -0.224 NA
ATOM      8  C   UNL d   1      13.327  13.122  -4.934  0.00  0.00     0.101 A 
ATOM      9  C   UNL d   1      13.388  12.316  -4.791  0.00  0.00     0.101 A 
ATOM     10  C   UNL d   1      13.277  11.782  -5.409  0.00  0.00     0.021 A 
ATOM     11  C   UNL d   1      13.156  13.398  -5.688  0.00  0.00     0.021 A 
ATOM     12  C   UNL d   1      13.046  12.860  -6.300  0.00  0.00     0.002 A 
ATOM     13  C   UNL d   1      13.108  12.056  -6.154  0.00  0.00     0.002 A 
ENDROOT
BRANCH   1  14
ATOM     14  S   UNL d   1      13.643  14.792  -3.153  0.00  0.00     0.274 S 
ATOM     15  O   UNL d   1      12.867  15.063  -3.496  0.00  0.00    -0.200 OA
ATOM     16  O   UNL d   1      12.907  14.449  -3.365  0.00  0.00    -0.200 OA
BRANCH  14  17
ATOM     17  C   UNL d   1      14.155  15.431  -3.082  0.00  0.00     0.104 A 
ATOM     18  C   UNL d   1      14.417  15.829  -3.764  0.00  0.00     0.013 A 
ATOM     19  C   UNL d   1      14.935  16.475  -3.685  0.00  0.00     0.001 A 
ATOM     20  C   UNL d   1      15.187  16.718  -2.937  0.00  0.00     0.000 A 
ATOM     21  C   UNL d   1      14.919  16.313  -2.259  0.00  0.00     0.001 A 
ATOM     22  C   UNL d   1      15.699  17.358  -2.862  0.00  0.00     0.000 C 
ATOM     23  C   UNL d   1      14.407  15.675  -2.334  0.00  0.00     0.013 A 
ENDBRANCH  14  17
ENDBRANCH   1  14
BRANCH   4  24
ATOM     24  C   UNL d   1      13.961  11.820  -2.191  0.00  0.00     0.108 C 
BRANCH  24  25
ATOM     25  C   UNL d   1      14.157  11.857  -1.385  0.00  0.00     0.118 A 
ATOM     26  O   UNL d   1      14.916  11.980  -1.076  0.00  0.00    -0.304 OA
ATOM     27  C   UNL d   1      14.862  11.978  -0.238  0.00  0.00     0.123 A 
ATOM     28  C   UNL d   1      14.066  11.853  -0.038  0.00  0.00     0.029 A 
ATOM     29  C   UNL d   1      13.634  11.779  -0.750  0.00  0.00     0.028 A 
ENDBRANCH  24  25
ENDBRANCH   4  24
TORSDOF 4
ENDMDL
MODEL 2
REMARK VINA RESULT:      62.0      1.177      4.407
REMARK  4 active torsions:
REMARK  status: ('A' for Active; 'I' for Inactive)
REMARK    1  A    between atoms: S_3  and  N_1 
REMARK    2  A    between atoms: C_9  and  S_3 
REMARK    3  A    between atoms: C_10  and  N_5 
REMARK    4  A    between atoms: C_15  and  C_10 
ROOT
ATOM      1  N   UNL d   1      13.637  13.619  -2.857  0.00  0.00    -0.195 N 
ATOM      2  C   UNL d   1      14.125  13.514  -2.213  0.00  0.00     0.193 A 
ATOM      3  C   UNL d   1      14.436  14.169  -1.821  0.00  0.00     0.185 A 
ATOM      4  N   UNL d   1      14.147  14.821  -2.220  0.00  0.00    -0.269 N 
ATOM      5  C   UNL d   1      13.687  14.510  -2.816  0.00  0.00     0.179 A 
ATOM      6  N   UNL d   1      14.303  12.753  -1.957  0.00  0.00    -0.223 NA
ATOM      7  N   UNL d   1      14.929  14.061  -1.170  0.00  0.00    -0.224 NA
ATOM      8  C   UNL d   1      14.796  12.649  -1.306  0.00  0.00     0.101 A 
ATOM      9  C   UNL d   1      15.107  13.299  -0.914  0.00  0.00     0.101 A 
ATOM     10  C   UNL d   1      15.600  13.186  -0.263  0.00  0.00     0.021 A 
ATOM     11  C   UNL d   1      14.971  11.888  -1.054  0.00  0.00     0.021 A 
ATOM     12  C   UNL d   1      15.464  11.783  -0.403  0.00  0.00     0.002 A 
ATOM     13  C   UNL d   1      15.773  12.434  -0.014  0.00  0.00     0.002 A 
ENDROOT
BRANCH   1  14
ATOM     14  S   UNL d   1      13.316  12.887  -3.260  0.00  0.00     0.274 S 
ATOM     15  O   UNL d   1      12.870  12.310  -2.748  0.00  0.00    -0.200 OA
ATOM     16  O   UNL d   1      13.091  12.821  -2.454  0.00  0.00    -0.200 OA
BRANCH  14  17
ATOM     17  C   UNL d   1      13.341  12.612  -4.033  0.00  0.00     0.104 A 
ATOM     18  C   UNL d   1      13.941  12.875  -4.547  0.00  0.00     0.013 A 
ATOM     19  C   UNL d   1      13.960  12.592  -5.329  0.00  0.00     0.001 A 
ATOM     20  C   UNL d   1      13.389  12.057  -5.593  0.00  0.00     0.000 A 
ATOM     21  C   UNL d   1      12.791  11.800  -5.072  0.00  0.00     0.001 A 
ATOM     22  C   UNL d   1      13.410  11.780  -6.368  0.00  0.00     0.000 C 
ATOM     23  C   UNL d   1      12.770  12.077  -4.298  0.00  0.00     0.013 A 
ENDBRANCH  14  17
ENDBRANCH   1  14
BRANCH   4  24
ATOM     24  C   UNL d   1      14.291  15.617  -2.053  0.00  0.00     0.108 C 
BRANCH  24  25
ATOM     25  C   UNL d   1      14.691  16.094  -2.602  0.00  0.00     0.118 A 
ATOM     26  O   UNL d   1      14.705  15.983  -3.423  0.00  0.00    -0.304 OA
ATOM     27  C   UNL d   1      15.173  16.591  -3.763  0.00  0.00     0.123 A 
ATOM     28  C   UNL d   1      15.444  17.074  -3.145  0.00  0.00     0.029 A 
ATOM     29  C   UNL d   1      15.144  16.764  -2.429  0.00  0.00     0.028 A 
ENDBRANCH  24  25
ENDBRANCH   4  24
TORSDOF 4
ENDMDL
