MODEL 1
REMARK VINA RESULT:      94.1      0.000      0.000
REMARK  5 active torsions:
REMARK  status: ('A' for Active; 'I' for Inactive)
REMARK    1  A    between atoms: C_11  and  N_1 
REMARK    2  A    between atoms: C_15  and  C_3 
REMARK    3  A    between atoms: N_4  and  C_7 
REMARK    4  A    between atoms: C_9  and  C_10 
REMARK       I    between atoms: C_10  and  N_12 
REMARK    5  A    between atoms: N_12  and  C_15 
ROOT
ATOM      1  C   UNL d   1      60.969  47.698  50.334  0.00  0.00     0.141 C 
ENDROOT
BRANCH   1   2
ATOM      2  N   UNL d   1      61.478  47.060  50.205  0.00  0.00    -0.203 NA
ATOM      3  C   UNL d   1      61.298  46.507  49.615  0.00  0.00     0.279 C 
ATOM      4  O   UNL d   1      60.628  46.593  49.169  0.00  0.00    -0.265 OA
BRANCH   3   5
ATOM      5  C   UNL d   1      61.814  45.867  49.490  0.00  0.00     0.059 A 
ATOM      6  C   UNL d   1      61.677  45.150  49.878  0.00  0.00     0.027 A 
ATOM      7  C   UNL d   1      62.181  44.527  49.755  0.00  0.00     0.127 A 
ATOM      8  C   UNL d   1      61.029  45.087  50.382  0.00  0.00     0.002 C 
ATOM      9  C   UNL d   1      62.836  44.597  49.243  0.00  0.00     0.024 A 
ATOM     10  C   UNL d   1      62.981  45.306  48.853  0.00  0.00     0.002 A 
ATOM     11  C   UNL d   1      62.475  45.932  48.975  0.00  0.00     0.005 A 
BRANCH   7  12
ATOM     12  N   UNL d   1      62.037  43.822  50.144  0.00  0.00    -0.114 N 
ATOM     13  O   UNL d   1      61.570  43.802  50.827  0.00  0.00    -0.532 OA
ATOM     14  O   UNL d   1      62.360  43.112  49.853  0.00  0.00    -0.532 OA
ENDBRANCH   7  12
ENDBRANCH   3   5
ENDBRANCH   1   2
BRANCH   1  15
ATOM     15  C   UNL d   1      61.066  48.177  51.002  0.00  0.00     0.191 A 
ATOM     16  N   UNL d   1      60.550  48.757  51.271  0.00  0.00    -0.264 N 
ATOM     17  C   UNL d   1      60.857  49.097  51.948  0.00  0.00     0.227 A 
ATOM     18  N   UNL d   1      61.586  48.725  52.113  0.00  0.00    -0.117 NA
ATOM     19  S   UNL d   1      60.518  49.698  52.395  0.00  0.00    -0.036 SA
ATOM     20  N   UNL d   1      61.716  48.151  51.523  0.00  0.00    -0.126 NA
BRANCH  16  21
ATOM     21  C   UNL d   1      59.831  48.963  50.912  0.00  0.00     0.068 A 
ATOM     22  C   UNL d   1      59.130  48.622  51.186  0.00  0.00     0.020 A 
ATOM     23  C   UNL d   1      58.421  48.834  50.821  0.00  0.00     0.031 A 
ATOM     24  C   UNL d   1      58.402  49.373  50.197  0.00  0.00     0.140 A 
ATOM     25  C   UNL d   1      59.115  49.707  49.933  0.00  0.00     0.031 A 
ATOM     26  F   UNL d   1      57.694  49.576  49.843  0.00  0.00    -0.204 F 
ATOM     27  C   UNL d   1      59.829  49.502  50.290  0.00  0.00     0.020 A 
ENDBRANCH  16  21
ENDBRANCH   1  15
TORSDOF 5
ENDMDL
