MODEL 1
REMARK VINA RESULT:      93.1      0.000      0.000
REMARK  2 active torsions:
REMARK  status: ('A' for Active; 'I' for Inactive)
REMARK    1  A    between atoms: N_2  and  C_1 
REMARK    2  A    between atoms: N_11  and  C_3 
ROOT
ATOM      1  C   UNL d   1      59.575  49.399  51.295  0.00  0.00     0.142 A 
ATOM      2  C   UNL d   1      60.386  49.251  51.304  0.00  0.00     0.124 A 
ATOM      3  C   UNL d   1      59.180  49.546  52.000  0.00  0.00     0.215 A 
ATOM      4  C   UNL d   1      60.803  49.249  52.014  0.00  0.00     0.213 A 
ATOM      5  C   UNL d   1      59.589  49.547  52.718  0.00  0.00     0.044 A 
ATOM      6  C   UNL d   1      60.404  49.397  52.720  0.00  0.00     0.044 A 
ATOM      7  O   UNL d   1      58.368  49.696  51.998  0.00  0.00    -0.285 OA
ATOM      8  O   UNL d   1      61.615  49.101  52.024  0.00  0.00    -0.285 OA
ATOM      9  C   UNL d   1      59.199  49.693  53.418  0.00  0.00     0.003 A 
ATOM     10  C   UNL d   1      60.818  49.396  53.438  0.00  0.00     0.003 A 
ATOM     11  C   UNL d   1      60.415  49.544  54.138  0.00  0.00     0.000 A 
ATOM     12  C   UNL d   1      59.599  49.694  54.128  0.00  0.00     0.000 A 
ENDROOT
BRANCH   1  13
ATOM     13  N   UNL d   1      59.165  49.400  50.585  0.00  0.00    -0.206 N 
ATOM     14  N   UNL d   1      59.487  49.557  49.841  0.00  0.00    -0.059 NA
ATOM     15  N   UNL d   1      58.877  49.497  49.284  0.00  0.00    -0.129 NA
ATOM     16  C   UNL d   1      58.183  49.303  49.693  0.00  0.00     0.122 A 
ATOM     17  C   UNL d   1      58.366  49.244  50.499  0.00  0.00     0.104 A 
ATOM     18  C   UNL d   1      57.413  49.175  49.427  0.00  0.00     0.022 A 
ATOM     19  C   UNL d   1      57.782  49.057  51.038  0.00  0.00     0.021 A 
ATOM     20  C   UNL d   1      57.000  48.924  50.788  0.00  0.00     0.002 A 
ATOM     21  C   UNL d   1      56.822  48.984  49.982  0.00  0.00     0.002 A 
ENDBRANCH   1  13
BRANCH   2  22
ATOM     22  N   UNL d   1      60.784  49.103  50.596  0.00  0.00    -0.296 N 
ATOM     23  C   UNL d   1      60.887  49.708  50.045  0.00  0.00     0.107 A 
ATOM     24  C   UNL d   1      61.279  49.565  49.345  0.00  0.00     0.142 A 
ATOM     25  O   UNL d   1      61.578  48.809  49.183  0.00  0.00    -0.300 OA
ATOM     26  C   UNL d   1      61.473  48.206  49.739  0.00  0.00     0.142 A 
ATOM     27  C   UNL d   1      61.077  48.355  50.443  0.00  0.00     0.107 A 
ENDBRANCH   2  22
TORSDOF 2
ENDMDL
