MODEL 1
REMARK VINA RESULT:      -5.0      0.000      0.000
REMARK  3 active torsions:
REMARK  status: ('A' for Active; 'I' for Inactive)
REMARK    1  A    between atoms: C_13  and  N_2 
REMARK    2  A    between atoms: N_5  and  C_14 
REMARK    3  A    between atoms: C_14  and  C_13 
ROOT
ATOM      1  C   UNL d   1      58.009  -1.129  30.269  0.00  0.00     0.166 A 
ATOM      2  N   UNL d   1      58.481  -1.438  29.651  0.00  0.00    -0.288 N 
ATOM      3  C   UNL d   1      58.123  -0.308  30.298  0.00  0.00     0.117 A 
ATOM      4  N   UNL d   1      57.494  -1.511  30.801  0.00  0.00    -0.225 NA
ATOM      5  N   UNL d   1      57.722   0.135  30.860  0.00  0.00    -0.241 NA
ATOM      6  C   UNL d   1      58.669  -0.106  29.696  0.00  0.00     0.037 A 
ATOM      7  C   UNL d   1      58.879  -0.801  29.309  0.00  0.00     0.067 A 
ATOM      8  C   UNL d   1      57.088  -1.069  31.367  0.00  0.00     0.101 A 
ATOM      9  C   UNL d   1      57.202  -0.247  31.396  0.00  0.00     0.099 A 
ATOM     10  C   UNL d   1      58.988   0.641  29.468  0.00  0.00     0.003 A 
ATOM     11  C   UNL d   1      59.431  -0.760  28.667  0.00  0.00     0.018 A 
ATOM     12  C   UNL d   1      56.567  -1.446  31.906  0.00  0.00     0.021 A 
ATOM     13  C   UNL d   1      56.797   0.169  31.957  0.00  0.00     0.021 A 
ATOM     14  C   UNL d   1      59.520   0.680  28.849  0.00  0.00     0.000 A 
ATOM     15  C   UNL d   1      59.735  -0.014  28.456  0.00  0.00     0.002 A 
ATOM     16  C   UNL d   1      56.279  -0.184  32.498  0.00  0.00     0.002 A 
ATOM     17  C   UNL d   1      56.164  -1.006  32.469  0.00  0.00     0.002 A 
ENDROOT
BRANCH   2  18
ATOM     18  C   UNL d   1      58.780  -2.049  29.177  0.00  0.00     0.101 C 
BRANCH  18  19
ATOM     19  C   UNL d   1      59.127  -2.711  29.526  0.00  0.00     0.104 C 
BRANCH  19  20
ATOM     20  N   UNL d   1      59.227  -3.397  29.080  0.00  0.00    -0.250 N 
ATOM     21  C   UNL d   1      58.832  -3.778  28.694  0.00  0.00     0.378 A 
ATOM     22  O   UNL d   1      59.202  -4.285  28.456  0.00  0.00    -0.258 OA
ATOM     23  O   UNL d   1      58.185  -3.673  28.568  0.00  0.00    -0.237 OA
ATOM     24  C   UNL d   1      59.825  -4.215  28.697  0.00  0.00     0.121 A 
ATOM     25  C   UNL d   1      59.841  -3.666  29.082  0.00  0.00     0.092 A 
ATOM     26  C   UNL d   1      60.386  -4.580  28.616  0.00  0.00     0.026 A 
ATOM     27  C   UNL d   1      60.407  -3.479  29.386  0.00  0.00     0.020 A 
ATOM     28  C   UNL d   1      60.966  -3.847  29.302  0.00  0.00     0.002 A 
ATOM     29  C   UNL d   1      60.952  -4.393  28.920  0.00  0.00     0.002 A 
ENDBRANCH  19  20
ENDBRANCH  18  19
ENDBRANCH   2  18
TORSDOF 3
ENDMDL
MODEL 2
REMARK VINA RESULT:      -4.2      1.590      4.437
REMARK  3 active torsions:
REMARK  status: ('A' for Active; 'I' for Inactive)
REMARK    1  A    between atoms: C_13  and  N_2 
REMARK    2  A    between atoms: N_5  and  C_14 
REMARK    3  A    between atoms: C_14  and  C_13 
ROOT
ATOM      1  C   UNL d   1      59.153  -1.691  29.512  0.00  0.00     0.166 A 
ATOM      2  N   UNL d   1      58.938  -0.942  29.817  0.00  0.00    -0.288 N 
ATOM      3  C   UNL d   1      59.954  -1.665  29.299  0.00  0.00     0.117 A 
ATOM      4  N   UNL d   1      58.703  -2.385  29.410  0.00  0.00    -0.225 NA
ATOM      5  N   UNL d   1      60.309  -2.334  28.982  0.00  0.00    -0.241 NA
ATOM      6  C   UNL d   1      60.238  -0.897  29.472  0.00  0.00     0.037 A 
ATOM      7  C   UNL d   1      59.611  -0.466  29.786  0.00  0.00     0.067 A 
ATOM      8  C   UNL d   1      59.055  -3.059  29.092  0.00  0.00     0.101 A 
ATOM      9  C   UNL d   1      59.858  -3.033  28.878  0.00  0.00     0.099 A 
ATOM     10  C   UNL d   1      61.003  -0.555  29.372  0.00  0.00     0.003 A 
ATOM     11  C   UNL d   1      59.743   0.340  30.013  0.00  0.00     0.018 A 
ATOM     12  C   UNL d   1      58.609  -3.761  28.986  0.00  0.00     0.021 A 
ATOM     13  C   UNL d   1      60.185  -3.702  28.569  0.00  0.00     0.021 A 
ATOM     14  C   UNL d   1      61.130   0.222  29.591  0.00  0.00     0.000 A 
ATOM     15  C   UNL d   1      60.504   0.660  29.907  0.00  0.00     0.002 A 
ATOM     16  C   UNL d   1      59.763  -4.406  28.456  0.00  0.00     0.002 A 
ATOM     17  C   UNL d   1      58.960  -4.432  28.669  0.00  0.00     0.002 A 
ENDROOT
BRANCH   2  18
ATOM     18  C   UNL d   1      58.406  -0.396  30.142  0.00  0.00     0.101 C 
BRANCH  18  19
ATOM     19  C   UNL d   1      57.860  -0.639  30.711  0.00  0.00     0.104 C 
BRANCH  19  20
ATOM     20  N   UNL d   1      57.275  -0.114  30.961  0.00  0.00    -0.250 N 
ATOM     21  C   UNL d   1      56.964   0.417  30.694  0.00  0.00     0.378 A 
ATOM     22  O   UNL d   1      56.524   0.647  31.145  0.00  0.00    -0.258 OA
ATOM     23  O   UNL d   1      57.072   0.672  30.086  0.00  0.00    -0.237 OA
ATOM     24  C   UNL d   1      56.565   0.257  31.690  0.00  0.00     0.121 A 
ATOM     25  C   UNL d   1      57.030  -0.213  31.576  0.00  0.00     0.092 A 
ATOM     26  C   UNL d   1      56.239   0.266  32.279  0.00  0.00     0.026 A 
ATOM     27  C   UNL d   1      57.172  -0.672  32.042  0.00  0.00     0.020 A 
ATOM     28  C   UNL d   1      56.844  -0.659  32.631  0.00  0.00     0.002 A 
ATOM     29  C   UNL d   1      56.382  -0.192  32.746  0.00  0.00     0.002 A 
ENDBRANCH  19  20
ENDBRANCH  18  19
ENDBRANCH   2  18
TORSDOF 3
ENDMDL
