MODEL 1
REMARK VINA RESULT:      60.6      0.000      0.000
REMARK  7 active torsions:
REMARK  status: ('A' for Active; 'I' for Inactive)
REMARK    1  A    between atoms: C_11  and  N_3 
REMARK    2  A    between atoms: C_10  and  C_4 
REMARK    3  A    between atoms: C_16  and  C_11 
REMARK    4  A    between atoms: N_13  and  C_17 
REMARK    5  A    between atoms: C_26  and  N_14 
REMARK    6  A    between atoms: C_17  and  C_16 
REMARK    7  A    between atoms: C_28  and  C_26 
ROOT
ATOM      1  C   UNL d   1      14.095  13.439  -2.214  0.00  0.00     0.137 A 
ATOM      2  N   UNL d   1      14.500  13.025  -1.613  0.00  0.00    -0.259 N 
ATOM      3  N   UNL d   1      14.187  14.243  -2.057  0.00  0.00    -0.287 N 
ATOM      4  C   UNL d   1      13.707  13.026  -2.807  0.00  0.00     0.054 A 
ATOM      5  C   UNL d   1      14.508  12.197  -1.620  0.00  0.00     0.266 A 
ATOM      6  C   UNL d   1      14.835  13.574  -1.097  0.00  0.00     0.084 A 
ATOM      7  C   UNL d   1      14.639  14.337  -1.375  0.00  0.00     0.082 A 
ATOM      8  C   UNL d   1      13.714  12.202  -2.815  0.00  0.00     0.009 A 
ATOM      9  C   UNL d   1      14.114  11.779  -2.223  0.00  0.00     0.061 A 
ATOM     10  O   UNL d   1      14.909  11.779  -1.026  0.00  0.00    -0.267 OA
ATOM     11  C   UNL d   1      15.288  13.495  -0.416  0.00  0.00     0.019 A 
ATOM     12  C   UNL d   1      13.322  11.786  -3.414  0.00  0.00     0.000 C 
ATOM     13  C   UNL d   1      14.904  14.991  -0.961  0.00  0.00     0.019 A 
ATOM     14  C   UNL d   1      15.545  14.160  -0.014  0.00  0.00     0.002 A 
ATOM     15  C   UNL d   1      15.351  14.916  -0.290  0.00  0.00     0.002 A 
ENDROOT
BRANCH   3  16
ATOM     16  C   UNL d   1      13.998  14.998  -2.324  0.00  0.00     0.125 C 
BRANCH  16  17
ATOM     17  C   UNL d   1      14.328  15.280  -3.026  0.00  0.00     0.231 C 
ATOM     18  O   UNL d   1      14.097  14.964  -3.751  0.00  0.00    -0.283 OA
BRANCH  17  19
ATOM     19  C   UNL d   1      14.891  15.879  -3.003  0.00  0.00     0.124 C 
BRANCH  19  20
ATOM     20  N   UNL d   1      14.951  16.413  -3.626  0.00  0.00    -0.297 N 
ATOM     21  C   UNL d   1      14.861  17.209  -3.406  0.00  0.00     0.100 A 
ATOM     22  C   UNL d   1      14.909  17.804  -3.979  0.00  0.00     0.100 A 
ATOM     23  N   UNL d   1      15.048  17.611  -4.771  0.00  0.00    -0.297 N 
ATOM     24  C   UNL d   1      15.138  16.819  -4.990  0.00  0.00     0.100 A 
ATOM     25  C   UNL d   1      15.089  16.224  -4.417  0.00  0.00     0.100 A 
BRANCH  23  26
ATOM     26  C   UNL d   1      15.096  18.211  -5.344  0.00  0.00     0.126 C 
BRANCH  26  27
ATOM     27  C   UNL d   1      14.598  18.868  -5.302  0.00  0.00     0.253 C 
ATOM     28  O   UNL d   1      14.808  19.561  -5.677  0.00  0.00    -0.281 OA
ENDBRANCH  26  27
ENDBRANCH  23  26
ENDBRANCH  19  20
ENDBRANCH  17  19
ENDBRANCH  16  17
ENDBRANCH   3  16
BRANCH   4  29
ATOM     29  C   UNL d   1      13.309  13.433  -3.397  0.00  0.00     0.125 C 
ATOM     30  N   UNL d   1      13.182  13.096  -4.136  0.00  0.00    -0.146 N 
ENDBRANCH   4  29
TORSDOF 7
ENDMDL
