MODEL 1
REMARK VINA RESULT:      99.4      0.000      0.000
REMARK  5 active torsions:
REMARK  status: ('A' for Active; 'I' for Inactive)
REMARK    1  A    between atoms: C_18  and  N_1 
REMARK    2  A    between atoms: C_13  and  C_6 
REMARK    3  A    between atoms: C_12  and  C_7 
REMARK    4  A    between atoms: C_23  and  C_14 
REMARK    5  A    between atoms: C_19  and  C_18 
ROOT
ATOM      1  C   UNL d   1      58.166  49.549  52.580  0.00  0.00     0.121 A 
ATOM      2  C   UNL d   1      57.864  49.529  51.808  0.00  0.00     0.058 A 
ATOM      3  N   UNL d   1      57.525  49.517  53.098  0.00  0.00    -0.195 NA
ATOM      4  S   UNL d   1      58.978  49.593  52.702  0.00  0.00    -0.068 SA
ATOM      5  C   UNL d   1      59.496  49.618  52.059  0.00  0.00     0.026 A 
ATOM      6  C   UNL d   1      59.195  49.597  51.287  0.00  0.00    -0.001 A 
ATOM      7  C   UNL d   1      60.400  49.665  51.801  0.00  0.00    -0.011 A 
ATOM      8  C   UNL d   1      59.957  49.637  50.988  0.00  0.00    -0.027 A 
ATOM      9  C   UNL d   1      58.377  49.553  51.163  0.00  0.00     0.008 A 
ATOM     10  C   UNL d   1      56.832  49.478  52.649  0.00  0.00     0.311 A 
ATOM     11  S   UNL d   1      57.040  49.485  51.856  0.00  0.00    -0.024 SA
ATOM     12  C   UNL d   1      61.157  49.707  52.123  0.00  0.00     0.049 A 
ATOM     13  O   UNL d   1      56.065  49.438  52.949  0.00  0.00    -0.258 OA
ENDROOT
BRANCH   9  14
ATOM     14  C   UNL d   1      58.078  49.533  50.399  0.00  0.00     0.001 A 
ATOM     15  C   UNL d   1      58.563  49.707  49.756  0.00  0.00     0.000 A 
ATOM     16  C   UNL d   1      58.263  49.687  48.988  0.00  0.00     0.000 A 
ATOM     17  C   UNL d   1      57.474  49.492  48.852  0.00  0.00     0.000 A 
ATOM     18  C   UNL d   1      56.983  49.316  49.498  0.00  0.00     0.000 A 
ATOM     19  C   UNL d   1      57.283  49.336  50.265  0.00  0.00     0.000 A 
ENDBRANCH   9  14
BRANCH   8  20
ATOM     20  C   UNL d   1      60.202  49.646  50.205  0.00  0.00     0.125 A 
ATOM     21  C   UNL d   1      60.736  49.324  49.666  0.00  0.00     0.251 A 
ATOM     22  N   UNL d   1      61.208  48.782  50.075  0.00  0.00    -0.239 N 
ATOM     23  O   UNL d   1      60.793  49.508  48.857  0.00  0.00    -0.271 OA
ATOM     24  C   UNL d   1      60.970  48.768  50.855  0.00  0.00     0.263 A 
ATOM     25  C   UNL d   1      60.340  49.308  50.940  0.00  0.00     0.044 A 
ATOM     26  O   UNL d   1      61.301  48.298  51.452  0.00  0.00    -0.267 OA
BRANCH  22  27
ATOM     27  C   UNL d   1      61.833  48.318  49.743  0.00  0.00     0.134 C 
ATOM     28  C   UNL d   1      62.590  48.663  49.598  0.00  0.00     0.026 C 
BRANCH  27  29
ATOM     29  C   UNL d   1      61.699  47.499  49.554  0.00  0.00     0.228 C 
ATOM     30  O   UNL d   1      62.059  46.893  50.024  0.00  0.00    -0.643 OA
ATOM     31  O   UNL d   1      61.209  47.298  48.901  0.00  0.00    -0.643 OA
ENDBRANCH  27  29
ENDBRANCH  22  27
ENDBRANCH   8  20
TORSDOF 5
ENDMDL
