MODEL 1
REMARK VINA RESULT:      56.7      0.000      0.000
REMARK  3 active torsions:
REMARK  status: ('A' for Active; 'I' for Inactive)
REMARK    1  A    between atoms: C_9  and  C_4 
REMARK    2  A    between atoms: C_10  and  C_7 
REMARK    3  A    between atoms: C_13  and  C_10 
ROOT
ATOM      1  C   UNL d   1      14.275  13.587  -1.773  0.00  0.00     0.179 A 
ATOM      2  N   UNL d   1      14.282  14.300  -2.200  0.00  0.00    -0.282 N 
ATOM      3  N   UNL d   1      14.005  12.990  -2.268  0.00  0.00    -0.221 NA
ATOM      4  C   UNL d   1      13.841  13.332  -3.012  0.00  0.00     0.101 A 
ATOM      5  S   UNL d   1      14.543  13.744  -1.009  0.00  0.00    -0.048 SA
ATOM      6  C   UNL d   1      14.013  14.133  -2.962  0.00  0.00     0.101 A 
ATOM      7  C   UNL d   1      14.714  14.553  -0.965  0.00  0.00     0.050 A 
ATOM      8  C   UNL d   1      14.554  14.885  -1.693  0.00  0.00     0.089 A 
ENDROOT
BRANCH   7   9
ATOM      9  C   UNL d   1      15.000  14.943  -0.291  0.00  0.00     0.008 C 
BRANCH   9  10
ATOM     10  C   UNL d   1      15.358  15.675  -0.354  0.00  0.00     0.001 A 
ATOM     11  C   UNL d   1      16.172  15.753  -0.196  0.00  0.00     0.002 A 
ATOM     12  C   UNL d   1      16.534  16.497  -0.261  0.00  0.00     0.030 A 
ATOM     13  C   UNL d   1      16.091  17.156  -0.480  0.00  0.00     0.140 A 
ATOM     14  C   UNL d   1      15.284  17.080  -0.638  0.00  0.00     0.030 A 
ATOM     15  F   UNL d   1      16.435  17.898  -0.548  0.00  0.00    -0.204 F 
ATOM     16  C   UNL d   1      14.920  16.339  -0.574  0.00  0.00     0.002 A 
ENDBRANCH   9  10
ENDBRANCH   7   9
BRANCH   4  17
ATOM     17  C   UNL d   1      13.559  12.932  -3.669  0.00  0.00     0.019 A 
ATOM     18  C   UNL d   1      13.163  12.222  -3.568  0.00  0.00     0.004 A 
ATOM     19  C   UNL d   1      12.873  11.808  -4.225  0.00  0.00     0.030 A 
ATOM     20  C   UNL d   1      12.987  12.119  -4.984  0.00  0.00     0.140 A 
ATOM     21  C   UNL d   1      13.383  12.829  -5.086  0.00  0.00     0.030 A 
ATOM     22  F   UNL d   1      12.769  11.845  -5.728  0.00  0.00    -0.204 F 
ATOM     23  C   UNL d   1      13.670  13.239  -4.432  0.00  0.00     0.004 A 
ENDBRANCH   4  17
TORSDOF 3
ENDMDL
MODEL 2
REMARK VINA RESULT:      59.6      3.028      4.096
REMARK  3 active torsions:
REMARK  status: ('A' for Active; 'I' for Inactive)
REMARK    1  A    between atoms: C_9  and  C_4 
REMARK    2  A    between atoms: C_10  and  C_7 
REMARK    3  A    between atoms: C_13  and  C_10 
ROOT
ATOM      1  C   UNL d   1      15.255  16.428  -1.749  0.00  0.00     0.179 A 
ATOM      2  N   UNL d   1      14.708  15.878  -2.046  0.00  0.00    -0.282 N 
ATOM      3  N   UNL d   1      15.398  16.990  -2.330  0.00  0.00    -0.221 NA
ATOM      4  C   UNL d   1      14.936  16.791  -2.996  0.00  0.00     0.101 A 
ATOM      5  S   UNL d   1      15.452  16.204  -0.980  0.00  0.00    -0.048 SA
ATOM      6  C   UNL d   1      14.517  16.110  -2.815  0.00  0.00     0.101 A 
ATOM      7  C   UNL d   1      15.026  15.516  -0.803  0.00  0.00     0.050 A 
ATOM      8  C   UNL d   1      14.575  15.323  -1.455  0.00  0.00     0.089 A 
ENDROOT
BRANCH   7   9
ATOM      9  C   UNL d   1      15.062  15.106  -0.083  0.00  0.00     0.008 C 
BRANCH   9  10
ATOM     10  C   UNL d   1      15.025  14.290  -0.066  0.00  0.00     0.001 A 
ATOM     11  C   UNL d   1      15.728  13.843  -0.085  0.00  0.00     0.002 A 
ATOM     12  C   UNL d   1      15.688  13.015  -0.067  0.00  0.00     0.030 A 
ATOM     13  C   UNL d   1      14.958  12.635  -0.032  0.00  0.00     0.140 A 
ATOM     14  C   UNL d   1      14.261  13.077  -0.014  0.00  0.00     0.030 A 
ATOM     15  F   UNL d   1      14.904  11.816  -0.015  0.00  0.00    -0.204 F 
ATOM     16  C   UNL d   1      14.297  13.903  -0.031  0.00  0.00     0.002 A 
ENDBRANCH   9  10
ENDBRANCH   7   9
BRANCH   4  17
ATOM     17  C   UNL d   1      14.911  17.207  -3.702  0.00  0.00     0.019 A 
ATOM     18  C   UNL d   1      15.003  16.802  -4.409  0.00  0.00     0.004 A 
ATOM     19  C   UNL d   1      14.980  17.211  -5.130  0.00  0.00     0.030 A 
ATOM     20  C   UNL d   1      14.863  18.031  -5.128  0.00  0.00     0.140 A 
ATOM     21  C   UNL d   1      14.772  18.436  -4.421  0.00  0.00     0.030 A 
ATOM     22  F   UNL d   1      14.815  18.580  -5.739  0.00  0.00    -0.204 F 
ATOM     23  C   UNL d   1      14.795  18.028  -3.706  0.00  0.00     0.004 A 
ENDBRANCH   4  17
TORSDOF 3
ENDMDL
MODEL 3
REMARK VINA RESULT:      59.7      3.856      4.383
REMARK  3 active torsions:
REMARK  status: ('A' for Active; 'I' for Inactive)
REMARK    1  A    between atoms: C_9  and  C_4 
REMARK    2  A    between atoms: C_10  and  C_7 
REMARK    3  A    between atoms: C_13  and  C_10 
ROOT
ATOM      1  C   UNL d   1      14.556  16.129  -4.270  0.00  0.00     0.179 A 
ATOM      2  N   UNL d   1      14.134  16.128  -4.986  0.00  0.00    -0.282 N 
ATOM      3  N   UNL d   1      14.415  15.418  -3.884  0.00  0.00    -0.221 NA
ATOM      4  C   UNL d   1      13.899  14.968  -4.362  0.00  0.00     0.101 A 
ATOM      5  S   UNL d   1      14.961  16.845  -4.213  0.00  0.00    -0.048 SA
ATOM      6  C   UNL d   1      13.732  15.408  -5.034  0.00  0.00     0.101 A 
ATOM      7  C   UNL d   1      14.788  17.285  -4.894  0.00  0.00     0.050 A 
ATOM      8  C   UNL d   1      14.285  16.843  -5.359  0.00  0.00     0.089 A 
ENDROOT
BRANCH   7   9
ATOM      9  C   UNL d   1      15.084  18.042  -5.059  0.00  0.00     0.008 C 
BRANCH   9  10
ATOM     10  C   UNL d   1      14.602  18.615  -5.386  0.00  0.00     0.001 A 
ATOM     11  C   UNL d   1      14.563  19.371  -5.039  0.00  0.00     0.002 A 
ATOM     12  C   UNL d   1      14.073  19.952  -5.373  0.00  0.00     0.030 A 
ATOM     13  C   UNL d   1      13.626  19.782  -6.044  0.00  0.00     0.140 A 
ATOM     14  C   UNL d   1      13.664  19.032  -6.389  0.00  0.00     0.030 A 
ATOM     15  F   UNL d   1      13.137  20.346  -6.385  0.00  0.00    -0.204 F 
ATOM     16  C   UNL d   1      14.152  18.451  -6.058  0.00  0.00     0.002 A 
ENDBRANCH   9  10
ENDBRANCH   7   9
BRANCH   4  17
ATOM     17  C   UNL d   1      13.615  14.220  -4.185  0.00  0.00     0.019 A 
ATOM     18  C   UNL d   1      13.151  13.826  -4.735  0.00  0.00     0.004 A 
ATOM     19  C   UNL d   1      12.858  13.069  -4.568  0.00  0.00     0.030 A 
ATOM     20  C   UNL d   1      13.038  12.714  -3.841  0.00  0.00     0.140 A 
ATOM     21  C   UNL d   1      13.502  13.108  -3.291  0.00  0.00     0.030 A 
ATOM     22  F   UNL d   1      12.834  11.985  -3.520  0.00  0.00    -0.204 F 
ATOM     23  C   UNL d   1      13.793  13.860  -3.459  0.00  0.00     0.004 A 
ENDBRANCH   4  17
TORSDOF 3
ENDMDL
