MODEL 1
REMARK VINA RESULT:      17.1      0.000      0.000
REMARK  3 active torsions:
REMARK  status: ('A' for Active; 'I' for Inactive)
REMARK    1  A    between atoms: S_11  and  C_1 
REMARK    2  A    between atoms: C_7  and  C_13 
REMARK    3  A    between atoms: C_13  and  S_11 
ROOT
ATOM      1  C   UNL d   1     -57.003 -98.758 -44.213  0.00  0.00     0.141 A 
ATOM      2  N   UNL d   1     -57.468 -98.755 -44.894  0.00  0.00    -0.232 NA
ATOM      3  S   UNL d   1     -57.497 -98.764 -43.564  0.00  0.00    -0.060 SA
ATOM      4  C   UNL d   1     -58.260 -98.759 -44.664  0.00  0.00     0.088 A 
ATOM      5  C   UNL d   1     -58.281 -98.764 -43.827  0.00  0.00     0.049 A 
ATOM      6  C   UNL d   1     -58.966 -98.758 -45.089  0.00  0.00     0.020 A 
ATOM      7  C   UNL d   1     -59.001 -98.769 -43.436  0.00  0.00     0.008 A 
ATOM      8  C   UNL d   1     -59.712 -98.768 -43.860  0.00  0.00     0.001 A 
ATOM      9  C   UNL d   1     -59.694 -98.763 -44.692  0.00  0.00     0.002 A 
ENDROOT
BRANCH   1  10
ATOM     10  S   UNL d   1     -56.176 -98.756 -44.198  0.00  0.00    -0.057 SA
BRANCH  10  11
ATOM     11  C   UNL d   1     -55.755 -99.228 -44.727  0.00  0.00     0.084 C 
BRANCH  11  12
ATOM     12  C   UNL d   1     -55.406 -99.921 -44.468  0.00  0.00     0.212 A 
ATOM     13  O   UNL d   1     -55.444-100.655 -44.841  0.00  0.00    -0.259 OA
ATOM     14  C   UNL d   1     -55.016-101.196 -44.390  0.00  0.00     0.262 A 
ATOM     15  S   UNL d   1     -54.913-101.991 -44.565  0.00  0.00    -0.029 SA
ATOM     16  N   UNL d   1     -54.711-100.798 -43.738  0.00  0.00    -0.109 NA
ATOM     17  N   UNL d   1     -54.951-100.010 -43.782  0.00  0.00    -0.119 NA
ENDBRANCH  11  12
ENDBRANCH  10  11
ENDBRANCH   1  10
TORSDOF 3
ENDMDL
