MODEL 1
REMARK VINA RESULT:      -5.6      0.000      0.000
REMARK  5 active torsions:
REMARK  status: ('A' for Active; 'I' for Inactive)
REMARK       I    between atoms: C_2  and  N_1 
REMARK    1  A    between atoms: C_4  and  N_1 
REMARK    2  A    between atoms: C_14  and  C_2 
REMARK       I    between atoms: C_3  and  N_6 
REMARK    3  A    between atoms: C_5  and  C_3 
REMARK    4  A    between atoms: N_8  and  C_4 
REMARK    5  A    between atoms: N_6  and  N_8 
ROOT
ATOM      1  C   UNL d   1     -48.485  13.017  22.533  0.00  0.00     0.243 C 
ATOM      2  S   UNL d   1     -48.819  12.508  21.987  0.00  0.00    -0.035 SA
ENDROOT
BRANCH   1   3
ATOM      3  N   UNL d   1     -48.849  13.739  22.708  0.00  0.00    -0.177 NA
ATOM      4  C   UNL d   1     -49.539  13.751  23.160  0.00  0.00     0.281 C 
ATOM      5  O   UNL d   1     -49.865  13.041  23.436  0.00  0.00    -0.265 OA
BRANCH   4   6
ATOM      6  C   UNL d   1     -49.899  14.469  23.333  0.00  0.00     0.058 A 
ATOM      7  C   UNL d   1     -50.700  14.497  23.505  0.00  0.00     0.005 A 
ATOM      8  C   UNL d   1     -51.063  15.216  23.679  0.00  0.00     0.000 A 
ATOM      9  C   UNL d   1     -50.616  15.908  23.679  0.00  0.00     0.000 A 
ATOM     10  C   UNL d   1     -49.804  15.881  23.504  0.00  0.00     0.000 A 
ATOM     11  C   UNL d   1     -49.446  15.158  23.331  0.00  0.00     0.005 A 
ENDBRANCH   4   6
ENDBRANCH   1   3
BRANCH   1  12
ATOM     12  N   UNL d   1     -47.782  12.810  22.911  0.00  0.00    -0.114 NA
BRANCH  12  13
ATOM     13  N   UNL d   1     -47.059  12.901  22.528  0.00  0.00    -0.103 NA
ATOM     14  C   UNL d   1     -46.353  12.735  22.921  0.00  0.00     0.303 C 
ATOM     15  O   UNL d   1     -46.371  12.477  23.696  0.00  0.00    -0.263 OA
BRANCH  14  16
ATOM     16  C   UNL d   1     -45.638  12.830  22.529  0.00  0.00     0.089 A 
ATOM     17  S   UNL d   1     -44.987  12.264  22.526  0.00  0.00    -0.082 SA
ATOM     18  C   UNL d   1     -44.344  12.597  22.041  0.00  0.00     0.036 A 
ATOM     19  C   UNL d   1     -44.605  13.365  21.748  0.00  0.00     0.008 A 
ATOM     20  C   UNL d   1     -45.397  13.512  22.046  0.00  0.00     0.012 A 
ENDBRANCH  14  16
ENDBRANCH  12  13
ENDBRANCH   1  12
TORSDOF 5
ENDMDL
MODEL 2
REMARK VINA RESULT:      -5.6      1.796      5.155
REMARK  5 active torsions:
REMARK  status: ('A' for Active; 'I' for Inactive)
REMARK       I    between atoms: C_2  and  N_1 
REMARK    1  A    between atoms: C_4  and  N_1 
REMARK    2  A    between atoms: C_14  and  C_2 
REMARK       I    between atoms: C_3  and  N_6 
REMARK    3  A    between atoms: C_5  and  C_3 
REMARK    4  A    between atoms: N_8  and  C_4 
REMARK    5  A    between atoms: N_6  and  N_8 
ROOT
ATOM      1  C   UNL d   1     -46.573  13.074  22.719  0.00  0.00     0.243 C 
ATOM      2  S   UNL d   1     -46.288  13.816  22.910  0.00  0.00    -0.035 SA
ENDROOT
BRANCH   1   3
ATOM      3  N   UNL d   1     -46.194  12.395  23.002  0.00  0.00    -0.177 NA
ATOM      4  C   UNL d   1     -45.416  12.238  22.779  0.00  0.00     0.281 C 
ATOM      5  O   UNL d   1     -45.017  12.760  22.273  0.00  0.00    -0.265 OA
BRANCH   4   6
ATOM      6  C   UNL d   1     -45.040  11.564  23.060  0.00  0.00     0.058 A 
ATOM      7  C   UNL d   1     -45.476  10.967  23.414  0.00  0.00     0.005 A 
ATOM      8  C   UNL d   1     -45.101  10.289  23.697  0.00  0.00     0.000 A 
ATOM      9  C   UNL d   1     -44.284  10.216  23.622  0.00  0.00     0.000 A 
ATOM     10  C   UNL d   1     -43.840  10.821  23.263  0.00  0.00     0.000 A 
ATOM     11  C   UNL d   1     -44.222  11.496  22.982  0.00  0.00     0.005 A 
ENDBRANCH   4   6
ENDBRANCH   1   3
BRANCH   1  12
ATOM     12  N   UNL d   1     -47.243  13.001  22.243  0.00  0.00    -0.114 NA
BRANCH  12  13
ATOM     13  N   UNL d   1     -47.986  12.893  22.579  0.00  0.00    -0.103 NA
ATOM     14  C   UNL d   1     -48.654  12.814  22.103  0.00  0.00     0.303 C 
ATOM     15  O   UNL d   1     -48.579  12.842  21.289  0.00  0.00    -0.263 OA
BRANCH  14  16
ATOM     16  C   UNL d   1     -49.390  12.706  22.450  0.00  0.00     0.089 A 
ATOM     17  S   UNL d   1     -49.965  13.329  22.614  0.00  0.00    -0.082 SA
ATOM     18  C   UNL d   1     -50.663  12.961  22.983  0.00  0.00     0.036 A 
ATOM     19  C   UNL d   1     -50.513  12.113  23.044  0.00  0.00     0.008 A 
ATOM     20  C   UNL d   1     -49.734  11.953  22.718  0.00  0.00     0.012 A 
ENDBRANCH  14  16
ENDBRANCH  12  13
ENDBRANCH   1  12
TORSDOF 5
ENDMDL
MODEL 3
REMARK VINA RESULT:      -5.2      1.261      4.975
REMARK  5 active torsions:
REMARK  status: ('A' for Active; 'I' for Inactive)
REMARK       I    between atoms: C_2  and  N_1 
REMARK    1  A    between atoms: C_4  and  N_1 
REMARK    2  A    between atoms: C_14  and  C_2 
REMARK       I    between atoms: C_3  and  N_6 
REMARK    3  A    between atoms: C_5  and  C_3 
REMARK    4  A    between atoms: N_8  and  C_4 
REMARK    5  A    between atoms: N_6  and  N_8 
ROOT
ATOM      1  C   UNL d   1     -47.314  12.967  22.909  0.00  0.00     0.243 C 
ATOM      2  S   UNL d   1     -47.613  12.299  23.275  0.00  0.00    -0.035 SA
ENDROOT
BRANCH   1   3
ATOM      3  N   UNL d   1     -46.608  12.927  22.481  0.00  0.00    -0.177 NA
ATOM      4  C   UNL d   1     -45.898  12.779  22.873  0.00  0.00     0.281 C 
ATOM      5  O   UNL d   1     -45.895  12.671  23.695  0.00  0.00    -0.265 OA
BRANCH   4   6
ATOM      6  C   UNL d   1     -45.197  12.740  22.447  0.00  0.00     0.058 A 
ATOM      7  C   UNL d   1     -45.034  13.299  21.870  0.00  0.00     0.005 A 
ATOM      8  C   UNL d   1     -44.332  13.261  21.440  0.00  0.00     0.000 A 
ATOM      9  C   UNL d   1     -43.792  12.657  21.595  0.00  0.00     0.000 A 
ATOM     10  C   UNL d   1     -43.956  12.090  22.180  0.00  0.00     0.000 A 
ATOM     11  C   UNL d   1     -44.661  12.133  22.606  0.00  0.00     0.005 A 
ENDBRANCH   4   6
ENDBRANCH   1   3
BRANCH   1  12
ATOM     12  N   UNL d   1     -47.719  13.683  22.967  0.00  0.00    -0.114 NA
BRANCH  12  13
ATOM     13  N   UNL d   1     -48.514  13.733  22.761  0.00  0.00    -0.103 NA
ATOM     14  C   UNL d   1     -48.906  14.458  22.775  0.00  0.00     0.303 C 
ATOM     15  O   UNL d   1     -48.503  15.134  22.996  0.00  0.00    -0.263 OA
BRANCH  14  16
ATOM     16  C   UNL d   1     -49.699  14.495  22.567  0.00  0.00     0.089 A 
ATOM     17  S   UNL d   1     -50.298  14.982  22.952  0.00  0.00    -0.082 SA
ATOM     18  C   UNL d   1     -51.058  14.844  22.547  0.00  0.00     0.036 A 
ATOM     19  C   UNL d   1     -50.920  14.273  21.916  0.00  0.00     0.008 A 
ATOM     20  C   UNL d   1     -50.089  14.056  21.924  0.00  0.00     0.012 A 
ENDBRANCH  14  16
ENDBRANCH  12  13
ENDBRANCH   1  12
TORSDOF 5
ENDMDL
MODEL 4
REMARK VINA RESULT:      -5.0      1.408      4.437
REMARK  5 active torsions:
REMARK  status: ('A' for Active; 'I' for Inactive)
REMARK       I    between atoms: C_2  and  N_1 
REMARK    1  A    between atoms: C_4  and  N_1 
REMARK    2  A    between atoms: C_14  and  C_2 
REMARK       I    between atoms: C_3  and  N_6 
REMARK    3  A    between atoms: C_5  and  C_3 
REMARK    4  A    between atoms: N_8  and  C_4 
REMARK    5  A    between atoms: N_6  and  N_8 
ROOT
ATOM      1  C   UNL d   1     -48.271  11.718  23.219  0.00  0.00     0.243 C 
ATOM      2  S   UNL d   1     -47.962  11.028  23.531  0.00  0.00    -0.035 SA
ENDROOT
BRANCH   1   3
ATOM      3  N   UNL d   1     -47.769  12.298  22.909  0.00  0.00    -0.177 NA
ATOM      4  C   UNL d   1     -46.980  12.326  23.147  0.00  0.00     0.281 C 
ATOM      5  O   UNL d   1     -46.693  11.773  23.694  0.00  0.00    -0.265 OA
BRANCH   4   6
ATOM      6  C   UNL d   1     -46.482  12.902  22.839  0.00  0.00     0.058 A 
ATOM      7  C   UNL d   1     -46.540  13.677  23.098  0.00  0.00     0.005 A 
ATOM      8  C   UNL d   1     -46.041  14.257  22.790  0.00  0.00     0.000 A 
ATOM      9  C   UNL d   1     -45.484  14.053  22.218  0.00  0.00     0.000 A 
ATOM     10  C   UNL d   1     -45.425  13.267  21.954  0.00  0.00     0.000 A 
ATOM     11  C   UNL d   1     -45.926  12.691  22.267  0.00  0.00     0.005 A 
ENDBRANCH   4   6
ENDBRANCH   1   3
BRANCH   1  12
ATOM     12  N   UNL d   1     -49.087  11.836  23.212  0.00  0.00    -0.114 NA
BRANCH  12  13
ATOM     13  N   UNL d   1     -49.404  12.554  22.965  0.00  0.00    -0.103 NA
ATOM     14  C   UNL d   1     -50.218  12.642  22.867  0.00  0.00     0.303 C 
ATOM     15  O   UNL d   1     -50.715  12.011  23.017  0.00  0.00    -0.263 OA
BRANCH  14  16
ATOM     16  C   UNL d   1     -50.522  13.364  22.620  0.00  0.00     0.089 A 
ATOM     17  S   UNL d   1     -50.782  13.553  21.819  0.00  0.00    -0.082 SA
ATOM     18  C   UNL d   1     -51.062  14.378  21.815  0.00  0.00     0.036 A 
ATOM     19  C   UNL d   1     -50.973  14.690  22.614  0.00  0.00     0.008 A 
ATOM     20  C   UNL d   1     -50.642  14.072  23.111  0.00  0.00     0.012 A 
ENDBRANCH  14  16
ENDBRANCH  12  13
ENDBRANCH   1  12
TORSDOF 5
ENDMDL
