MODEL 1
REMARK VINA RESULT:      -8.3      0.000      0.000
REMARK  4 active torsions:
REMARK  status: ('A' for Active; 'I' for Inactive)
REMARK    1  A    between atoms: O_8  and  C_1 
REMARK    2  A    between atoms: C_9  and  C_5 
REMARK    3  A    between atoms: C_11  and  O_8 
REMARK    4  A    between atoms: N_12  and  C_9 
ROOT
ATOM      1  C   UNL d   1      51.332  33.771  53.271  0.00  0.00     0.161 A 
ATOM      2  C   UNL d   1      52.799  32.996  53.405  0.00  0.00     0.108 A 
ATOM      3  C   UNL d   1      52.095  32.550  53.309  0.00  0.00     0.064 A 
ATOM      4  C   UNL d   1      51.365  32.939  53.242  0.00  0.00     0.222 A 
ATOM      5  C   UNL d   1      53.519  32.617  53.470  0.00  0.00     0.079 A 
ATOM      6  O   UNL d   1      52.762  33.827  53.433  0.00  0.00    -0.305 OA
ATOM      7  C   UNL d   1      52.028  34.214  53.366  0.00  0.00     0.126 A 
ATOM      8  C   UNL d   1      52.146  31.729  53.282  0.00  0.00     0.009 A 
ATOM      9  C   UNL d   1      53.563  31.797  53.443  0.00  0.00     0.199 A 
ATOM     10  O   UNL d   1      50.671  32.499  53.148  0.00  0.00    -0.284 OA
ATOM     11  C   UNL d   1      52.873  31.354  53.349  0.00  0.00     0.042 A 
ATOM     12  O   UNL d   1      54.293  31.417  53.510  0.00  0.00    -0.286 OA
ATOM     13  C   UNL d   1      51.997  35.041  53.395  0.00  0.00     0.029 C 
ENDROOT
BRANCH   1  14
ATOM     14  O   UNL d   1      50.602  34.151  53.204  0.00  0.00    -0.301 OA
BRANCH  14  15
ATOM     15  C   UNL d   1      50.272  34.303  52.462  0.00  0.00     0.106 A 
ATOM     16  C   UNL d   1      49.538  34.661  52.408  0.00  0.00     0.057 A 
ATOM     17 BR   UNL d   1      49.123  34.872  53.091  0.00  0.00    -0.047 Br
ATOM     18  C   UNL d   1      49.211  34.812  51.663  0.00  0.00     0.009 A 
ATOM     19  C   UNL d   1      49.623  34.602  50.975  0.00  0.00     0.001 A 
ATOM     20  C   UNL d   1      50.366  34.240  51.040  0.00  0.00     0.002 A 
ATOM     21  C   UNL d   1      50.687  34.092  51.782  0.00  0.00     0.025 A 
ENDBRANCH  14  15
ENDBRANCH   1  14
BRANCH   5  22
ATOM     22  C   UNL d   1      54.200  33.054  53.563  0.00  0.00     0.085 C 
BRANCH  22  23
ATOM     23  N   UNL d   1      54.555  33.251  54.270  0.00  0.00    -0.302 N 
ATOM     24  C   UNL d   1      54.330  32.994  55.009  0.00  0.00     0.080 A 
ATOM     25  C   UNL d   1      54.829  33.323  55.547  0.00  0.00     0.021 A 
ATOM     26  C   UNL d   1      55.357  33.776  55.159  0.00  0.00     0.021 A 
ATOM     27  C   UNL d   1      55.190  33.735  54.356  0.00  0.00     0.080 A 
ENDBRANCH  22  23
ENDBRANCH   5  22
TORSDOF 4
ENDMDL
MODEL 2
REMARK VINA RESULT:      -7.5      1.979      3.966
REMARK  4 active torsions:
REMARK  status: ('A' for Active; 'I' for Inactive)
REMARK    1  A    between atoms: O_8  and  C_1 
REMARK    2  A    between atoms: C_9  and  C_5 
REMARK    3  A    between atoms: C_11  and  O_8 
REMARK    4  A    between atoms: N_12  and  C_9 
ROOT
ATOM      1  C   UNL d   1      52.995  31.733  53.036  0.00  0.00     0.161 A 
ATOM      2  C   UNL d   1      52.529  33.322  53.196  0.00  0.00     0.108 A 
ATOM      3  C   UNL d   1      51.952  32.725  53.072  0.00  0.00     0.064 A 
ATOM      4  C   UNL d   1      52.188  31.934  52.992  0.00  0.00     0.222 A 
ATOM      5  C   UNL d   1      52.300  34.103  53.275  0.00  0.00     0.079 A 
ATOM      6  O   UNL d   1      53.334  33.118  53.239  0.00  0.00    -0.305 OA
ATOM      7  C   UNL d   1      53.566  32.323  53.159  0.00  0.00     0.126 A 
ATOM      8  C   UNL d   1      51.159  32.942  53.031  0.00  0.00     0.009 A 
ATOM      9  C   UNL d   1      51.507  34.312  53.233  0.00  0.00     0.199 A 
ATOM     10  O   UNL d   1      51.619  31.346  52.870  0.00  0.00    -0.284 OA
ATOM     11  C   UNL d   1      50.936  33.728  53.111  0.00  0.00     0.042 A 
ATOM     12  O   UNL d   1      51.281  35.102  53.313  0.00  0.00    -0.286 OA
ATOM     13  C   UNL d   1      54.370  32.124  53.203  0.00  0.00     0.029 C 
ENDROOT
BRANCH   1  14
ATOM     14  O   UNL d   1      53.221  30.943  52.956  0.00  0.00    -0.301 OA
BRANCH  14  15
ATOM     15  C   UNL d   1      53.234  30.440  53.611  0.00  0.00     0.106 A 
ATOM     16  C   UNL d   1      53.153  29.632  53.507  0.00  0.00     0.057 A 
ATOM     17 BR   UNL d   1      53.058  29.315  52.749  0.00  0.00    -0.047 Br
ATOM     18  C   UNL d   1      53.167  29.131  54.165  0.00  0.00     0.009 A 
ATOM     19  C   UNL d   1      53.261  29.444  54.927  0.00  0.00     0.001 A 
ATOM     20  C   UNL d   1      53.343  30.263  55.023  0.00  0.00     0.002 A 
ATOM     21  C   UNL d   1      53.329  30.757  54.366  0.00  0.00     0.025 A 
ENDBRANCH  14  15
ENDBRANCH   1  14
BRANCH   5  22
ATOM     22  C   UNL d   1      52.863  34.679  53.395  0.00  0.00     0.085 C 
BRANCH  22  23
ATOM     23  N   UNL d   1      53.012  35.072  54.094  0.00  0.00    -0.302 N 
ATOM     24  C   UNL d   1      53.236  34.731  54.798  0.00  0.00     0.080 A 
ATOM     25  C   UNL d   1      53.323  35.318  55.340  0.00  0.00     0.021 A 
ATOM     26  C   UNL d   1      53.157  36.013  54.989  0.00  0.00     0.021 A 
ATOM     27  C   UNL d   1      52.961  35.865  54.205  0.00  0.00     0.080 A 
ENDBRANCH  22  23
ENDBRANCH   5  22
TORSDOF 4
ENDMDL
MODEL 3
REMARK VINA RESULT:      -7.4      2.320      3.512
REMARK  4 active torsions:
REMARK  status: ('A' for Active; 'I' for Inactive)
REMARK    1  A    between atoms: O_8  and  C_1 
REMARK    2  A    between atoms: C_9  and  C_5 
REMARK    3  A    between atoms: C_11  and  O_8 
REMARK    4  A    between atoms: N_12  and  C_9 
ROOT
ATOM      1  C   UNL d   1      53.505  32.841  53.318  0.00  0.00     0.161 A 
ATOM      2  C   UNL d   1      53.213  31.204  53.377  0.00  0.00     0.108 A 
ATOM      3  C   UNL d   1      52.628  31.725  53.077  0.00  0.00     0.064 A 
ATOM      4  C   UNL d   1      52.777  32.541  53.048  0.00  0.00     0.222 A 
ATOM      5  C   UNL d   1      53.070  30.400  53.407  0.00  0.00     0.079 A 
ATOM      6  O   UNL d   1      53.939  31.507  53.646  0.00  0.00    -0.305 OA
ATOM      7  C   UNL d   1      54.085  32.326  53.616  0.00  0.00     0.126 A 
ATOM      8  C   UNL d   1      51.914  31.411  52.815  0.00  0.00     0.009 A 
ATOM      9  C   UNL d   1      52.355  30.093  53.143  0.00  0.00     0.199 A 
ATOM     10  O   UNL d   1      52.200  33.054  52.752  0.00  0.00    -0.284 OA
ATOM     11  C   UNL d   1      51.777  30.602  52.847  0.00  0.00     0.042 A 
ATOM     12  O   UNL d   1      52.215  29.280  53.175  0.00  0.00    -0.286 OA
ATOM     13  C   UNL d   1      54.811  32.624  53.884  0.00  0.00     0.029 C 
ENDROOT
BRANCH   1  14
ATOM     14  O   UNL d   1      53.646  33.654  53.287  0.00  0.00    -0.301 OA
BRANCH  14  15
ATOM     15  C   UNL d   1      53.429  34.144  53.916  0.00  0.00     0.106 A 
ATOM     16  C   UNL d   1      53.181  34.910  53.769  0.00  0.00     0.057 A 
ATOM     17 BR   UNL d   1      53.146  35.198  52.994  0.00  0.00    -0.047 Br
ATOM     18  C   UNL d   1      52.964  35.398  54.400  0.00  0.00     0.009 A 
ATOM     19  C   UNL d   1      52.997  35.113  55.179  0.00  0.00     0.001 A 
ATOM     20  C   UNL d   1      53.249  34.336  55.318  0.00  0.00     0.002 A 
ATOM     21  C   UNL d   1      53.464  33.855  54.687  0.00  0.00     0.025 A 
ENDBRANCH  14  15
ENDBRANCH   1  14
BRANCH   5  22
ATOM     22  C   UNL d   1      53.640  29.898  53.699  0.00  0.00     0.085 C 
BRANCH  22  23
ATOM     23  N   UNL d   1      53.564  29.400  54.340  0.00  0.00    -0.302 N 
ATOM     24  C   UNL d   1      53.318  29.612  55.086  0.00  0.00     0.080 A 
ATOM     25  C   UNL d   1      53.324  28.951  55.545  0.00  0.00     0.021 A 
ATOM     26  C   UNL d   1      53.568  28.337  55.101  0.00  0.00     0.021 A 
ATOM     27  C   UNL d   1      53.720  28.612  54.342  0.00  0.00     0.080 A 
ENDBRANCH  22  23
ENDBRANCH   5  22
TORSDOF 4
ENDMDL
MODEL 4
REMARK VINA RESULT:      -7.1      2.001      4.397
REMARK  4 active torsions:
REMARK  status: ('A' for Active; 'I' for Inactive)
REMARK    1  A    between atoms: O_8  and  C_1 
REMARK    2  A    between atoms: C_9  and  C_5 
REMARK    3  A    between atoms: C_11  and  O_8 
REMARK    4  A    between atoms: N_12  and  C_9 
ROOT
ATOM      1  C   UNL d   1      53.507  31.896  53.533  0.00  0.00     0.161 A 
ATOM      2  C   UNL d   1      52.940  33.461  53.521  0.00  0.00     0.108 A 
ATOM      3  C   UNL d   1      53.373  33.176  54.180  0.00  0.00     0.064 A 
ATOM      4  C   UNL d   1      53.654  32.395  54.184  0.00  0.00     0.222 A 
ATOM      5  C   UNL d   1      52.661  34.229  53.514  0.00  0.00     0.079 A 
ATOM      6  O   UNL d   1      52.795  32.960  52.873  0.00  0.00    -0.305 OA
ATOM      7  C   UNL d   1      53.078  32.178  52.880  0.00  0.00     0.126 A 
ATOM      8  C   UNL d   1      53.509  33.683  54.815  0.00  0.00     0.009 A 
ATOM      9  C   UNL d   1      52.801  34.730  54.150  0.00  0.00     0.199 A 
ATOM     10  O   UNL d   1      54.080  32.115  54.834  0.00  0.00    -0.284 OA
ATOM     11  C   UNL d   1      53.226  34.453  54.802  0.00  0.00     0.042 A 
ATOM     12  O   UNL d   1      52.518  35.505  54.139  0.00  0.00    -0.286 OA
ATOM     13  C   UNL d   1      52.931  31.683  52.232  0.00  0.00     0.029 C 
ENDROOT
BRANCH   1  14
ATOM     14  O   UNL d   1      53.790  31.121  53.544  0.00  0.00    -0.301 OA
BRANCH  14  15
ATOM     15  C   UNL d   1      53.285  30.491  53.715  0.00  0.00     0.106 A 
ATOM     16  C   UNL d   1      53.594  29.744  53.849  0.00  0.00     0.057 A 
ATOM     17 BR   UNL d   1      54.411  29.618  53.813  0.00  0.00    -0.047 Br
ATOM     18  C   UNL d   1      53.086  29.115  54.020  0.00  0.00     0.009 A 
ATOM     19  C   UNL d   1      52.267  29.238  54.057  0.00  0.00     0.001 A 
ATOM     20  C   UNL d   1      51.962  29.996  53.921  0.00  0.00     0.002 A 
ATOM     21  C   UNL d   1      52.471  30.619  53.751  0.00  0.00     0.025 A 
ENDBRANCH  14  15
ENDBRANCH   1  14
BRANCH   5  22
ATOM     22  C   UNL d   1      52.242  34.502  52.872  0.00  0.00     0.085 C 
BRANCH  22  23
ATOM     23  N   UNL d   1      51.433  34.475  52.775  0.00  0.00    -0.302 N 
ATOM     24  C   UNL d   1      51.036  34.356  52.074  0.00  0.00     0.080 A 
ATOM     25  C   UNL d   1      50.248  34.371  52.231  0.00  0.00     0.021 A 
ATOM     26  C   UNL d   1      50.147  34.496  53.011  0.00  0.00     0.021 A 
ATOM     27  C   UNL d   1      50.888  34.562  53.359  0.00  0.00     0.080 A 
ENDBRANCH  22  23
ENDBRANCH   5  22
TORSDOF 4
ENDMDL
MODEL 5
REMARK VINA RESULT:      -6.8      1.071      2.090
REMARK  4 active torsions:
REMARK  status: ('A' for Active; 'I' for Inactive)
REMARK    1  A    between atoms: O_8  and  C_1 
REMARK    2  A    between atoms: C_9  and  C_5 
REMARK    3  A    between atoms: C_11  and  O_8 
REMARK    4  A    between atoms: N_12  and  C_9 
ROOT
ATOM      1  C   UNL d   1      51.179  34.130  53.272  0.00  0.00     0.161 A 
ATOM      2  C   UNL d   1      52.504  33.168  53.570  0.00  0.00     0.108 A 
ATOM      3  C   UNL d   1      52.608  33.953  53.293  0.00  0.00     0.064 A 
ATOM      4  C   UNL d   1      51.946  34.430  53.145  0.00  0.00     0.222 A 
ATOM      5  C   UNL d   1      53.154  32.694  53.716  0.00  0.00     0.079 A 
ATOM      6  O   UNL d   1      51.737  32.872  53.695  0.00  0.00    -0.305 OA
ATOM      7  C   UNL d   1      51.075  33.353  53.547  0.00  0.00     0.126 A 
ATOM      8  C   UNL d   1      53.373  34.232  53.173  0.00  0.00     0.009 A 
ATOM      9  C   UNL d   1      53.914  32.980  53.594  0.00  0.00     0.199 A 
ATOM     10  O   UNL d   1      52.050  35.204  52.872  0.00  0.00    -0.284 OA
ATOM     11  C   UNL d   1      54.022  33.752  53.322  0.00  0.00     0.042 A 
ATOM     12  O   UNL d   1      54.568  32.498  53.744  0.00  0.00    -0.286 OA
ATOM     13  C   UNL d   1      50.313  33.054  53.673  0.00  0.00     0.029 C 
ENDROOT
BRANCH   1  14
ATOM     14  O   UNL d   1      50.526  34.612  53.123  0.00  0.00    -0.301 OA
BRANCH  14  15
ATOM     15  C   UNL d   1      50.119  34.559  52.406  0.00  0.00     0.106 A 
ATOM     16  C   UNL d   1      49.378  34.900  52.332  0.00  0.00     0.057 A 
ATOM     17 BR   UNL d   1      49.034  35.297  52.970  0.00  0.00    -0.047 Br
ATOM     18  C   UNL d   1      48.973  34.846  51.613  0.00  0.00     0.009 A 
ATOM     19  C   UNL d   1      49.315  34.449  50.969  0.00  0.00     0.001 A 
ATOM     20  C   UNL d   1      50.065  34.107  51.054  0.00  0.00     0.002 A 
ATOM     21  C   UNL d   1      50.464  34.163  51.770  0.00  0.00     0.025 A 
ENDBRANCH  14  15
ENDBRANCH   1  14
BRANCH   5  22
ATOM     22  C   UNL d   1      53.048  31.933  53.985  0.00  0.00     0.085 C 
BRANCH  22  23
ATOM     23  N   UNL d   1      53.151  31.249  53.554  0.00  0.00    -0.302 N 
ATOM     24  C   UNL d   1      52.823  31.084  52.828  0.00  0.00     0.080 A 
ATOM     25  C   UNL d   1      53.069  30.352  52.606  0.00  0.00     0.021 A 
ATOM     26  C   UNL d   1      53.542  30.060  53.176  0.00  0.00     0.021 A 
ATOM     27  C   UNL d   1      53.598  30.619  53.775  0.00  0.00     0.080 A 
ENDBRANCH  22  23
ENDBRANCH   5  22
TORSDOF 4
ENDMDL
MODEL 6
REMARK VINA RESULT:      -6.2      2.103      4.966
REMARK  4 active torsions:
REMARK  status: ('A' for Active; 'I' for Inactive)
REMARK    1  A    between atoms: O_8  and  C_1 
REMARK    2  A    between atoms: C_9  and  C_5 
REMARK    3  A    between atoms: C_11  and  O_8 
REMARK    4  A    between atoms: N_12  and  C_9 
ROOT
ATOM      1  C   UNL d   1      51.392  34.265  52.679  0.00  0.00     0.161 A 
ATOM      2  C   UNL d   1      49.805  34.551  52.265  0.00  0.00     0.108 A 
ATOM      3  C   UNL d   1      50.371  34.378  51.670  0.00  0.00     0.064 A 
ATOM      4  C   UNL d   1      51.161  34.235  51.879  0.00  0.00     0.222 A 
ATOM      5  C   UNL d   1      49.026  34.692  52.063  0.00  0.00     0.079 A 
ATOM      6  O   UNL d   1      50.040  34.580  53.063  0.00  0.00    -0.305 OA
ATOM      7  C   UNL d   1      50.833  34.437  53.269  0.00  0.00     0.126 A 
ATOM      8  C   UNL d   1      50.125  34.352  50.885  0.00  0.00     0.009 A 
ATOM      9  C   UNL d   1      48.788  34.665  51.277  0.00  0.00     0.199 A 
ATOM     10  O   UNL d   1      51.717  34.064  51.292  0.00  0.00    -0.284 OA
ATOM     11  C   UNL d   1      49.341  34.494  50.688  0.00  0.00     0.042 A 
ATOM     12  O   UNL d   1      48.000  34.807  51.077  0.00  0.00    -0.286 OA
ATOM     13  C   UNL d   1      51.062  34.467  54.065  0.00  0.00     0.029 C 
ENDROOT
BRANCH   1  14
ATOM     14  O   UNL d   1      52.180  34.123  52.879  0.00  0.00    -0.301 OA
BRANCH  14  15
ATOM     15  C   UNL d   1      52.445  33.354  53.025  0.00  0.00     0.106 A 
ATOM     16  C   UNL d   1      53.196  33.232  53.328  0.00  0.00     0.057 A 
ATOM     17 BR   UNL d   1      53.692  33.874  53.489  0.00  0.00    -0.047 Br
ATOM     18  C   UNL d   1      53.459  32.462  53.472  0.00  0.00     0.009 A 
ATOM     19  C   UNL d   1      52.965  31.815  53.312  0.00  0.00     0.001 A 
ATOM     20  C   UNL d   1      52.207  31.947  53.006  0.00  0.00     0.002 A 
ATOM     21  C   UNL d   1      51.950  32.715  52.864  0.00  0.00     0.025 A 
ENDBRANCH  14  15
ENDBRANCH   1  14
BRANCH   5  22
ATOM     22  C   UNL d   1      48.481  34.860  52.643  0.00  0.00     0.085 C 
BRANCH  22  23
ATOM     23  N   UNL d   1      48.154  35.589  52.803  0.00  0.00    -0.302 N 
ATOM     24  C   UNL d   1      48.272  36.031  53.477  0.00  0.00     0.080 A 
ATOM     25  C   UNL d   1      47.846  36.709  53.406  0.00  0.00     0.021 A 
ATOM     26  C   UNL d   1      47.469  36.698  52.704  0.00  0.00     0.021 A 
ATOM     27  C   UNL d   1      47.659  35.997  52.321  0.00  0.00     0.080 A 
ENDBRANCH  22  23
ENDBRANCH   5  22
TORSDOF 4
ENDMDL
