MODEL 1
REMARK VINA RESULT:      -5.2      0.000      0.000
REMARK  5 active torsions:
REMARK  status: ('A' for Active; 'I' for Inactive)
REMARK    1  A    between atoms: C_3  and  C_1 
REMARK    2  A    between atoms: C_2  and  C_3 
REMARK    3  A    between atoms: C_4  and  C_2 
REMARK    4  A    between atoms: C_7  and  C_4 
REMARK    5  A    between atoms: O_14  and  C_8 
ROOT
ATOM      1  C   UNL d   1     -41.624-122.579 -51.686  0.00  0.00     0.042 C 
ENDROOT
BRANCH   1   2
ATOM      2  C   UNL d   1     -41.538-122.296 -50.883  0.00  0.00     0.199 C 
ATOM      3  O   UNL d   1     -41.240-121.530 -50.754  0.00  0.00    -0.286 OA
BRANCH   2   4
ATOM      4  C   UNL d   1     -41.755-122.796 -50.254  0.00  0.00     0.078 A 
ATOM      5  C   UNL d   1     -42.517-122.761 -49.950  0.00  0.00     0.199 A 
ATOM      6  O   UNL d   1     -43.068-122.221 -50.274  0.00  0.00    -0.286 OA
ATOM      7  C   UNL d   1     -42.739-123.244 -49.338  0.00  0.00     0.042 A 
ATOM      8  C   UNL d   1     -42.172-123.787 -49.016  0.00  0.00     0.003 A 
ATOM      9  C   UNL d   1     -41.439-123.817 -49.313  0.00  0.00     0.000 A 
ATOM     10  C   UNL d   1     -41.215-123.328 -49.933  0.00  0.00     0.006 A 
ENDBRANCH   2   4
ENDBRANCH   1   2
BRANCH   1  11
ATOM     11  C   UNL d   1     -41.123-122.266 -52.290  0.00  0.00     0.003 C 
BRANCH  11  12
ATOM     12  C   UNL d   1     -41.371-122.365 -53.053  0.00  0.00     0.000 A 
ATOM     13  C   UNL d   1     -41.143-123.000 -53.500  0.00  0.00     0.002 A 
ATOM     14  C   UNL d   1     -41.413-123.073 -54.275  0.00  0.00     0.024 A 
ATOM     15  C   UNL d   1     -41.915-122.513 -54.614  0.00  0.00     0.094 A 
ATOM     16  C   UNL d   1     -42.146-121.865 -54.155  0.00  0.00     0.024 A 
ATOM     17  C   UNL d   1     -41.880-121.783 -53.374  0.00  0.00     0.002 A 
BRANCH  15  18
ATOM     18  O   UNL d   1     -42.183-122.595 -55.397  0.00  0.00    -0.328 OA
ATOM     19  C   UNL d   1     -42.245-121.942 -55.900  0.00  0.00     0.181 C 
ENDBRANCH  15  18
ENDBRANCH  11  12
ENDBRANCH   1  11
TORSDOF 5
ENDMDL
MODEL 2
REMARK VINA RESULT:      -4.8      0.881      4.593
REMARK  5 active torsions:
REMARK  status: ('A' for Active; 'I' for Inactive)
REMARK    1  A    between atoms: C_3  and  C_1 
REMARK    2  A    between atoms: C_2  and  C_3 
REMARK    3  A    between atoms: C_4  and  C_2 
REMARK    4  A    between atoms: C_7  and  C_4 
REMARK    5  A    between atoms: O_14  and  C_8 
ROOT
ATOM      1  C   UNL d   1     -41.630-122.787 -53.137  0.00  0.00     0.042 C 
ENDROOT
BRANCH   1   2
ATOM      2  C   UNL d   1     -41.501-123.082 -53.930  0.00  0.00     0.199 C 
ATOM      3  O   UNL d   1     -41.123-123.815 -54.033  0.00  0.00    -0.286 OA
BRANCH   2   4
ATOM      4  C   UNL d   1     -41.758-122.624 -54.576  0.00  0.00     0.078 A 
ATOM      5  C   UNL d   1     -42.481-122.787 -54.929  0.00  0.00     0.199 A 
ATOM      6  O   UNL d   1     -42.954-123.412 -54.636  0.00  0.00    -0.286 OA
ATOM      7  C   UNL d   1     -42.741-122.347 -55.558  0.00  0.00     0.042 A 
ATOM      8  C   UNL d   1     -42.255-121.716 -55.848  0.00  0.00     0.003 A 
ATOM      9  C   UNL d   1     -41.558-121.562 -55.505  0.00  0.00     0.000 A 
ATOM     10  C   UNL d   1     -41.295-122.008 -54.867  0.00  0.00     0.006 A 
ENDBRANCH   2   4
ENDBRANCH   1   2
BRANCH   1  11
ATOM     11  C   UNL d   1     -41.123-123.046 -52.513  0.00  0.00     0.003 C 
BRANCH  11  12
ATOM     12  C   UNL d   1     -41.381-122.912 -51.758  0.00  0.00     0.000 A 
ATOM     13  C   UNL d   1     -41.466-122.166 -51.460  0.00  0.00     0.002 A 
ATOM     14  C   UNL d   1     -41.732-122.062 -50.686  0.00  0.00     0.024 A 
ATOM     15  C   UNL d   1     -41.915-122.703 -50.201  0.00  0.00     0.094 A 
ATOM     16  C   UNL d   1     -41.826-123.466 -50.509  0.00  0.00     0.024 A 
ATOM     17  C   UNL d   1     -41.560-123.580 -51.286  0.00  0.00     0.002 A 
BRANCH  15  18
ATOM     18  O   UNL d   1     -42.182-122.589 -49.422  0.00  0.00    -0.328 OA
ATOM     19  C   UNL d   1     -42.684-123.134 -49.056  0.00  0.00     0.181 C 
ENDBRANCH  15  18
ENDBRANCH  11  12
ENDBRANCH   1  11
TORSDOF 5
ENDMDL
MODEL 3
REMARK VINA RESULT:      -3.6      0.860      1.102
REMARK  5 active torsions:
REMARK  status: ('A' for Active; 'I' for Inactive)
REMARK    1  A    between atoms: C_3  and  C_1 
REMARK    2  A    between atoms: C_2  and  C_3 
REMARK    3  A    between atoms: C_4  and  C_2 
REMARK    4  A    between atoms: C_7  and  C_4 
REMARK    5  A    between atoms: O_14  and  C_8 
ROOT
ATOM      1  C   UNL d   1     -41.687-122.537 -51.676  0.00  0.00     0.042 C 
ENDROOT
BRANCH   1   2
ATOM      2  C   UNL d   1     -41.543-123.122 -51.068  0.00  0.00     0.199 C 
ATOM      3  O   UNL d   1     -41.131-123.817 -51.265  0.00  0.00    -0.286 OA
BRANCH   2   4
ATOM      4  C   UNL d   1     -41.821-122.977 -50.297  0.00  0.00     0.078 A 
ATOM      5  C   UNL d   1     -42.522-123.323 -50.045  0.00  0.00     0.199 A 
ATOM      6  O   UNL d   1     -42.951-123.817 -50.566  0.00  0.00    -0.286 OA
ATOM      7  C   UNL d   1     -42.802-123.188 -49.296  0.00  0.00     0.042 A 
ATOM      8  C   UNL d   1     -42.359-122.685 -48.776  0.00  0.00     0.003 A 
ATOM      9  C   UNL d   1     -41.684-122.354 -49.024  0.00  0.00     0.000 A 
ATOM     10  C   UNL d   1     -41.401-122.491 -49.783  0.00  0.00     0.006 A 
ENDBRANCH   2   4
ENDBRANCH   1   2
BRANCH   1  11
ATOM     11  C   UNL d   1     -41.174-122.505 -52.348  0.00  0.00     0.003 C 
BRANCH  11  12
ATOM     12  C   UNL d   1     -41.519-122.331 -53.058  0.00  0.00     0.000 A 
ATOM     13  C   UNL d   1     -42.011-121.697 -53.152  0.00  0.00     0.002 A 
ATOM     14  C   UNL d   1     -42.348-121.546 -53.890  0.00  0.00     0.024 A 
ATOM     15  C   UNL d   1     -42.197-122.027 -54.541  0.00  0.00     0.094 A 
ATOM     16  C   UNL d   1     -41.693-122.675 -54.442  0.00  0.00     0.024 A 
ATOM     17  C   UNL d   1     -41.350-122.835 -53.705  0.00  0.00     0.002 A 
BRANCH  15  18
ATOM     18  O   UNL d   1     -42.541-121.867 -55.282  0.00  0.00    -0.328 OA
ATOM     19  C   UNL d   1     -42.086-121.852 -55.972  0.00  0.00     0.181 C 
ENDBRANCH  15  18
ENDBRANCH  11  12
ENDBRANCH   1  11
TORSDOF 5
ENDMDL
MODEL 4
REMARK VINA RESULT:      -3.2      1.007      1.411
REMARK  5 active torsions:
REMARK  status: ('A' for Active; 'I' for Inactive)
REMARK    1  A    between atoms: C_3  and  C_1 
REMARK    2  A    between atoms: C_2  and  C_3 
REMARK    3  A    between atoms: C_4  and  C_2 
REMARK    4  A    between atoms: C_7  and  C_4 
REMARK    5  A    between atoms: O_14  and  C_8 
ROOT
ATOM      1  C   UNL d   1     -41.770-122.858 -50.706  0.00  0.00     0.042 C 
ENDROOT
BRANCH   1   2
ATOM      2  C   UNL d   1     -42.233-123.300 -50.137  0.00  0.00     0.199 C 
ATOM      3  O   UNL d   1     -42.825-123.816 -50.410  0.00  0.00    -0.286 OA
BRANCH   2   4
ATOM      4  C   UNL d   1     -42.075-123.199 -49.325  0.00  0.00     0.078 A 
ATOM      5  C   UNL d   1     -42.613-122.797 -48.854  0.00  0.00     0.199 A 
ATOM      6  O   UNL d   1     -43.315-122.491 -49.192  0.00  0.00    -0.286 OA
ATOM      7  C   UNL d   1     -42.470-122.693 -48.063  0.00  0.00     0.042 A 
ATOM      8  C   UNL d   1     -41.755-123.006 -47.729  0.00  0.00     0.003 A 
ATOM      9  C   UNL d   1     -41.240-123.394 -48.189  0.00  0.00     0.000 A 
ATOM     10  C   UNL d   1     -41.386-123.498 -48.990  0.00  0.00     0.006 A 
ENDBRANCH   2   4
ENDBRANCH   1   2
BRANCH   1  11
ATOM     11  C   UNL d   1     -41.219-123.270 -51.198  0.00  0.00     0.003 C 
BRANCH  11  12
ATOM     12  C   UNL d   1     -41.197-123.052 -51.976  0.00  0.00     0.000 A 
ATOM     13  C   UNL d   1     -41.220-123.594 -52.575  0.00  0.00     0.002 A 
ATOM     14  C   UNL d   1     -41.195-123.340 -53.359  0.00  0.00     0.024 A 
ATOM     15  C   UNL d   1     -41.147-122.540 -53.554  0.00  0.00     0.094 A 
ATOM     16  C   UNL d   1     -41.123-121.987 -52.939  0.00  0.00     0.024 A 
ATOM     17  C   UNL d   1     -41.148-122.234 -52.148  0.00  0.00     0.002 A 
BRANCH  15  18
ATOM     18  O   UNL d   1     -41.123-122.293 -54.348  0.00  0.00    -0.328 OA
ATOM     19  C   UNL d   1     -41.800-122.303 -54.821  0.00  0.00     0.181 C 
ENDBRANCH  15  18
ENDBRANCH  11  12
ENDBRANCH   1  11
TORSDOF 5
ENDMDL
