MODEL 1
REMARK VINA RESULT:      83.3      0.000      0.000
REMARK  5 active torsions:
REMARK  status: ('A' for Active; 'I' for Inactive)
REMARK    1  A    between atoms: N_10  and  C_4 
REMARK    2  A    between atoms: C_20  and  N_5 
REMARK    3  A    between atoms: C_12  and  S_19 
REMARK    4  A    between atoms: S_19  and  C_23 
REMARK    5  A    between atoms: C_23  and  C_20 
ROOT
ATOM      1  C   UNL d   1     -51.980  25.822  33.355  0.00  0.00     0.191 A 
ATOM      2  C   UNL d   1     -51.391  26.398  33.345  0.00  0.00     0.174 A 
ATOM      3  N   UNL d   1     -51.613  25.086  33.378  0.00  0.00    -0.042 NA
ATOM      4  C   UNL d   1     -50.806  25.203  33.382  0.00  0.00     0.722 A 
ATOM      5  N   UNL d   1     -50.660  26.018  33.361  0.00  0.00    -0.132 N 
ATOM      6  N   UNL d   1     -52.775  26.045  33.343  0.00  0.00    -0.239 N 
ATOM      7  C   UNL d   1     -52.980  26.844  33.320  0.00  0.00     0.358 A 
ATOM      8  N   UNL d   1     -52.391  27.420  33.310  0.00  0.00    -0.152 NA
ATOM      9  C   UNL d   1     -51.596  27.197  33.322  0.00  0.00     0.303 A 
ATOM     10  O   UNL d   1     -53.777  27.062  33.307  0.00  0.00    -0.244 OA
ATOM     11  O   UNL d   1     -51.006  27.773  33.312  0.00  0.00    -0.263 OA
ATOM     12  C   UNL d   1     -53.358  25.474  33.353  0.00  0.00     0.105 C 
ENDROOT
BRANCH   5  13
ATOM     13  C   UNL d   1     -49.917  26.386  33.358  0.00  0.00     0.105 C 
BRANCH  13  14
ATOM     14  C   UNL d   1     -49.758  27.007  33.884  0.00  0.00     0.058 C 
BRANCH  14  15
ATOM     15  S   UNL d   1     -49.035  27.019  34.303  0.00  0.00    -0.041 SA
BRANCH  15  16
ATOM     16  C   UNL d   1     -48.711  27.748  34.523  0.00  0.00     0.215 A 
ATOM     17  N   UNL d   1     -48.420  27.865  35.278  0.00  0.00    -0.214 NA
ATOM     18  C   UNL d   1     -48.141  28.626  35.328  0.00  0.00     0.107 A 
ATOM     19  C   UNL d   1     -47.790  29.035  35.960  0.00  0.00     0.021 A 
ATOM     20  C   UNL d   1     -48.250  28.996  34.617  0.00  0.00     0.120 A 
ATOM     21  C   UNL d   1     -47.553  29.823  35.857  0.00  0.00     0.002 A 
ATOM     22  C   UNL d   1     -47.664  30.189  35.144  0.00  0.00     0.002 A 
ATOM     23  C   UNL d   1     -48.013  29.774  34.521  0.00  0.00     0.026 A 
ATOM     24  O   UNL d   1     -48.610  28.445  34.104  0.00  0.00    -0.283 OA
ENDBRANCH  15  16
ENDBRANCH  14  15
ENDBRANCH  13  14
ENDBRANCH   5  13
BRANCH   4  25
ATOM     25  N   UNL d   1     -50.262  24.588  33.403  0.00  0.00    -0.139 N 
ATOM     26  C   UNL d   1     -49.465  24.752  33.521  0.00  0.00     0.098 A 
ATOM     27  C   UNL d   1     -48.911  24.140  33.544  0.00  0.00     0.018 A 
ATOM     28  C   UNL d   1     -48.101  24.283  33.663  0.00  0.00     0.002 C 
ATOM     29  C   UNL d   1     -49.158  23.362  33.447  0.00  0.00     0.003 A 
ATOM     30  C   UNL d   1     -49.958  23.190  33.327  0.00  0.00     0.020 A 
ATOM     31  C   UNL d   1     -50.512  23.815  33.306  0.00  0.00     0.098 A 
ENDBRANCH   4  25
TORSDOF 5
ENDMDL
