MODEL 1
REMARK VINA RESULT:      45.2      0.000      0.000
REMARK  4 active torsions:
REMARK  status: ('A' for Active; 'I' for Inactive)
REMARK    1  A    between atoms: C_12  and  N_1 
REMARK    2  A    between atoms: N_2  and  C_11 
REMARK    3  A    between atoms: C_11  and  C_15 
REMARK    4  A    between atoms: C_15  and  C_12 
ROOT
ATOM      1  N   UNL d   1     -57.338 -98.767 -44.242  0.00  0.00    -0.303 N 
ATOM      2  C   UNL d   1     -57.736 -98.764 -43.504  0.00  0.00     0.064 A 
ATOM      3  C   UNL d   1     -58.561 -98.762 -43.664  0.00  0.00     0.018 A 
ATOM      4  C   UNL d   1     -58.661 -98.763 -44.489  0.00  0.00     0.018 A 
ATOM      5  C   UNL d   1     -57.913 -98.766 -44.843  0.00  0.00     0.064 A 
ATOM      6  C   UNL d   1     -57.846 -98.768 -45.665  0.00  0.00     0.018 A 
ATOM      7  C   UNL d   1     -59.340 -98.761 -44.958  0.00  0.00     0.002 A 
ATOM      8  C   UNL d   1     -58.524 -98.766 -46.134  0.00  0.00     0.002 A 
ATOM      9  C   UNL d   1     -59.272 -98.763 -45.780  0.00  0.00     0.000 A 
ATOM     10  C   UNL d   1     -57.382 -98.764 -42.757  0.00  0.00     0.019 C 
ATOM     11  C   UNL d   1     -59.159 -98.759 -43.102  0.00  0.00     0.002 C 
ATOM     12  C   UNL d   1     -59.951 -98.762 -46.248  0.00  0.00     0.000 C 
ENDROOT
BRANCH   1  13
ATOM     13  C   UNL d   1     -56.516 -98.770 -44.341  0.00  0.00     0.124 C 
BRANCH  13  14
ATOM     14  C   UNL d   1     -56.033 -99.005 -43.711  0.00  0.00     0.232 C 
ATOM     15  O   UNL d   1     -56.306 -98.947 -42.932  0.00  0.00    -0.283 OA
BRANCH  14  16
ATOM     16  C   UNL d   1     -55.280 -99.298 -43.862  0.00  0.00     0.144 C 
BRANCH  16  17
ATOM     17  N   UNL d   1     -55.175-100.093 -44.071  0.00  0.00    -0.225 N 
ATOM     18  N   UNL d   1     -55.259-100.408 -44.828  0.00  0.00    -0.165 NA
ATOM     19  C   UNL d   1     -55.104-101.221 -44.789  0.00  0.00     0.109 A 
ATOM     20  C   UNL d   1     -55.127-101.749 -45.421  0.00  0.00     0.023 C 
ATOM     21  C   UNL d   1     -54.924-101.404 -44.001  0.00  0.00     0.072 A 
ATOM     22  C   UNL d   1     -54.966-100.713 -43.557  0.00  0.00     0.091 A 
ATOM     23 BR   UNL d   1     -54.734-102.153 -43.710  0.00  0.00    -0.046 Br
ATOM     24  C   UNL d   1     -54.827-100.644 -42.747  0.00  0.00     0.021 C 
ENDBRANCH  16  17
ENDBRANCH  14  16
ENDBRANCH  13  14
ENDBRANCH   1  13
TORSDOF 4
ENDMDL
