MODEL 1
REMARK VINA RESULT:      -2.8      0.000      0.000
REMARK  4 active torsions:
REMARK  status: ('A' for Active; 'I' for Inactive)
REMARK    1  A    between atoms: N_2  and  S_1 
REMARK    2  A    between atoms: C_3  and  S_1 
REMARK    3  A    between atoms: C_17  and  N_4 
REMARK    4  A    between atoms: C_16  and  C_17 
ROOT
ATOM      1  N   UNL d   1      30.256  16.379 -24.554  0.00  0.00    -0.226 N 
ATOM      2  N   UNL d   1      31.760  16.850 -24.093  0.00  0.00    -0.300 N 
ATOM      3  C   UNL d   1      30.527  16.195 -23.792  0.00  0.00     0.111 A 
ATOM      4  C   UNL d   1      30.736  16.796 -25.080  0.00  0.00     0.111 A 
ATOM      5  C   UNL d   1      31.490  17.031 -24.844  0.00  0.00     0.100 A 
ATOM      6  C   UNL d   1      31.292  16.437 -23.564  0.00  0.00     0.100 A 
ENDROOT
BRANCH   1   7
ATOM      7  S   UNL d   1      29.503  16.141 -24.779  0.00  0.00     0.272 S 
ATOM      8  O   UNL d   1      28.755  15.904 -25.002  0.00  0.00    -0.200 OA
ATOM      9  O   UNL d   1      29.814  15.453 -25.091  0.00  0.00    -0.200 OA
BRANCH   7  10
ATOM     10  C   UNL d   1      29.189  16.836 -24.464  0.00  0.00     0.106 A 
ATOM     11  C   UNL d   1      29.127  17.515 -24.945  0.00  0.00     0.043 A 
ATOM     12  C   UNL d   1      28.810  18.216 -24.627  0.00  0.00     0.141 A 
ATOM     13  F   UNL d   1      28.746  18.890 -25.097  0.00  0.00    -0.204 F 
ATOM     14  C   UNL d   1      28.558  18.233 -23.832  0.00  0.00     0.030 A 
ATOM     15  C   UNL d   1      28.624  17.563 -23.370  0.00  0.00     0.003 A 
ATOM     16  C   UNL d   1      28.940  16.861 -23.688  0.00  0.00     0.013 A 
ENDBRANCH   7  10
ENDBRANCH   1   7
BRANCH   2  17
ATOM     17  C   UNL d   1      32.516  17.089 -23.867  0.00  0.00     0.080 C 
BRANCH  17  18
ATOM     18  C   UNL d   1      32.655  17.872 -23.655  0.00  0.00     0.020 A 
ATOM     19  C   UNL d   1      32.702  18.070 -22.863  0.00  0.00     0.028 A 
ATOM     20  C   UNL d   1      32.840  18.853 -22.639  0.00  0.00     0.119 A 
ATOM     21  O   UNL d   1      32.915  19.217 -21.897  0.00  0.00    -0.300 OA
ATOM     22  C   UNL d   1      32.930  19.430 -23.222  0.00  0.00     0.119 A 
ATOM     23  C   UNL d   1      33.052  20.025 -22.026  0.00  0.00     0.304 A 
ATOM     24  O   UNL d   1      33.062  20.158 -22.848  0.00  0.00    -0.300 OA
ATOM     25  C   UNL d   1      32.883  19.229 -24.023  0.00  0.00     0.026 A 
ATOM     26  C   UNL d   1      32.745  18.449 -24.239  0.00  0.00     0.004 A 
ENDBRANCH  17  18
ENDBRANCH   2  17
TORSDOF 4
ENDMDL
MODEL 2
REMARK VINA RESULT:      -0.7      0.973      1.536
REMARK  4 active torsions:
REMARK  status: ('A' for Active; 'I' for Inactive)
REMARK    1  A    between atoms: N_2  and  S_1 
REMARK    2  A    between atoms: C_3  and  S_1 
REMARK    3  A    between atoms: C_17  and  N_4 
REMARK    4  A    between atoms: C_16  and  C_17 
ROOT
ATOM      1  N   UNL d   1      31.415  16.771 -24.622  0.00  0.00    -0.226 N 
ATOM      2  N   UNL d   1      32.539  17.915 -24.268  0.00  0.00    -0.300 N 
ATOM      3  C   UNL d   1      31.912  16.667 -23.966  0.00  0.00     0.111 A 
ATOM      4  C   UNL d   1      31.482  17.443 -25.097  0.00  0.00     0.111 A 
ATOM      5  C   UNL d   1      32.048  18.015 -24.914  0.00  0.00     0.100 A 
ATOM      6  C   UNL d   1      32.481  17.252 -23.791  0.00  0.00     0.100 A 
ENDROOT
BRANCH   1   7
ATOM      7  S   UNL d   1      30.855  16.196 -24.794  0.00  0.00     0.272 S 
ATOM      8  O   UNL d   1      30.299  15.624 -24.965  0.00  0.00    -0.200 OA
ATOM      9  O   UNL d   1      31.452  15.674 -24.992  0.00  0.00    -0.200 OA
BRANCH   7  10
ATOM     10  C   UNL d   1      30.253  16.722 -24.594  0.00  0.00     0.106 A 
ATOM     11  C   UNL d   1      29.843  16.626 -23.874  0.00  0.00     0.043 A 
ATOM     12  C   UNL d   1      29.235  17.158 -23.672  0.00  0.00     0.141 A 
ATOM     13  F   UNL d   1      28.827  17.068 -22.962  0.00  0.00    -0.204 F 
ATOM     14  C   UNL d   1      29.041  17.781 -24.193  0.00  0.00     0.030 A 
ATOM     15  C   UNL d   1      29.448  17.866 -24.895  0.00  0.00     0.003 A 
ATOM     16  C   UNL d   1      30.057  17.334 -25.097  0.00  0.00     0.013 A 
ENDBRANCH   7  10
ENDBRANCH   1   7
BRANCH   2  17
ATOM     17  C   UNL d   1      33.101  18.493 -24.095  0.00  0.00     0.080 C 
BRANCH  17  18
ATOM     18  C   UNL d   1      33.085  18.880 -23.369  0.00  0.00     0.020 A 
ATOM     19  C   UNL d   1      33.020  19.695 -23.352  0.00  0.00     0.028 A 
ATOM     20  C   UNL d   1      33.002  20.094 -22.628  0.00  0.00     0.119 A 
ATOM     21  O   UNL d   1      32.941  20.898 -22.435  0.00  0.00    -0.300 OA
ATOM     22  C   UNL d   1      33.051  19.661 -21.928  0.00  0.00     0.119 A 
ATOM     23  C   UNL d   1      32.953  20.959 -21.607  0.00  0.00     0.304 A 
ATOM     24  O   UNL d   1      33.021  20.191 -21.292  0.00  0.00    -0.300 OA
ATOM     25  C   UNL d   1      33.117  18.836 -21.946  0.00  0.00     0.026 A 
ATOM     26  C   UNL d   1      33.134  18.447 -22.669  0.00  0.00     0.004 A 
ENDBRANCH  17  18
ENDBRANCH   2  17
TORSDOF 4
ENDMDL
