MODEL 1
REMARK VINA RESULT:       1.4      0.000      0.000
REMARK  6 active torsions:
REMARK  status: ('A' for Active; 'I' for Inactive)
REMARK    1  A    between atoms: C_5  and  C_1 
REMARK    2  A    between atoms: N_4  and  C_2 
REMARK       I    between atoms: C_3  and  N_4 
REMARK    3  A    between atoms: C_10  and  C_3 
REMARK    4  A    between atoms: O_15  and  C_5 
REMARK    5  A    between atoms: C_6  and  C_7 
REMARK    6  A    between atoms: O_16  and  C_6 
ROOT
ATOM      1  C   UNL d   1     -41.788-121.649 -52.286  0.00  0.00     0.093 A 
ATOM      2  C   UNL d   1     -41.784-122.461 -52.138  0.00  0.00     0.140 A 
ATOM      3  C   UNL d   1     -41.775-122.718 -53.544  0.00  0.00     0.066 A 
ATOM      4  C   UNL d   1     -41.777-122.996 -52.769  0.00  0.00     0.038 A 
ATOM      5  C   UNL d   1     -41.786-121.373 -53.066  0.00  0.00     0.008 A 
ATOM      6  C   UNL d   1     -41.780-121.906 -53.692  0.00  0.00     0.006 A 
ENDROOT
BRANCH   2   7
ATOM      7  N   UNL d   1     -41.785-122.743 -51.362  0.00  0.00    -0.368 NA
ATOM      8  C   UNL d   1     -41.785-123.022 -50.592  0.00  0.00     0.303 C 
ATOM      9  O   UNL d   1     -41.198-122.788 -50.065  0.00  0.00    -0.256 OA
BRANCH   8  10
ATOM     10  C   UNL d   1     -42.379-123.541 -50.346  0.00  0.00     0.085 C 
ATOM     11  C   UNL d   1     -42.966-123.797 -50.868  0.00  0.00     0.011 C 
ATOM     12  C   UNL d   1     -41.910-123.420 -49.676  0.00  0.00     0.011 C 
ATOM     13  C   UNL d   1     -42.392-123.812 -49.564  0.00  0.00     0.011 C 
ENDBRANCH   8  10
ENDBRANCH   2   7
BRANCH   1  14
ATOM     14  C   UNL d   1     -41.795-121.116 -51.660  0.00  0.00     0.298 C 
ATOM     15  O   UNL d   1     -42.467-121.041 -51.188  0.00  0.00    -0.259 OA
BRANCH  14  16
ATOM     16  O   UNL d   1     -41.129-120.657 -51.505  0.00  0.00    -0.296 OA
ATOM     17  C   UNL d   1     -41.182-119.828 -51.512  0.00  0.00     0.185 C 
ENDBRANCH  14  16
ENDBRANCH   1  14
BRANCH   3  18
ATOM     18  C   UNL d   1     -41.769-123.252 -54.171  0.00  0.00     0.296 C 
ATOM     19  O   UNL d   1     -42.370-123.812 -54.243  0.00  0.00    -0.259 OA
BRANCH  18  20
ATOM     20  O   UNL d   1     -41.157-123.229 -54.732  0.00  0.00    -0.296 OA
ATOM     21  C   UNL d   1     -41.151-123.763 -55.359  0.00  0.00     0.185 C 
ENDBRANCH  18  20
ENDBRANCH   3  18
TORSDOF 6
ENDMDL
MODEL 2
REMARK VINA RESULT:       3.4      1.062      3.352
REMARK  6 active torsions:
REMARK  status: ('A' for Active; 'I' for Inactive)
REMARK    1  A    between atoms: C_5  and  C_1 
REMARK    2  A    between atoms: N_4  and  C_2 
REMARK       I    between atoms: C_3  and  N_4 
REMARK    3  A    between atoms: C_10  and  C_3 
REMARK    4  A    between atoms: O_15  and  C_5 
REMARK    5  A    between atoms: C_6  and  C_7 
REMARK    6  A    between atoms: O_16  and  C_6 
ROOT
ATOM      1  C   UNL d   1     -41.522-121.378 -51.639  0.00  0.00     0.093 A 
ATOM      2  C   UNL d   1     -41.598-122.140 -51.945  0.00  0.00     0.140 A 
ATOM      3  C   UNL d   1     -41.908-122.634 -50.641  0.00  0.00     0.066 A 
ATOM      4  C   UNL d   1     -41.792-122.769 -51.444  0.00  0.00     0.038 A 
ATOM      5  C   UNL d   1     -41.639-121.245 -50.831  0.00  0.00     0.008 A 
ATOM      6  C   UNL d   1     -41.832-121.871 -50.334  0.00  0.00     0.006 A 
ENDROOT
BRANCH   2   7
ATOM      7  N   UNL d   1     -41.482-122.279 -52.750  0.00  0.00    -0.368 NA
ATOM      8  C   UNL d   1     -41.367-122.416 -53.550  0.00  0.00     0.303 C 
ATOM      9  O   UNL d   1     -41.129-121.804 -54.046  0.00  0.00    -0.256 OA
BRANCH   8  10
ATOM     10  C   UNL d   1     -41.490-123.172 -53.857  0.00  0.00     0.085 C 
ATOM     11  C   UNL d   1     -41.640-123.816 -53.361  0.00  0.00     0.011 C 
ATOM     12  C   UNL d   1     -41.361-122.693 -54.517  0.00  0.00     0.011 C 
ATOM     13  C   UNL d   1     -41.465-123.295 -54.675  0.00  0.00     0.011 C 
ENDBRANCH   8  10
ENDBRANCH   2   7
BRANCH   1  14
ATOM     14  C   UNL d   1     -41.329-120.751 -52.136  0.00  0.00     0.298 C 
ATOM     15  O   UNL d   1     -41.342-120.854 -52.955  0.00  0.00    -0.259 OA
BRANCH  14  16
ATOM     16  O   UNL d   1     -41.124-120.021 -51.816  0.00  0.00    -0.296 OA
ATOM     17  C   UNL d   1     -41.218-119.327 -52.262  0.00  0.00     0.185 C 
ENDBRANCH  14  16
ENDBRANCH   1  14
BRANCH   3  18
ATOM     18  C   UNL d   1     -42.101-123.261 -50.143  0.00  0.00     0.296 C 
ATOM     19  O   UNL d   1     -42.888-123.495 -50.058  0.00  0.00    -0.259 OA
BRANCH  18  20
ATOM     20  O   UNL d   1     -41.504-123.661 -49.725  0.00  0.00    -0.296 OA
ATOM     21  C   UNL d   1     -41.582-123.788 -48.916  0.00  0.00     0.185 C 
ENDBRANCH  18  20
ENDBRANCH   3  18
TORSDOF 6
ENDMDL
