MODEL 1
REMARK VINA RESULT:      19.7      0.000      0.000
REMARK  4 active torsions:
REMARK  status: ('A' for Active; 'I' for Inactive)
REMARK    1  A    between atoms: C_6  and  N_1 
REMARK    2  A    between atoms: C_12  and  C_6 
REMARK    3  A    between atoms: O_18  and  C_7 
REMARK    4  A    between atoms: O_19  and  C_10 
ROOT
ATOM      1  N   UNL d   1      46.373 -17.571  43.977  0.00  0.00    -0.251 N 
ATOM      2  C   UNL d   1      46.391 -17.290  43.191  0.00  0.00     0.378 A 
ATOM      3  C   UNL d   1      46.329 -18.397  43.950  0.00  0.00     0.092 A 
ATOM      4  O   UNL d   1      46.358 -17.943  42.683  0.00  0.00    -0.258 OA
ATOM      5  C   UNL d   1      46.320 -18.627  43.152  0.00  0.00     0.121 A 
ATOM      6  O   UNL d   1      46.434 -16.499  42.968  0.00  0.00    -0.237 OA
ATOM      7  C   UNL d   1      46.297 -18.960  44.548  0.00  0.00     0.020 A 
ATOM      8  C   UNL d   1      46.277 -19.432  42.963  0.00  0.00     0.026 A 
ATOM      9  C   UNL d   1      46.255 -19.760  44.348  0.00  0.00     0.002 A 
ATOM     10  C   UNL d   1      46.245 -19.994  43.560  0.00  0.00     0.002 A 
ATOM     11  C   UNL d   1      46.223 -20.324  44.955  0.00  0.00     0.000 C 
ENDROOT
BRANCH   1  12
ATOM     12  C   UNL d   1      46.394 -17.141  44.682  0.00  0.00     0.085 C 
BRANCH  12  13
ATOM     13  C   UNL d   1      45.953 -16.446  44.751  0.00  0.00     0.020 A 
ATOM     14  C   UNL d   1      46.329 -15.724  44.710  0.00  0.00     0.028 A 
ATOM     15  C   UNL d   1      45.901 -15.028  44.778  0.00  0.00     0.116 A 
ATOM     16  C   UNL d   1      45.080 -15.066  44.887  0.00  0.00     0.116 A 
ATOM     17  C   UNL d   1      44.702 -15.795  44.927  0.00  0.00     0.026 A 
ATOM     18  C   UNL d   1      45.144 -16.489  44.858  0.00  0.00     0.004 A 
BRANCH  15  19
ATOM     19  O   UNL d   1      46.274 -14.303  44.738  0.00  0.00    -0.326 OA
ATOM     20  C   UNL d   1      46.123 -14.028  43.976  0.00  0.00     0.181 C 
ENDBRANCH  15  19
BRANCH  16  21
ATOM     21  O   UNL d   1      44.644 -14.371  44.955  0.00  0.00    -0.326 OA
ATOM     22  C   UNL d   1      43.831 -14.393  44.878  0.00  0.00     0.181 C 
ENDBRANCH  16  21
ENDBRANCH  12  13
ENDBRANCH   1  12
TORSDOF 4
ENDMDL
MODEL 2
REMARK VINA RESULT:      20.1      1.066      4.301
REMARK  4 active torsions:
REMARK  status: ('A' for Active; 'I' for Inactive)
REMARK    1  A    between atoms: C_6  and  N_1 
REMARK    2  A    between atoms: C_12  and  C_6 
REMARK    3  A    between atoms: O_18  and  C_7 
REMARK    4  A    between atoms: O_19  and  C_10 
ROOT
ATOM      1  N   UNL d   1      45.742 -16.199  44.420  0.00  0.00    -0.251 N 
ATOM      2  C   UNL d   1      45.020 -16.497  44.715  0.00  0.00     0.378 A 
ATOM      3  C   UNL d   1      45.719 -15.374  44.479  0.00  0.00     0.092 A 
ATOM      4  O   UNL d   1      44.555 -15.854  44.955  0.00  0.00    -0.258 OA
ATOM      5  C   UNL d   1      44.987 -15.161  44.809  0.00  0.00     0.121 A 
ATOM      6  O   UNL d   1      44.813 -17.292  44.758  0.00  0.00    -0.237 OA
ATOM      7  C   UNL d   1      46.269 -14.798  44.275  0.00  0.00     0.020 A 
ATOM      8  C   UNL d   1      44.816 -14.360  44.931  0.00  0.00     0.026 A 
ATOM      9  C   UNL d   1      46.088 -14.004  44.400  0.00  0.00     0.002 A 
ATOM     10  C   UNL d   1      45.365 -13.785  44.727  0.00  0.00     0.002 A 
ATOM     11  C   UNL d   1      46.646 -13.426  44.193  0.00  0.00     0.000 C 
ENDROOT
BRANCH   1  12
ATOM     12  C   UNL d   1      46.387 -16.614  44.116  0.00  0.00     0.085 C 
BRANCH  12  13
ATOM     13  C   UNL d   1      46.371 -17.440  44.095  0.00  0.00     0.020 A 
ATOM     14  C   UNL d   1      46.364 -17.825  43.376  0.00  0.00     0.028 A 
ATOM     15  C   UNL d   1      46.347 -18.644  43.345  0.00  0.00     0.116 A 
ATOM     16  C   UNL d   1      46.337 -19.077  44.051  0.00  0.00     0.116 A 
ATOM     17  C   UNL d   1      46.344 -18.688  44.774  0.00  0.00     0.026 A 
ATOM     18  C   UNL d   1      46.361 -17.862  44.795  0.00  0.00     0.004 A 
BRANCH  15  19
ATOM     19  O   UNL d   1      46.340 -19.034  42.627  0.00  0.00    -0.326 OA
ATOM     20  C   UNL d   1      46.633 -18.486  42.085  0.00  0.00     0.181 C 
ENDBRANCH  15  19
BRANCH  16  21
ATOM     21  O   UNL d   1      46.321 -19.900  44.026  0.00  0.00    -0.326 OA
ATOM     22  C   UNL d   1      46.328 -20.328  44.722  0.00  0.00     0.181 C 
ENDBRANCH  16  21
ENDBRANCH  12  13
ENDBRANCH   1  12
TORSDOF 4
ENDMDL
MODEL 3
REMARK VINA RESULT:      20.9      1.096      4.328
REMARK  4 active torsions:
REMARK  status: ('A' for Active; 'I' for Inactive)
REMARK    1  A    between atoms: C_6  and  N_1 
REMARK    2  A    between atoms: C_12  and  C_6 
REMARK    3  A    between atoms: O_18  and  C_7 
REMARK    4  A    between atoms: O_19  and  C_10 
ROOT
ATOM      1  N   UNL d   1      45.555 -15.884  44.761  0.00  0.00    -0.251 N 
ATOM      2  C   UNL d   1      44.761 -16.124  44.866  0.00  0.00     0.378 A 
ATOM      3  C   UNL d   1      45.564 -15.059  44.695  0.00  0.00     0.092 A 
ATOM      4  O   UNL d   1      44.285 -15.446  44.865  0.00  0.00    -0.258 OA
ATOM      5  C   UNL d   1      44.781 -14.789  44.760  0.00  0.00     0.121 A 
ATOM      6  O   UNL d   1      44.505 -16.901  44.954  0.00  0.00    -0.237 OA
ATOM      7  C   UNL d   1      46.183 -14.529  44.587  0.00  0.00     0.020 A 
ATOM      8  C   UNL d   1      44.629 -13.976  44.713  0.00  0.00     0.026 A 
ATOM      9  C   UNL d   1      46.019 -13.722  44.542  0.00  0.00     0.002 A 
ATOM     10  C   UNL d   1      45.246 -13.447  44.604  0.00  0.00     0.002 A 
ATOM     11  C   UNL d   1      46.647 -13.191  44.432  0.00  0.00     0.000 C 
ENDROOT
BRANCH   1  12
ATOM     12  C   UNL d   1      46.235 -16.350  44.723  0.00  0.00     0.085 C 
BRANCH  12  13
ATOM     13  C   UNL d   1      46.261 -16.998  44.211  0.00  0.00     0.020 A 
ATOM     14  C   UNL d   1      46.438 -17.738  44.506  0.00  0.00     0.028 A 
ATOM     15  C   UNL d   1      46.465 -18.387  44.007  0.00  0.00     0.116 A 
ATOM     16  C   UNL d   1      46.311 -18.286  43.199  0.00  0.00     0.116 A 
ATOM     17  C   UNL d   1      46.133 -17.540  42.904  0.00  0.00     0.026 A 
ATOM     18  C   UNL d   1      46.108 -16.892  43.415  0.00  0.00     0.004 A 
BRANCH  15  19
ATOM     19  O   UNL d   1      46.642 -19.130  44.298  0.00  0.00    -0.326 OA
ATOM     20  C   UNL d   1      46.120 -19.242  44.926  0.00  0.00     0.181 C 
ENDBRANCH  15  19
BRANCH  16  21
ATOM     21  O   UNL d   1      46.338 -18.934  42.693  0.00  0.00    -0.326 OA
ATOM     22  C   UNL d   1      45.781 -19.008  42.099  0.00  0.00     0.181 C 
ENDBRANCH  16  21
ENDBRANCH  12  13
ENDBRANCH   1  12
TORSDOF 4
ENDMDL
MODEL 4
REMARK VINA RESULT:      21.2      0.986      1.507
REMARK  4 active torsions:
REMARK  status: ('A' for Active; 'I' for Inactive)
REMARK    1  A    between atoms: C_6  and  N_1 
REMARK    2  A    between atoms: C_12  and  C_6 
REMARK    3  A    between atoms: O_18  and  C_7 
REMARK    4  A    between atoms: O_19  and  C_10 
ROOT
ATOM      1  N   UNL d   1      46.389 -17.805  43.498  0.00  0.00    -0.251 N 
ATOM      2  C   UNL d   1      46.320 -18.086  44.282  0.00  0.00     0.378 A 
ATOM      3  C   UNL d   1      46.446 -18.461  42.997  0.00  0.00     0.092 A 
ATOM      4  O   UNL d   1      46.335 -18.914  44.260  0.00  0.00    -0.258 OA
ATOM      5  C   UNL d   1      46.413 -19.145  43.467  0.00  0.00     0.121 A 
ATOM      6  O   UNL d   1      46.250 -17.616  44.954  0.00  0.00    -0.237 OA
ATOM      7  C   UNL d   1      46.523 -18.517  42.181  0.00  0.00     0.020 A 
ATOM      8  C   UNL d   1      46.458 -19.888  43.104  0.00  0.00     0.026 A 
ATOM      9  C   UNL d   1      46.568 -19.262  41.830  0.00  0.00     0.002 A 
ATOM     10  C   UNL d   1      46.535 -19.944  42.289  0.00  0.00     0.002 A 
ATOM     11  C   UNL d   1      46.646 -19.313  41.006  0.00  0.00     0.000 C 
ENDROOT
BRANCH   1  12
ATOM     12  C   UNL d   1      46.402 -17.025  43.228  0.00  0.00     0.085 C 
BRANCH  12  13
ATOM     13  C   UNL d   1      46.011 -16.436  43.655  0.00  0.00     0.020 A 
ATOM     14  C   UNL d   1      46.383 -15.724  43.795  0.00  0.00     0.028 A 
ATOM     15  C   UNL d   1      46.004 -15.133  44.218  0.00  0.00     0.116 A 
ATOM     16  C   UNL d   1      45.237 -15.266  44.502  0.00  0.00     0.116 A 
ATOM     17  C   UNL d   1      44.863 -15.984  44.360  0.00  0.00     0.026 A 
ATOM     18  C   UNL d   1      45.254 -16.572  43.933  0.00  0.00     0.004 A 
BRANCH  15  19
ATOM     19  O   UNL d   1      46.374 -14.419  44.360  0.00  0.00    -0.326 OA
ATOM     20  C   UNL d   1      46.357 -14.023  43.637  0.00  0.00     0.181 C 
ENDBRANCH  15  19
BRANCH  16  21
ATOM     21  O   UNL d   1      44.851 -14.677  44.927  0.00  0.00    -0.326 OA
ATOM     22  C   UNL d   1      44.034 -14.663  44.952  0.00  0.00     0.181 C 
ENDBRANCH  16  21
ENDBRANCH  12  13
ENDBRANCH   1  12
TORSDOF 4
ENDMDL
