MODEL 1
REMARK VINA RESULT:      68.5      0.000      0.000
REMARK  4 active torsions:
REMARK  status: ('A' for Active; 'I' for Inactive)
REMARK    1  A    between atoms: S_6  and  C_1 
REMARK    2  A    between atoms: N_9  and  N_2 
REMARK    3  A    between atoms: C_12  and  S_6 
REMARK       I    between atoms: C_10  and  N_9 
REMARK    4  A    between atoms: C_11  and  C_10 
ROOT
ATOM      1  C   UNL d   1      14.288  14.357  -2.257  0.00  0.00     0.146 A 
ATOM      2  N   UNL d   1      14.034  13.268  -1.515  0.00  0.00    -0.188 N 
ATOM      3  C   UNL d   1      14.334  14.037  -1.498  0.00  0.00     0.199 A 
ATOM      4  C   UNL d   1      13.798  13.106  -2.293  0.00  0.00     0.184 A 
ATOM      5  C   UNL d   1      13.954  13.777  -2.751  0.00  0.00     0.131 A 
ATOM      6  N   UNL d   1      13.463  12.441  -2.644  0.00  0.00    -0.224 NA
ATOM      7  N   UNL d   1      13.776  13.778  -3.552  0.00  0.00    -0.240 NA
ATOM      8  C   UNL d   1      13.285  12.444  -3.450  0.00  0.00     0.101 A 
ATOM      9  C   UNL d   1      13.445  13.121  -3.899  0.00  0.00     0.099 A 
ATOM     10  N   UNL d   1      14.630  14.419  -0.831  0.00  0.00    -0.126 N 
ATOM     11  C   UNL d   1      12.950  11.779  -3.801  0.00  0.00     0.021 A 
ATOM     12  C   UNL d   1      13.267  13.127  -4.708  0.00  0.00     0.021 A 
ATOM     13  C   UNL d   1      12.932  12.459  -5.057  0.00  0.00     0.002 A 
ATOM     14  C   UNL d   1      12.771  11.781  -4.608  0.00  0.00     0.002 A 
ENDROOT
BRANCH   1  15
ATOM     15  S   UNL d   1      14.524  15.101  -2.486  0.00  0.00     0.214 S 
ATOM     16  O   UNL d   1      14.337  15.594  -1.845  0.00  0.00    -0.217 OA
ATOM     17  O   UNL d   1      14.710  14.615  -3.122  0.00  0.00    -0.217 OA
BRANCH  15  18
ATOM     18  C   UNL d   1      14.767  15.853  -2.729  0.00  0.00     0.088 A 
ATOM     19  C   UNL d   1      15.011  16.470  -2.239  0.00  0.00     0.011 A 
ATOM     20  C   UNL d   1      15.238  17.190  -2.565  0.00  0.00     0.001 A 
ATOM     21  C   UNL d   1      15.221  17.296  -3.381  0.00  0.00     0.000 A 
ATOM     22  C   UNL d   1      14.977  16.682  -3.872  0.00  0.00     0.001 A 
ATOM     23  C   UNL d   1      15.447  18.015  -3.708  0.00  0.00     0.000 C 
ATOM     24  C   UNL d   1      14.747  15.951  -3.546  0.00  0.00     0.011 A 
ENDBRANCH  15  18
ENDBRANCH   1  15
BRANCH   2  25
ATOM     25  N   UNL d   1      13.974  12.748  -0.882  0.00  0.00    -0.120 NA
ATOM     26  C   UNL d   1      14.629  12.297  -0.653  0.00  0.00     0.295 C 
ATOM     27  O   UNL d   1      14.564  11.780  -0.021  0.00  0.00    -0.264 OA
BRANCH  26  28
ATOM     28  C   UNL d   1      15.344  12.369  -1.059  0.00  0.00     0.059 A 
ATOM     29  C   UNL d   1      16.088  12.721  -1.141  0.00  0.00     0.005 A 
ATOM     30  C   UNL d   1      15.841  12.146  -1.677  0.00  0.00     0.005 A 
ENDBRANCH  26  28
ENDBRANCH   2  25
TORSDOF 4
ENDMDL
MODEL 2
REMARK VINA RESULT:      70.3      1.222      2.848
REMARK  4 active torsions:
REMARK  status: ('A' for Active; 'I' for Inactive)
REMARK    1  A    between atoms: S_6  and  C_1 
REMARK    2  A    between atoms: N_9  and  N_2 
REMARK    3  A    between atoms: C_12  and  S_6 
REMARK       I    between atoms: C_10  and  N_9 
REMARK    4  A    between atoms: C_11  and  C_10 
ROOT
ATOM      1  C   UNL d   1      13.928  14.297  -3.404  0.00  0.00     0.146 A 
ATOM      2  N   UNL d   1      13.318  13.163  -3.780  0.00  0.00    -0.188 N 
ATOM      3  C   UNL d   1      13.498  13.936  -4.008  0.00  0.00     0.199 A 
ATOM      4  C   UNL d   1      13.639  13.040  -3.026  0.00  0.00     0.184 A 
ATOM      5  C   UNL d   1      14.016  13.739  -2.793  0.00  0.00     0.131 A 
ATOM      6  N   UNL d   1      13.640  12.389  -2.523  0.00  0.00    -0.224 NA
ATOM      7  N   UNL d   1      14.388  13.782  -2.063  0.00  0.00    -0.240 NA
ATOM      8  C   UNL d   1      14.014  12.434  -1.788  0.00  0.00     0.101 A 
ATOM      9  C   UNL d   1      14.388  13.139  -1.565  0.00  0.00     0.099 A 
ATOM     10  N   UNL d   1      13.282  14.285  -4.721  0.00  0.00    -0.126 N 
ATOM     11  C   UNL d   1      14.015  11.783  -1.285  0.00  0.00     0.021 A 
ATOM     12  C   UNL d   1      14.765  13.186  -0.829  0.00  0.00     0.021 A 
ATOM     13  C   UNL d   1      14.764  12.532  -0.326  0.00  0.00     0.002 A 
ATOM     14  C   UNL d   1      14.390  11.827  -0.550  0.00  0.00     0.002 A 
ENDROOT
BRANCH   1  15
ATOM     15  S   UNL d   1      14.217  15.058  -3.400  0.00  0.00     0.214 S 
ATOM     16  O   UNL d   1      15.032  14.979  -3.269  0.00  0.00    -0.217 OA
ATOM     17  O   UNL d   1      13.409  15.139  -3.530  0.00  0.00    -0.217 OA
BRANCH  15  18
ATOM     18  C   UNL d   1      14.499  15.835  -3.398  0.00  0.00     0.088 A 
ATOM     19  C   UNL d   1      14.788  16.248  -2.745  0.00  0.00     0.011 A 
ATOM     20  C   UNL d   1      15.050  17.023  -2.831  0.00  0.00     0.001 A 
ATOM     21  C   UNL d   1      15.025  17.387  -3.569  0.00  0.00     0.000 A 
ATOM     22  C   UNL d   1      14.737  16.976  -4.221  0.00  0.00     0.001 A 
ATOM     23  C   UNL d   1      15.287  18.161  -3.656  0.00  0.00     0.000 C 
ATOM     24  C   UNL d   1      14.470  16.192  -4.139  0.00  0.00     0.011 A 
ENDBRANCH  15  18
ENDBRANCH   1  15
BRANCH   2  25
ATOM     25  N   UNL d   1      12.898  12.606  -4.214  0.00  0.00    -0.120 NA
ATOM     26  C   UNL d   1      13.193  12.334  -4.937  0.00  0.00     0.295 C 
ATOM     27  O   UNL d   1      12.769  11.780  -5.365  0.00  0.00    -0.264 OA
BRANCH  26  28
ATOM     28  C   UNL d   1      13.911  12.621  -5.225  0.00  0.00     0.059 A 
ATOM     29  C   UNL d   1      14.353  13.233  -5.565  0.00  0.00     0.005 A 
ATOM     30  C   UNL d   1      14.712  12.512  -5.386  0.00  0.00     0.005 A 
ENDBRANCH  26  28
ENDBRANCH   2  25
TORSDOF 4
ENDMDL
