MODEL 1
REMARK VINA RESULT:      16.3      0.000      0.000
REMARK  8 active torsions:
REMARK  status: ('A' for Active; 'I' for Inactive)
REMARK    1  A    between atoms: C_2  and  P_1 
REMARK    2  A    between atoms: O_4  and  P_1 
REMARK    3  A    between atoms: C_5  and  P_1 
REMARK    4  A    between atoms: C_3  and  C_2 
REMARK    5  A    between atoms: C_20  and  O_4 
REMARK    6  A    between atoms: O_19  and  C_8 
REMARK    7  A    between atoms: N_11  and  C_9 
REMARK    8  A    between atoms: O_21  and  C_10 
ROOT
ATOM      1  P   UNL d   1     -42.527-122.449 -51.055  0.00  0.00     0.307 P 
ATOM      2  O   UNL d   1     -43.226-122.117 -51.335  0.00  0.00    -0.277 OA
ENDROOT
BRANCH   1   3
ATOM      3  C   UNL d   1     -41.829-122.782 -50.775  0.00  0.00     0.253 C 
ATOM      4  O   UNL d   1     -41.219-122.993 -51.300  0.00  0.00    -0.281 OA
BRANCH   3   5
ATOM      5  C   UNL d   1     -41.723-122.913 -49.961  0.00  0.00     0.046 A 
ATOM      6  C   UNL d   1     -41.507-122.293 -49.464  0.00  0.00     0.030 A 
ATOM      7  C   UNL d   1     -41.404-122.428 -48.665  0.00  0.00     0.116 A 
ATOM      8  C   UNL d   1     -41.512-123.184 -48.337  0.00  0.00     0.116 A 
ATOM      9  C   UNL d   1     -41.730-123.812 -48.841  0.00  0.00     0.026 A 
ATOM     10  C   UNL d   1     -41.835-123.674 -49.653  0.00  0.00     0.005 A 
BRANCH   7  11
ATOM     11  O   UNL d   1     -41.189-121.807 -48.171  0.00  0.00    -0.326 OA
ATOM     12  C   UNL d   1     -41.148-121.039 -48.469  0.00  0.00     0.181 C 
ENDBRANCH   7  11
BRANCH   8  13
ATOM     13  O   UNL d   1     -41.408-123.321 -47.534  0.00  0.00    -0.326 OA
ATOM     14  C   UNL d   1     -42.011-123.688 -47.111  0.00  0.00     0.181 C 
ENDBRANCH   8  13
ENDBRANCH   3   5
ENDBRANCH   1   3
BRANCH   1  15
ATOM     15  O   UNL d   1     -42.826-122.429 -50.289  0.00  0.00    -0.281 OA
BRANCH  15  16
ATOM     16  C   UNL d   1     -43.608-122.224 -50.155  0.00  0.00     0.101 A 
ATOM     17  C   UNL d   1     -43.859-121.442 -50.280  0.00  0.00     0.025 A 
ATOM     18  C   UNL d   1     -44.638-121.236 -50.147  0.00  0.00     0.002 A 
ATOM     19  C   UNL d   1     -45.176-121.801 -49.888  0.00  0.00     0.000 A 
ATOM     20  C   UNL d   1     -44.934-122.578 -49.762  0.00  0.00     0.002 A 
ATOM     21  C   UNL d   1     -44.142-122.789 -49.897  0.00  0.00     0.025 A 
ENDBRANCH  15  16
ENDBRANCH   1  15
BRANCH   1  22
ATOM     22  C   UNL d   1     -42.227-122.470 -51.829  0.00  0.00     0.061 A 
ATOM     23  C   UNL d   1     -41.555-122.030 -52.019  0.00  0.00     0.007 A 
ATOM     24  C   UNL d   1     -41.253-122.050 -52.796  0.00  0.00     0.018 A 
ATOM     25  C   UNL d   1     -41.620-122.505 -53.371  0.00  0.00     0.064 A 
ATOM     26  C   UNL d   1     -42.295-122.944 -53.173  0.00  0.00     0.018 A 
ATOM     27  C   UNL d   1     -42.598-122.924 -52.395  0.00  0.00     0.007 A 
BRANCH  25  28
ATOM     28  N   UNL d   1     -41.321-122.524 -54.140  0.00  0.00    -0.301 N 
ATOM     29  C   UNL d   1     -41.123-123.244 -54.487  0.00  0.00     0.100 C 
ATOM     30  C   UNL d   1     -41.221-121.821 -54.559  0.00  0.00     0.100 C 
ENDBRANCH  25  28
ENDBRANCH   1  22
TORSDOF 8
ENDMDL
MODEL 2
REMARK VINA RESULT:      17.1      1.443      3.796
REMARK  8 active torsions:
REMARK  status: ('A' for Active; 'I' for Inactive)
REMARK    1  A    between atoms: C_2  and  P_1 
REMARK    2  A    between atoms: O_4  and  P_1 
REMARK    3  A    between atoms: C_5  and  P_1 
REMARK    4  A    between atoms: C_3  and  C_2 
REMARK    5  A    between atoms: C_20  and  O_4 
REMARK    6  A    between atoms: O_19  and  C_8 
REMARK    7  A    between atoms: N_11  and  C_9 
REMARK    8  A    between atoms: O_21  and  C_10 
ROOT
ATOM      1  P   UNL d   1     -42.446-122.771 -49.585  0.00  0.00     0.307 P 
ATOM      2  O   UNL d   1     -42.901-123.199 -49.049  0.00  0.00    -0.277 OA
ENDROOT
BRANCH   1   3
ATOM      3  C   UNL d   1     -41.991-122.343 -50.120  0.00  0.00     0.253 C 
ATOM      4  O   UNL d   1     -41.741-121.570 -49.942  0.00  0.00    -0.281 OA
BRANCH   3   5
ATOM      5  C   UNL d   1     -41.774-122.678 -50.849  0.00  0.00     0.046 A 
ATOM      6  C   UNL d   1     -41.784-122.224 -51.535  0.00  0.00     0.030 A 
ATOM      7  C   UNL d   1     -41.569-122.559 -52.250  0.00  0.00     0.116 A 
ATOM      8  C   UNL d   1     -41.339-123.356 -52.300  0.00  0.00     0.116 A 
ATOM      9  C   UNL d   1     -41.330-123.816 -51.604  0.00  0.00     0.026 A 
ATOM     10  C   UNL d   1     -41.548-123.475 -50.880  0.00  0.00     0.005 A 
BRANCH   7  11
ATOM     11  O   UNL d   1     -41.580-122.103 -52.933  0.00  0.00    -0.326 OA
ATOM     12  C   UNL d   1     -42.187-122.199 -53.482  0.00  0.00     0.181 C 
ENDBRANCH   7  11
BRANCH   8  13
ATOM     13  O   UNL d   1     -41.124-123.694 -53.017  0.00  0.00    -0.326 OA
ATOM     14  C   UNL d   1     -41.700-123.811 -53.592  0.00  0.00     0.181 C 
ENDBRANCH   8  13
ENDBRANCH   3   5
ENDBRANCH   1   3
BRANCH   1  15
ATOM     15  O   UNL d   1     -41.761-123.067 -49.239  0.00  0.00    -0.281 OA
BRANCH  15  16
ATOM     16  C   UNL d   1     -41.723-123.182 -48.428  0.00  0.00     0.101 A 
ATOM     17  C   UNL d   1     -42.256-123.698 -48.056  0.00  0.00     0.025 A 
ATOM     18  C   UNL d   1     -42.220-123.814 -47.249  0.00  0.00     0.002 A 
ATOM     19  C   UNL d   1     -41.655-123.419 -46.801  0.00  0.00     0.000 A 
ATOM     20  C   UNL d   1     -41.123-122.906 -47.162  0.00  0.00     0.002 A 
ATOM     21  C   UNL d   1     -41.159-122.787 -47.984  0.00  0.00     0.025 A 
ENDBRANCH  15  16
ENDBRANCH   1  15
BRANCH   1  22
ATOM     22  C   UNL d   1     -43.137-122.472 -49.933  0.00  0.00     0.061 A 
ATOM     23  C   UNL d   1     -43.299-121.664 -49.895  0.00  0.00     0.007 A 
ATOM     24  C   UNL d   1     -43.993-121.363 -50.245  0.00  0.00     0.018 A 
ATOM     25  C   UNL d   1     -44.516-121.867 -50.626  0.00  0.00     0.064 A 
ATOM     26  C   UNL d   1     -44.348-122.678 -50.661  0.00  0.00     0.018 A 
ATOM     27  C   UNL d   1     -43.652-122.979 -50.310  0.00  0.00     0.007 A 
BRANCH  25  28
ATOM     28  N   UNL d   1     -45.204-121.569 -50.973  0.00  0.00    -0.301 N 
ATOM     29  C   UNL d   1     -45.268-121.527 -51.792  0.00  0.00     0.100 C 
ATOM     30  C   UNL d   1     -45.825-121.313 -50.495  0.00  0.00     0.100 C 
ENDBRANCH  25  28
ENDBRANCH   1  22
TORSDOF 8
ENDMDL
MODEL 3
REMARK VINA RESULT:      17.4      1.960      3.243
REMARK  8 active torsions:
REMARK  status: ('A' for Active; 'I' for Inactive)
REMARK    1  A    between atoms: C_2  and  P_1 
REMARK    2  A    between atoms: O_4  and  P_1 
REMARK    3  A    between atoms: C_5  and  P_1 
REMARK    4  A    between atoms: C_3  and  C_2 
REMARK    5  A    between atoms: C_20  and  O_4 
REMARK    6  A    between atoms: O_19  and  C_8 
REMARK    7  A    between atoms: N_11  and  C_9 
REMARK    8  A    between atoms: O_21  and  C_10 
ROOT
ATOM      1  P   UNL d   1     -42.521-121.897 -52.339  0.00  0.00     0.307 P 
ATOM      2  O   UNL d   1     -43.285-122.201 -52.319  0.00  0.00    -0.277 OA
ENDROOT
BRANCH   1   3
ATOM      3  C   UNL d   1     -41.757-121.593 -52.359  0.00  0.00     0.253 C 
ATOM      4  O   UNL d   1     -41.126-122.048 -52.653  0.00  0.00    -0.281 OA
BRANCH   3   5
ATOM      5  C   UNL d   1     -41.604-120.823 -52.085  0.00  0.00     0.046 A 
ATOM      6  C   UNL d   1     -41.677-120.178 -52.591  0.00  0.00     0.030 A 
ATOM      7  C   UNL d   1     -41.525-119.424 -52.316  0.00  0.00     0.116 A 
ATOM      8  C   UNL d   1     -41.295-119.290 -51.528  0.00  0.00     0.116 A 
ATOM      9  C   UNL d   1     -41.221-119.944 -51.016  0.00  0.00     0.026 A 
ATOM     10  C   UNL d   1     -41.376-120.710 -51.296  0.00  0.00     0.005 A 
BRANCH   7  11
ATOM     11  O   UNL d   1     -41.599-118.782 -52.824  0.00  0.00    -0.326 OA
ATOM     12  C   UNL d   1     -41.431-118.870 -53.626  0.00  0.00     0.181 C 
ENDBRANCH   7  11
BRANCH   8  13
ATOM     13  O   UNL d   1     -41.142-118.533 -51.250  0.00  0.00    -0.326 OA
ATOM     14  C   UNL d   1     -41.376-118.333 -50.487  0.00  0.00     0.181 C 
ENDBRANCH   8  13
ENDBRANCH   3   5
ENDBRANCH   1   3
BRANCH   1  15
ATOM     15  O   UNL d   1     -42.538-121.802 -51.522  0.00  0.00    -0.281 OA
BRANCH  15  16
ATOM     16  C   UNL d   1     -42.703-122.440 -51.034  0.00  0.00     0.101 A 
ATOM     17  C   UNL d   1     -42.223-123.116 -51.059  0.00  0.00     0.025 A 
ATOM     18  C   UNL d   1     -42.386-123.752 -50.574  0.00  0.00     0.002 A 
ATOM     19  C   UNL d   1     -43.027-123.725 -50.059  0.00  0.00     0.000 A 
ATOM     20  C   UNL d   1     -43.507-123.058 -50.029  0.00  0.00     0.002 A 
ATOM     21  C   UNL d   1     -43.342-122.410 -50.522  0.00  0.00     0.025 A 
ENDBRANCH  15  16
ENDBRANCH   1  15
BRANCH   1  22
ATOM     22  C   UNL d   1     -42.504-121.993 -53.163  0.00  0.00     0.061 A 
ATOM     23  C   UNL d   1     -41.862-122.369 -53.519  0.00  0.00     0.007 A 
ATOM     24  C   UNL d   1     -41.844-122.466 -54.347  0.00  0.00     0.018 A 
ATOM     25  C   UNL d   1     -42.463-122.190 -54.808  0.00  0.00     0.064 A 
ATOM     26  C   UNL d   1     -43.106-121.814 -54.445  0.00  0.00     0.018 A 
ATOM     27  C   UNL d   1     -43.124-121.716 -53.616  0.00  0.00     0.007 A 
BRANCH  25  28
ATOM     28  N   UNL d   1     -42.446-122.286 -55.628  0.00  0.00    -0.301 N 
ATOM     29  C   UNL d   1     -41.727-122.280 -56.029  0.00  0.00     0.100 C 
ATOM     30  C   UNL d   1     -43.151-122.388 -56.044  0.00  0.00     0.100 C 
ENDBRANCH  25  28
ENDBRANCH   1  22
TORSDOF 8
ENDMDL
MODEL 4
REMARK VINA RESULT:      18.8      1.171      3.224
REMARK  8 active torsions:
REMARK  status: ('A' for Active; 'I' for Inactive)
REMARK    1  A    between atoms: C_2  and  P_1 
REMARK    2  A    between atoms: O_4  and  P_1 
REMARK    3  A    between atoms: C_5  and  P_1 
REMARK    4  A    between atoms: C_3  and  C_2 
REMARK    5  A    between atoms: C_20  and  O_4 
REMARK    6  A    between atoms: O_19  and  C_8 
REMARK    7  A    between atoms: N_11  and  C_9 
REMARK    8  A    between atoms: O_21  and  C_10 
ROOT
ATOM      1  P   UNL d   1     -42.228-122.591 -49.974  0.00  0.00     0.307 P 
ATOM      2  O   UNL d   1     -41.496-122.260 -49.793  0.00  0.00    -0.277 OA
ENDROOT
BRANCH   1   3
ATOM      3  C   UNL d   1     -42.959-122.920 -50.155  0.00  0.00     0.253 C 
ATOM      4  O   UNL d   1     -43.019-123.715 -50.393  0.00  0.00    -0.281 OA
BRANCH   3   5
ATOM      5  C   UNL d   1     -43.651-122.464 -50.102  0.00  0.00     0.046 A 
ATOM      6  C   UNL d   1     -44.364-122.752 -50.396  0.00  0.00     0.030 A 
ATOM      7  C   UNL d   1     -45.041-122.298 -50.342  0.00  0.00     0.116 A 
ATOM      8  C   UNL d   1     -45.028-121.544 -49.992  0.00  0.00     0.116 A 
ATOM      9  C   UNL d   1     -44.306-121.252 -49.693  0.00  0.00     0.026 A 
ATOM     10  C   UNL d   1     -43.618-121.714 -49.750  0.00  0.00     0.005 A 
BRANCH   7  11
ATOM     11  O   UNL d   1     -45.752-122.588 -50.636  0.00  0.00    -0.326 OA
ATOM     12  C   UNL d   1     -45.894-123.400 -50.640  0.00  0.00     0.181 C 
ENDBRANCH   7  11
BRANCH   8  13
ATOM     13  O   UNL d   1     -45.708-121.087 -49.936  0.00  0.00    -0.326 OA
ATOM     14  C   UNL d   1     -45.683-120.386 -49.504  0.00  0.00     0.181 C 
ENDBRANCH   8  13
ENDBRANCH   3   5
ENDBRANCH   1   3
BRANCH   1  15
ATOM     15  O   UNL d   1     -42.470-122.477 -49.197  0.00  0.00    -0.281 OA
BRANCH  15  16
ATOM     16  C   UNL d   1     -42.023-122.773 -48.576  0.00  0.00     0.101 A 
ATOM     17  C   UNL d   1     -41.649-123.511 -48.649  0.00  0.00     0.025 A 
ATOM     18  C   UNL d   1     -41.203-123.807 -48.033  0.00  0.00     0.002 A 
ATOM     19  C   UNL d   1     -41.124-123.376 -47.337  0.00  0.00     0.000 A 
ATOM     20  C   UNL d   1     -41.492-122.644 -47.257  0.00  0.00     0.002 A 
ATOM     21  C   UNL d   1     -41.946-122.342 -47.884  0.00  0.00     0.025 A 
ENDBRANCH  15  16
ENDBRANCH   1  15
BRANCH   1  22
ATOM     22  C   UNL d   1     -41.982-122.704 -50.759  0.00  0.00     0.061 A 
ATOM     23  C   UNL d   1     -41.671-123.433 -50.989  0.00  0.00     0.007 A 
ATOM     24  C   UNL d   1     -41.424-123.548 -51.777  0.00  0.00     0.018 A 
ATOM     25  C   UNL d   1     -41.489-122.940 -52.324  0.00  0.00     0.064 A 
ATOM     26  C   UNL d   1     -41.803-122.211 -52.086  0.00  0.00     0.018 A 
ATOM     27  C   UNL d   1     -42.051-122.095 -51.297  0.00  0.00     0.007 A 
BRANCH  25  28
ATOM     28  N   UNL d   1     -41.245-123.055 -53.104  0.00  0.00    -0.301 N 
ATOM     29  C   UNL d   1     -41.123-123.817 -53.390  0.00  0.00     0.100 C 
ATOM     30  C   UNL d   1     -41.123-122.403 -53.595  0.00  0.00     0.100 C 
ENDBRANCH  25  28
ENDBRANCH   1  22
TORSDOF 8
ENDMDL
