MODEL 1
REMARK VINA RESULT:      35.4      0.000      0.000
REMARK  3 active torsions:
REMARK  status: ('A' for Active; 'I' for Inactive)
REMARK    1  A    between atoms: N_2  and  S_1 
REMARK    2  A    between atoms: C_4  and  S_1 
REMARK    3  A    between atoms: C_11  and  C_3 
ROOT
ATOM      1  N   UNL d   1      15.233  12.454  -1.237  0.00  0.00    -0.213 N 
ATOM      2  C   UNL d   1      15.335  12.915  -0.555  0.00  0.00     0.157 A 
ATOM      3  N   UNL d   1      15.873  12.520  -0.068  0.00  0.00    -0.224 NA
ATOM      4  C   UNL d   1      15.706  11.781  -1.166  0.00  0.00     0.114 A 
ATOM      5  C   UNL d   1      16.100  11.825  -0.442  0.00  0.00     0.120 A 
ENDROOT
BRANCH   1   6
ATOM      6  S   UNL d   1      14.743  12.637  -1.874  0.00  0.00     0.273 S 
ATOM      7  O   UNL d   1      15.347  13.088  -2.209  0.00  0.00    -0.200 OA
ATOM      8  O   UNL d   1      14.141  12.189  -1.541  0.00  0.00    -0.200 OA
BRANCH   6   9
ATOM      9  C   UNL d   1      14.255  12.820  -2.510  0.00  0.00     0.104 A 
ATOM     10  C   UNL d   1      13.836  12.223  -2.901  0.00  0.00     0.015 A 
ATOM     11  C   UNL d   1      13.344  12.398  -3.540  0.00  0.00     0.028 A 
ATOM     12  C   UNL d   1      12.931  11.804  -3.924  0.00  0.00     0.002 C 
ATOM     13  C   UNL d   1      13.272  13.187  -3.789  0.00  0.00     0.140 A 
ATOM     14  C   UNL d   1      13.685  13.781  -3.405  0.00  0.00     0.030 A 
ATOM     15  F   UNL d   1      12.784  13.369  -4.425  0.00  0.00    -0.204 F 
ATOM     16  C   UNL d   1      14.175  13.598  -2.766  0.00  0.00     0.015 A 
ENDBRANCH   6   9
ENDBRANCH   1   6
BRANCH   2  17
ATOM     17  C   UNL d   1      14.968  13.635  -0.394  0.00  0.00     0.035 A 
ATOM     18  C   UNL d   1      15.396  14.340  -0.451  0.00  0.00     0.003 A 
ATOM     19  C   UNL d   1      15.031  15.062  -0.290  0.00  0.00     0.000 A 
ATOM     20  C   UNL d   1      14.236  15.077  -0.072  0.00  0.00     0.000 A 
ATOM     21  C   UNL d   1      13.808  14.371  -0.015  0.00  0.00     0.000 A 
ATOM     22  C   UNL d   1      14.175  13.652  -0.176  0.00  0.00     0.003 A 
ENDBRANCH   2  17
TORSDOF 3
ENDMDL
