MODEL 1
REMARK VINA RESULT:      -9.6      0.000      0.000
REMARK  5 active torsions:
REMARK  status: ('A' for Active; 'I' for Inactive)
REMARK    1  A    between atoms: C_11  and  N_1 
REMARK    2  A    between atoms: S_14  and  C_2 
REMARK    3  A    between atoms: C_12  and  C_3 
REMARK    4  A    between atoms: C_8  and  C_12 
REMARK    5  A    between atoms: C_20  and  S_14 
ROOT
ATOM      1  N   UNL d   1      53.090  32.249  53.437  0.00  0.00    -0.269 N 
ATOM      2  C   UNL d   1      52.984  31.447  53.373  0.00  0.00     0.201 A 
ATOM      3  C   UNL d   1      52.421  32.612  53.128  0.00  0.00     0.172 A 
ATOM      4  N   UNL d   1      52.265  31.295  53.030  0.00  0.00    -0.121 NA
ATOM      5  N   UNL d   1      51.911  32.024  52.876  0.00  0.00    -0.128 NA
ENDROOT
BRANCH   3   6
ATOM      6  C   UNL d   1      52.366  33.422  53.116  0.00  0.00     0.059 C 
BRANCH   6   7
ATOM      7  C   UNL d   1      51.697  33.779  52.800  0.00  0.00     0.094 A 
ATOM      8  C   UNL d   1      51.082  34.008  53.292  0.00  0.00     0.082 A 
ATOM      9  C   UNL d   1      50.411  34.366  52.971  0.00  0.00     0.285 A 
ATOM     10  O   UNL d   1      49.776  34.602  53.472  0.00  0.00    -0.265 OA
ATOM     11  N   UNL d   1      50.369  34.490  52.148  0.00  0.00    -0.152 NA
ATOM     12  C   UNL d   1      50.982  34.261  51.663  0.00  0.00     0.371 A 
ATOM     13  N   UNL d   1      51.655  33.901  51.992  0.00  0.00    -0.191 NA
ATOM     14  O   UNL d   1      50.930  34.389  50.848  0.00  0.00    -0.242 OA
ENDBRANCH   6   7
ENDBRANCH   3   6
BRANCH   1  15
ATOM     15  C   UNL d   1      53.756  32.599  53.759  0.00  0.00     0.067 A 
ATOM     16  C   UNL d   1      53.772  32.790  54.564  0.00  0.00     0.018 A 
ATOM     17  C   UNL d   1      54.450  33.146  54.892  0.00  0.00     0.001 A 
ATOM     18  C   UNL d   1      54.467  33.339  55.709  0.00  0.00     0.000 C 
ATOM     19  C   UNL d   1      55.098  33.305  54.411  0.00  0.00     0.000 A 
ATOM     20  C   UNL d   1      55.077  33.113  53.607  0.00  0.00     0.002 A 
ATOM     21  C   UNL d   1      54.407  32.761  53.284  0.00  0.00     0.018 A 
ENDBRANCH   1  15
BRANCH   2  22
ATOM     22  S   UNL d   1      53.541  30.868  53.626  0.00  0.00    -0.048 SA
BRANCH  22  23
ATOM     23  C   UNL d   1      53.343  30.059  53.575  0.00  0.00     0.032 C 
ATOM     24  C   UNL d   1      53.271  29.700  52.832  0.00  0.00     0.007 C 
ATOM     25  C   UNL d   1      53.220  29.626  54.267  0.00  0.00     0.007 C 
ENDBRANCH  22  23
ENDBRANCH   2  22
TORSDOF 5
ENDMDL
MODEL 2
REMARK VINA RESULT:      -9.2      2.094      3.809
REMARK  5 active torsions:
REMARK  status: ('A' for Active; 'I' for Inactive)
REMARK    1  A    between atoms: C_11  and  N_1 
REMARK    2  A    between atoms: S_14  and  C_2 
REMARK    3  A    between atoms: C_12  and  C_3 
REMARK    4  A    between atoms: C_8  and  C_12 
REMARK    5  A    between atoms: C_20  and  S_14 
ROOT
ATOM      1  N   UNL d   1      53.256  32.593  53.550  0.00  0.00    -0.269 N 
ATOM      2  C   UNL d   1      52.629  33.034  53.282  0.00  0.00     0.201 A 
ATOM      3  C   UNL d   1      53.073  31.802  53.422  0.00  0.00     0.172 A 
ATOM      4  N   UNL d   1      52.056  32.540  52.988  0.00  0.00    -0.121 NA
ATOM      5  N   UNL d   1      52.333  31.769  53.075  0.00  0.00    -0.128 NA
ENDROOT
BRANCH   3   6
ATOM      6  C   UNL d   1      53.601  31.224  53.637  0.00  0.00     0.059 C 
BRANCH   6   7
ATOM      7  C   UNL d   1      53.344  30.447  53.710  0.00  0.00     0.094 A 
ATOM      8  C   UNL d   1      53.027  30.055  53.063  0.00  0.00     0.082 A 
ATOM      9  C   UNL d   1      52.769  29.275  53.141  0.00  0.00     0.285 A 
ATOM     10  O   UNL d   1      52.443  28.868  52.479  0.00  0.00    -0.265 OA
ATOM     11  N   UNL d   1      52.835  28.896  53.880  0.00  0.00    -0.152 NA
ATOM     12  C   UNL d   1      53.150  29.288  54.521  0.00  0.00     0.371 A 
ATOM     13  N   UNL d   1      53.408  30.074  54.436  0.00  0.00    -0.191 NA
ATOM     14  O   UNL d   1      53.210  28.902  55.249  0.00  0.00    -0.242 OA
ENDBRANCH   6   7
ENDBRANCH   3   6
BRANCH   1  15
ATOM     15  C   UNL d   1      53.932  32.913  53.883  0.00  0.00     0.067 A 
ATOM     16  C   UNL d   1      53.950  33.082  54.693  0.00  0.00     0.018 A 
ATOM     17  C   UNL d   1      54.638  33.407  55.032  0.00  0.00     0.001 A 
ATOM     18  C   UNL d   1      54.658  33.579  55.854  0.00  0.00     0.000 C 
ATOM     19  C   UNL d   1      55.294  33.557  54.558  0.00  0.00     0.000 A 
ATOM     20  C   UNL d   1      55.270  33.386  53.749  0.00  0.00     0.002 A 
ATOM     21  C   UNL d   1      54.589  33.064  53.414  0.00  0.00     0.018 A 
ENDBRANCH   1  15
BRANCH   2  22
ATOM     22  S   UNL d   1      52.588  33.875  53.309  0.00  0.00    -0.048 SA
BRANCH  22  23
ATOM     23  C   UNL d   1      51.930  34.264  52.975  0.00  0.00     0.032 C 
ATOM     24  C   UNL d   1      51.293  34.484  53.457  0.00  0.00     0.007 C 
ATOM     25  C   UNL d   1      51.920  34.426  52.165  0.00  0.00     0.007 C 
ENDBRANCH  22  23
ENDBRANCH   2  22
TORSDOF 5
ENDMDL
MODEL 3
REMARK VINA RESULT:      -7.6      0.960      2.365
REMARK  5 active torsions:
REMARK  status: ('A' for Active; 'I' for Inactive)
REMARK    1  A    between atoms: C_11  and  N_1 
REMARK    2  A    between atoms: S_14  and  C_2 
REMARK    3  A    between atoms: C_12  and  C_3 
REMARK    4  A    between atoms: C_8  and  C_12 
REMARK    5  A    between atoms: C_20  and  S_14 
ROOT
ATOM      1  N   UNL d   1      53.244  32.767  53.917  0.00  0.00    -0.269 N 
ATOM      2  C   UNL d   1      53.734  33.218  54.381  0.00  0.00     0.201 A 
ATOM      3  C   UNL d   1      52.602  33.234  53.708  0.00  0.00     0.172 A 
ATOM      4  N   UNL d   1      53.415  33.959  54.470  0.00  0.00    -0.121 NA
ATOM      5  N   UNL d   1      52.707  33.970  54.049  0.00  0.00    -0.128 NA
ENDROOT
BRANCH   3   6
ATOM      6  C   UNL d   1      52.013  32.929  53.239  0.00  0.00     0.059 C 
BRANCH   6   7
ATOM      7  C   UNL d   1      51.489  33.439  52.864  0.00  0.00     0.094 A 
ATOM      8  C   UNL d   1      50.825  33.712  53.260  0.00  0.00     0.082 A 
ATOM      9  C   UNL d   1      50.301  34.223  52.880  0.00  0.00     0.285 A 
ATOM     10  O   UNL d   1      49.618  34.507  53.283  0.00  0.00    -0.265 OA
ATOM     11  N   UNL d   1      50.456  34.456  52.095  0.00  0.00    -0.152 NA
ATOM     12  C   UNL d   1      51.117  34.182  51.704  0.00  0.00     0.371 A 
ATOM     13  N   UNL d   1      51.640  33.667  52.093  0.00  0.00    -0.191 NA
ATOM     14  O   UNL d   1      51.260  34.419  50.926  0.00  0.00    -0.242 OA
ENDBRANCH   6   7
ENDBRANCH   3   6
BRANCH   1  15
ATOM     15  C   UNL d   1      53.396  31.988  53.714  0.00  0.00     0.067 A 
ATOM     16  C   UNL d   1      53.120  31.376  54.199  0.00  0.00     0.018 A 
ATOM     17  C   UNL d   1      53.273  30.584  53.993  0.00  0.00     0.001 A 
ATOM     18  C   UNL d   1      52.993  29.963  54.484  0.00  0.00     0.000 C 
ATOM     19  C   UNL d   1      53.698  30.417  53.308  0.00  0.00     0.000 A 
ATOM     20  C   UNL d   1      53.971  31.032  52.828  0.00  0.00     0.002 A 
ATOM     21  C   UNL d   1      53.819  31.815  53.032  0.00  0.00     0.018 A 
ENDBRANCH   1  15
BRANCH   2  22
ATOM     22  S   UNL d   1      54.459  32.951  54.716  0.00  0.00    -0.048 SA
BRANCH  22  23
ATOM     23  C   UNL d   1      54.926  33.482  55.159  0.00  0.00     0.032 C 
ATOM     24  C   UNL d   1      55.533  33.905  54.788  0.00  0.00     0.007 C 
ATOM     25  C   UNL d   1      54.776  33.579  55.965  0.00  0.00     0.007 C 
ENDBRANCH  22  23
ENDBRANCH   2  22
TORSDOF 5
ENDMDL
MODEL 4
REMARK VINA RESULT:      -7.0      2.186      4.241
REMARK  5 active torsions:
REMARK  status: ('A' for Active; 'I' for Inactive)
REMARK    1  A    between atoms: C_11  and  N_1 
REMARK    2  A    between atoms: S_14  and  C_2 
REMARK    3  A    between atoms: C_12  and  C_3 
REMARK    4  A    between atoms: C_8  and  C_12 
REMARK    5  A    between atoms: C_20  and  S_14 
ROOT
ATOM      1  N   UNL d   1      52.450  33.556  53.356  0.00  0.00    -0.269 N 
ATOM      2  C   UNL d   1      52.815  34.015  53.917  0.00  0.00     0.201 A 
ATOM      3  C   UNL d   1      52.767  32.800  53.411  0.00  0.00     0.172 A 
ATOM      4  N   UNL d   1      53.355  33.566  54.325  0.00  0.00    -0.121 NA
ATOM      5  N   UNL d   1      53.325  32.806  54.008  0.00  0.00    -0.128 NA
ENDROOT
BRANCH   3   6
ATOM      6  C   UNL d   1      52.507  32.214  52.913  0.00  0.00     0.059 C 
BRANCH   6   7
ATOM      7  C   UNL d   1      52.688  31.430  53.082  0.00  0.00     0.094 A 
ATOM      8  C   UNL d   1      53.464  31.170  53.045  0.00  0.00     0.082 A 
ATOM      9  C   UNL d   1      53.643  30.382  53.215  0.00  0.00     0.285 A 
ATOM     10  O   UNL d   1      54.439  30.110  53.179  0.00  0.00    -0.265 OA
ATOM     11  N   UNL d   1      53.026  29.860  53.422  0.00  0.00    -0.152 NA
ATOM     12  C   UNL d   1      52.256  30.122  53.457  0.00  0.00     0.371 A 
ATOM     13  N   UNL d   1      52.083  30.917  53.285  0.00  0.00    -0.191 NA
ATOM     14  O   UNL d   1      51.653  29.596  53.663  0.00  0.00    -0.242 OA
ENDBRANCH   6   7
ENDBRANCH   3   6
BRANCH   1  15
ATOM     15  C   UNL d   1      51.873  33.831  52.844  0.00  0.00     0.067 A 
ATOM     16  C   UNL d   1      51.086  33.871  53.097  0.00  0.00     0.018 A 
ATOM     17  C   UNL d   1      50.499  34.151  52.577  0.00  0.00     0.001 A 
ATOM     18  C   UNL d   1      49.699  34.192  52.832  0.00  0.00     0.000 C 
ATOM     19  C   UNL d   1      50.707  34.384  51.815  0.00  0.00     0.000 A 
ATOM     20  C   UNL d   1      51.495  34.342  51.569  0.00  0.00     0.002 A 
ATOM     21  C   UNL d   1      52.075  34.065  52.083  0.00  0.00     0.018 A 
ENDBRANCH   1  15
BRANCH   2  22
ATOM     22  S   UNL d   1      52.653  34.831  54.050  0.00  0.00    -0.048 SA
BRANCH  22  23
ATOM     23  C   UNL d   1      53.129  35.262  54.583  0.00  0.00     0.032 C 
ATOM     24  C   UNL d   1      53.110  35.082  55.390  0.00  0.00     0.007 C 
ATOM     25  C   UNL d   1      53.615  35.865  54.297  0.00  0.00     0.007 C 
ENDBRANCH  22  23
ENDBRANCH   2  22
TORSDOF 5
ENDMDL
