MODEL 1
REMARK VINA RESULT:      32.4      0.000      0.000
REMARK  5 active torsions:
REMARK  status: ('A' for Active; 'I' for Inactive)
REMARK    1  A    between atoms: N_2  and  C_1 
REMARK    2  A    between atoms: C_6  and  C_1 
REMARK    3  A    between atoms: O_4  and  N_2 
REMARK    4  A    between atoms: C_3  and  O_4 
REMARK    5  A    between atoms: C_5  and  C_3 
ROOT
ATOM      1  O   UNL d   1     -51.164  25.218  33.896  0.00  0.00    -0.168 OA
ENDROOT
BRANCH   1   2
ATOM      2  C   UNL d   1     -51.405  24.358  33.719  0.00  0.00     0.319 C 
ATOM      3  O   UNL d   1     -50.787  23.711  33.668  0.00  0.00    -0.257 OA
BRANCH   2   4
ATOM      4  C   UNL d   1     -52.204  24.170  33.604  0.00  0.00     0.066 A 
ATOM      5  C   UNL d   1     -52.768  24.780  33.631  0.00  0.00     0.012 A 
ATOM      6  C   UNL d   1     -53.567  24.580  33.514  0.00  0.00     0.035 A 
ATOM      7 BR   UNL d   1     -54.128  25.189  33.542  0.00  0.00    -0.049 Br
ATOM      8  C   UNL d   1     -53.798  23.803  33.375  0.00  0.00     0.007 A 
ATOM      9  C   UNL d   1     -53.214  23.222  33.354  0.00  0.00     0.001 A 
ATOM     10  C   UNL d   1     -52.435  23.395  33.465  0.00  0.00     0.005 A 
ENDBRANCH   2   4
ENDBRANCH   1   2
BRANCH   1  11
ATOM     11  N   UNL d   1     -50.866  25.700  33.311  0.00  0.00    -0.100 NA
BRANCH  11  12
ATOM     12  C   UNL d   1     -50.267  26.239  33.463  0.00  0.00     0.228 C 
ATOM     13  N   UNL d   1     -49.520  25.960  33.666  0.00  0.00    -0.123 N 
BRANCH  12  14
ATOM     14  C   UNL d   1     -50.393  27.045  33.419  0.00  0.00     0.121 A 
ATOM     15  N   UNL d   1     -49.762  27.559  33.397  0.00  0.00    -0.241 NA
ATOM     16  C   UNL d   1     -49.897  28.380  33.351  0.00  0.00     0.099 A 
ATOM     17  C   UNL d   1     -50.672  28.666  33.328  0.00  0.00     0.021 A 
ATOM     18  C   UNL d   1     -51.313  28.141  33.351  0.00  0.00     0.003 A 
ATOM     19  C   UNL d   1     -51.167  27.331  33.396  0.00  0.00     0.022 A 
ENDBRANCH  12  14
ENDBRANCH  11  12
ENDBRANCH   1  11
TORSDOF 5
ENDMDL
MODEL 2
REMARK VINA RESULT:      34.9      1.891      4.397
REMARK  5 active torsions:
REMARK  status: ('A' for Active; 'I' for Inactive)
REMARK    1  A    between atoms: N_2  and  C_1 
REMARK    2  A    between atoms: C_6  and  C_1 
REMARK    3  A    between atoms: O_4  and  N_2 
REMARK    4  A    between atoms: C_3  and  O_4 
REMARK    5  A    between atoms: C_5  and  C_3 
ROOT
ATOM      1  O   UNL d   1     -51.039  25.157  33.598  0.00  0.00    -0.168 OA
ENDROOT
BRANCH   1   2
ATOM      2  C   UNL d   1     -50.957  26.064  33.573  0.00  0.00     0.319 C 
ATOM      3  O   UNL d   1     -51.680  26.587  33.480  0.00  0.00    -0.257 OA
BRANCH   2   4
ATOM      4  C   UNL d   1     -50.207  26.411  33.638  0.00  0.00     0.066 A 
ATOM      5  C   UNL d   1     -50.139  27.150  34.013  0.00  0.00     0.012 A 
ATOM      6  C   UNL d   1     -49.382  27.490  34.073  0.00  0.00     0.035 A 
ATOM      7 BR   UNL d   1     -49.315  28.226  34.446  0.00  0.00    -0.049 Br
ATOM      8  C   UNL d   1     -48.716  27.110  33.772  0.00  0.00     0.007 A 
ATOM      9  C   UNL d   1     -48.819  26.379  33.407  0.00  0.00     0.001 A 
ATOM     10  C   UNL d   1     -49.544  26.033  33.339  0.00  0.00     0.005 A 
ENDBRANCH   2   4
ENDBRANCH   1   2
BRANCH   1  11
ATOM     11  N   UNL d   1     -51.751  24.795  33.435  0.00  0.00    -0.100 NA
BRANCH  11  12
ATOM     12  C   UNL d   1     -51.881  24.007  33.616  0.00  0.00     0.228 C 
ATOM     13  N   UNL d   1     -51.261  23.471  33.544  0.00  0.00    -0.123 N 
BRANCH  12  14
ATOM     14  C   UNL d   1     -52.612  23.740  33.865  0.00  0.00     0.121 A 
ATOM     15  N   UNL d   1     -52.750  23.598  34.655  0.00  0.00    -0.241 NA
ATOM     16  C   UNL d   1     -53.497  23.325  34.903  0.00  0.00     0.099 A 
ATOM     17  C   UNL d   1     -54.094  23.201  34.345  0.00  0.00     0.021 A 
ATOM     18  C   UNL d   1     -53.951  23.346  33.542  0.00  0.00     0.003 A 
ATOM     19  C   UNL d   1     -53.208  23.615  33.307  0.00  0.00     0.022 A 
ENDBRANCH  12  14
ENDBRANCH  11  12
ENDBRANCH   1  11
TORSDOF 5
ENDMDL
