MODEL 1
REMARK VINA RESULT:      66.8      0.000      0.000
REMARK  6 active torsions:
REMARK  status: ('A' for Active; 'I' for Inactive)
REMARK    1  A    between atoms: N_2  and  S_1 
REMARK    2  A    between atoms: C_6  and  S_1 
REMARK    3  A    between atoms: N_4  and  C_3 
REMARK       I    between atoms: C_5  and  N_4 
REMARK       I    between atoms: N_10  and  C_5 
REMARK    4  A    between atoms: C_7  and  C_11 
REMARK    5  A    between atoms: O_20  and  C_7 
REMARK    6  A    between atoms: C_14  and  N_10 
ROOT
ATOM      1  N   UNL d   1      46.210 -18.961  42.479  0.00  0.00    -0.214 N 
ATOM      2  C   UNL d   1      46.088 -19.160  41.680  0.00  0.00     0.162 A 
ATOM      3  C   UNL d   1      46.552 -19.618  42.854  0.00  0.00     0.093 A 
ATOM      4  C   UNL d   1      46.355 -19.938  41.565  0.00  0.00     0.040 A 
ATOM      5  C   UNL d   1      46.637 -20.215  42.282  0.00  0.00     0.023 A 
ENDROOT
BRANCH   2   6
ATOM      6  N   UNL d   1      45.754 -18.657  41.100  0.00  0.00    -0.173 NA
ATOM      7  C   UNL d   1      44.937 -18.629  41.009  0.00  0.00     0.370 C 
ATOM      8  N   UNL d   1      44.604 -18.132  40.435  0.00  0.00    -0.191 NA
ATOM      9  O   UNL d   1      44.442 -19.091  41.482  0.00  0.00    -0.242 OA
BRANCH   8  10
ATOM     10  C   UNL d   1      45.091 -17.668  39.959  0.00  0.00     0.086 A 
ATOM     11  C   UNL d   1      44.763 -17.217  39.350  0.00  0.00     0.025 A 
ATOM     12  C   UNL d   1      45.250 -16.753  38.874  0.00  0.00     0.065 A 
ATOM     13  C   UNL d   1      46.068 -16.740  39.007  0.00  0.00     0.005 A 
ATOM     14  C   UNL d   1      46.391 -17.191  39.616  0.00  0.00     0.002 A 
ATOM     15  C   UNL d   1      45.905 -17.655  40.092  0.00  0.00     0.019 A 
BRANCH  12  16
ATOM     16  C   UNL d   1      44.914 -16.304  38.266  0.00  0.00     0.296 C 
ATOM     17  O   UNL d   1      44.987 -15.491  38.257  0.00  0.00    -0.259 OA
BRANCH  16  18
ATOM     18  O   UNL d   1      44.501 -16.689  37.662  0.00  0.00    -0.296 OA
ATOM     19  C   UNL d   1      44.526 -16.408  36.895  0.00  0.00     0.185 C 
ENDBRANCH  16  18
ENDBRANCH  12  16
ENDBRANCH   8  10
ENDBRANCH   2   6
BRANCH   1  20
ATOM     20  S   UNL d   1      46.059 -18.281  42.914  0.00  0.00     0.272 S 
ATOM     21  O   UNL d   1      45.506 -18.651  43.356  0.00  0.00    -0.200 OA
ATOM     22  O   UNL d   1      46.621 -17.868  42.480  0.00  0.00    -0.200 OA
BRANCH  20  23
ATOM     23  C   UNL d   1      45.899 -17.594  43.362  0.00  0.00     0.104 A 
ATOM     24  C   UNL d   1      46.243 -16.876  43.154  0.00  0.00     0.014 A 
ATOM     25  C   UNL d   1      46.082 -16.209  43.596  0.00  0.00     0.012 A 
ATOM     26  C   UNL d   1      45.575 -16.247  44.255  0.00  0.00     0.058 A 
ATOM     27  C   UNL d   1      45.231 -16.965  44.462  0.00  0.00     0.012 A 
ATOM     28 CL   UNL d   1      45.414 -15.569  44.701  0.00  0.00    -0.082 Cl
ATOM     29  C   UNL d   1      45.393 -17.648  44.013  0.00  0.00     0.014 A 
ENDBRANCH  20  23
ENDBRANCH   1  20
TORSDOF 6
ENDMDL
