MODEL 1
REMARK VINA RESULT:      -7.2      0.000      0.000
REMARK  7 active torsions:
REMARK  status: ('A' for Active; 'I' for Inactive)
REMARK    1  A    between atoms: C_10  and  N_1 
REMARK    2  A    between atoms: S_12  and  C_2 
REMARK    3  A    between atoms: S_3  and  N_11 
REMARK    4  A    between atoms: C_7  and  S_3 
REMARK    5  A    between atoms: N_11  and  C_15 
REMARK    6  A    between atoms: C_19  and  S_12 
REMARK    7  A    between atoms: C_15  and  C_19 
ROOT
ATOM      1  C   UNL d   1     -48.035  14.436  22.906  0.00  0.00     0.060 C 
ENDROOT
BRANCH   1   2
ATOM      2  C   UNL d   1     -47.462  13.945  23.200  0.00  0.00     0.119 C 
BRANCH   2   3
ATOM      3  N   UNL d   1     -46.810  13.724  22.733  0.00  0.00    -0.156 NA
BRANCH   3   4
ATOM      4  S   UNL d   1     -46.404  13.025  22.896  0.00  0.00     0.285 S 
ATOM      5  O   UNL d   1     -46.137  13.344  23.643  0.00  0.00    -0.198 OA
ATOM      6  O   UNL d   1     -46.650  12.691  22.174  0.00  0.00    -0.198 OA
BRANCH   4   7
ATOM      7  C   UNL d   1     -45.982  12.317  23.079  0.00  0.00     0.105 A 
ATOM      8  C   UNL d   1     -46.364  11.743  23.514  0.00  0.00     0.013 A 
ATOM      9  C   UNL d   1     -45.969  11.056  23.698  0.00  0.00     0.001 A 
ATOM     10  C   UNL d   1     -45.185  10.941  23.444  0.00  0.00     0.000 A 
ATOM     11  C   UNL d   1     -44.821  11.523  23.011  0.00  0.00     0.001 A 
ATOM     12  C   UNL d   1     -44.781  10.230  23.635  0.00  0.00     0.000 C 
ATOM     13  C   UNL d   1     -45.199  12.202  22.825  0.00  0.00     0.013 A 
ENDBRANCH   4   7
ENDBRANCH   3   4
ENDBRANCH   2   3
ENDBRANCH   1   2
BRANCH   1  14
ATOM     14  S   UNL d   1     -48.812  14.276  23.012  0.00  0.00    -0.045 SA
BRANCH  14  15
ATOM     15  C   UNL d   1     -49.386  14.837  22.839  0.00  0.00     0.219 A 
ATOM     16  N   UNL d   1     -50.158  14.610  22.775  0.00  0.00    -0.186 N 
ATOM     17  N   UNL d   1     -50.612  15.279  22.600  0.00  0.00    -0.038 NA
ATOM     18  N   UNL d   1     -50.096  15.906  22.563  0.00  0.00    -0.022 NA
ATOM     19  N   UNL d   1     -49.358  15.651  22.705  0.00  0.00    -0.101 NA
BRANCH  16  20
ATOM     20  C   UNL d   1     -50.439  13.841  22.868  0.00  0.00     0.087 A 
ATOM     21  C   UNL d   1     -50.639  13.552  23.608  0.00  0.00     0.019 A 
ATOM     22  C   UNL d   1     -50.923  12.773  23.697  0.00  0.00     0.002 A 
ATOM     23  C   UNL d   1     -51.006  12.283  23.039  0.00  0.00     0.000 A 
ATOM     24  C   UNL d   1     -50.802  12.581  22.294  0.00  0.00     0.002 A 
ATOM     25  C   UNL d   1     -50.519  13.357  22.205  0.00  0.00     0.019 A 
ENDBRANCH  16  20
ENDBRANCH  14  15
ENDBRANCH   1  14
TORSDOF 7
ENDMDL
MODEL 2
REMARK VINA RESULT:      -6.8      1.717      2.315
REMARK  7 active torsions:
REMARK  status: ('A' for Active; 'I' for Inactive)
REMARK    1  A    between atoms: C_10  and  N_1 
REMARK    2  A    between atoms: S_12  and  C_2 
REMARK    3  A    between atoms: S_3  and  N_11 
REMARK    4  A    between atoms: C_7  and  S_3 
REMARK    5  A    between atoms: N_11  and  C_15 
REMARK    6  A    between atoms: C_19  and  S_12 
REMARK    7  A    between atoms: C_15  and  C_19 
ROOT
ATOM      1  C   UNL d   1     -48.131  12.480  23.277  0.00  0.00     0.060 C 
ENDROOT
BRANCH   1   2
ATOM      2  C   UNL d   1     -47.480  12.666  22.831  0.00  0.00     0.119 C 
BRANCH   2   3
ATOM      3  N   UNL d   1     -46.808  13.009  23.181  0.00  0.00    -0.156 NA
BRANCH   3   4
ATOM      4  S   UNL d   1     -46.071  12.935  22.818  0.00  0.00     0.285 S 
ATOM      5  O   UNL d   1     -45.835  12.353  23.399  0.00  0.00    -0.198 OA
ATOM      6  O   UNL d   1     -46.277  13.498  22.242  0.00  0.00    -0.198 OA
BRANCH   4   7
ATOM      7  C   UNL d   1     -45.312  12.846  22.460  0.00  0.00     0.105 A 
ATOM      8  C   UNL d   1     -44.863  12.197  22.664  0.00  0.00     0.013 A 
ATOM      9  C   UNL d   1     -44.129  12.099  22.326  0.00  0.00     0.001 A 
ATOM     10  C   UNL d   1     -43.842  12.656  21.779  0.00  0.00     0.000 A 
ATOM     11  C   UNL d   1     -44.302  13.297  21.588  0.00  0.00     0.001 A 
ATOM     12  C   UNL d   1     -43.084  12.552  21.433  0.00  0.00     0.000 C 
ATOM     13  C   UNL d   1     -45.024  13.403  21.914  0.00  0.00     0.013 A 
ENDBRANCH   4   7
ENDBRANCH   3   4
ENDBRANCH   2   3
ENDBRANCH   1   2
BRANCH   1  14
ATOM     14  S   UNL d   1     -48.870  12.554  22.981  0.00  0.00    -0.045 SA
BRANCH  14  15
ATOM     15  C   UNL d   1     -49.473  12.049  23.220  0.00  0.00     0.219 A 
ATOM     16  N   UNL d   1     -50.240  12.242  23.061  0.00  0.00    -0.186 N 
ATOM     17  N   UNL d   1     -50.726  11.643  23.360  0.00  0.00    -0.038 NA
ATOM     18  N   UNL d   1     -50.234  11.092  23.698  0.00  0.00    -0.022 NA
ATOM     19  N   UNL d   1     -49.480  11.327  23.619  0.00  0.00    -0.101 NA
BRANCH  16  20
ATOM     20  C   UNL d   1     -50.490  12.922  22.668  0.00  0.00     0.087 A 
ATOM     21  C   UNL d   1     -50.724  13.588  23.084  0.00  0.00     0.019 A 
ATOM     22  C   UNL d   1     -50.976  14.273  22.682  0.00  0.00     0.002 A 
ATOM     23  C   UNL d   1     -50.994  14.289  21.858  0.00  0.00     0.000 A 
ATOM     24  C   UNL d   1     -50.756  13.613  21.443  0.00  0.00     0.002 A 
ATOM     25  C   UNL d   1     -50.505  12.930  21.844  0.00  0.00     0.019 A 
ENDBRANCH  16  20
ENDBRANCH  14  15
ENDBRANCH   1  14
TORSDOF 7
ENDMDL
MODEL 3
REMARK VINA RESULT:      -5.5      1.433      2.188
REMARK  7 active torsions:
REMARK  status: ('A' for Active; 'I' for Inactive)
REMARK    1  A    between atoms: C_10  and  N_1 
REMARK    2  A    between atoms: S_12  and  C_2 
REMARK    3  A    between atoms: S_3  and  N_11 
REMARK    4  A    between atoms: C_7  and  S_3 
REMARK    5  A    between atoms: N_11  and  C_15 
REMARK    6  A    between atoms: C_19  and  S_12 
REMARK    7  A    between atoms: C_15  and  C_19 
ROOT
ATOM      1  C   UNL d   1     -48.454  12.004  23.563  0.00  0.00     0.060 C 
ENDROOT
BRANCH   1   2
ATOM      2  C   UNL d   1     -47.752  11.697  23.299  0.00  0.00     0.119 C 
BRANCH   2   3
ATOM      3  N   UNL d   1     -47.041  12.116  23.397  0.00  0.00    -0.156 NA
BRANCH   3   4
ATOM      4  S   UNL d   1     -46.321  11.712  23.397  0.00  0.00     0.285 S 
ATOM      5  O   UNL d   1     -45.924  12.404  23.089  0.00  0.00    -0.198 OA
ATOM      6  O   UNL d   1     -46.684  11.026  23.696  0.00  0.00    -0.198 OA
BRANCH   4   7
ATOM      7  C   UNL d   1     -45.576  11.314  23.390  0.00  0.00     0.105 A 
ATOM      8  C   UNL d   1     -44.934  11.705  23.077  0.00  0.00     0.013 A 
ATOM      9  C   UNL d   1     -44.210  11.334  23.064  0.00  0.00     0.001 A 
ATOM     10  C   UNL d   1     -44.128  10.564  23.368  0.00  0.00     0.000 A 
ATOM     11  C   UNL d   1     -44.779  10.189  23.676  0.00  0.00     0.001 A 
ATOM     12  C   UNL d   1     -43.380  10.184  23.353  0.00  0.00     0.000 C 
ATOM     13  C   UNL d   1     -45.495  10.545  23.693  0.00  0.00     0.013 A 
ENDBRANCH   4   7
ENDBRANCH   3   4
ENDBRANCH   2   3
ENDBRANCH   1   2
BRANCH   1  14
ATOM     14  S   UNL d   1     -48.849  12.557  23.141  0.00  0.00    -0.045 SA
BRANCH  14  15
ATOM     15  C   UNL d   1     -49.665  12.520  23.055  0.00  0.00     0.219 A 
ATOM     16  N   UNL d   1     -50.076  13.187  22.865  0.00  0.00    -0.186 N 
ATOM     17  N   UNL d   1     -50.879  12.993  22.814  0.00  0.00    -0.038 NA
ATOM     18  N   UNL d   1     -50.936  12.198  22.977  0.00  0.00    -0.022 NA
ATOM     19  N   UNL d   1     -50.212  11.906  23.123  0.00  0.00    -0.101 NA
BRANCH  16  20
ATOM     20  C   UNL d   1     -49.747  13.933  22.744  0.00  0.00     0.087 A 
ATOM     21  C   UNL d   1     -49.712  14.482  23.352  0.00  0.00     0.019 A 
ATOM     22  C   UNL d   1     -49.378  15.235  23.225  0.00  0.00     0.002 A 
ATOM     23  C   UNL d   1     -49.078  15.438  22.484  0.00  0.00     0.000 A 
ATOM     24  C   UNL d   1     -49.117  14.879  21.874  0.00  0.00     0.002 A 
ATOM     25  C   UNL d   1     -49.450  14.128  22.001  0.00  0.00     0.019 A 
ENDBRANCH  16  20
ENDBRANCH  14  15
ENDBRANCH   1  14
TORSDOF 7
ENDMDL
MODEL 4
REMARK VINA RESULT:      -4.9      3.589      5.206
REMARK  7 active torsions:
REMARK  status: ('A' for Active; 'I' for Inactive)
REMARK    1  A    between atoms: C_10  and  N_1 
REMARK    2  A    between atoms: S_12  and  C_2 
REMARK    3  A    between atoms: S_3  and  N_11 
REMARK    4  A    between atoms: C_7  and  S_3 
REMARK    5  A    between atoms: N_11  and  C_15 
REMARK    6  A    between atoms: C_19  and  S_12 
REMARK    7  A    between atoms: C_15  and  C_19 
ROOT
ATOM      1  C   UNL d   1     -44.174  12.460  21.818  0.00  0.00     0.060 C 
ENDROOT
BRANCH   1   2
ATOM      2  C   UNL d   1     -43.647  13.010  21.542  0.00  0.00     0.119 C 
BRANCH   2   3
ATOM      3  N   UNL d   1     -42.916  12.776  21.220  0.00  0.00    -0.156 NA
BRANCH   3   4
ATOM      4  S   UNL d   1     -42.310  13.328  21.128  0.00  0.00     0.285 S 
ATOM      5  O   UNL d   1     -42.542  13.460  20.316  0.00  0.00    -0.198 OA
ATOM      6  O   UNL d   1     -42.064  13.218  21.915  0.00  0.00    -0.198 OA
BRANCH   4   7
ATOM      7  C   UNL d   1     -41.695  13.896  21.016  0.00  0.00     0.105 A 
ATOM      8  C   UNL d   1     -40.927  13.664  21.157  0.00  0.00     0.013 A 
ATOM      9  C   UNL d   1     -40.324  14.201  21.053  0.00  0.00     0.001 A 
ATOM     10  C   UNL d   1     -40.492  14.977  20.806  0.00  0.00     0.000 A 
ATOM     11  C   UNL d   1     -41.263  15.190  20.669  0.00  0.00     0.001 A 
ATOM     12  C   UNL d   1     -39.867  15.528  20.699  0.00  0.00     0.000 C 
ATOM     13  C   UNL d   1     -41.863  14.671  20.768  0.00  0.00     0.013 A 
ENDBRANCH   4   7
ENDBRANCH   3   4
ENDBRANCH   2   3
ENDBRANCH   1   2
BRANCH   1  14
ATOM     14  S   UNL d   1     -44.835  12.681  22.211  0.00  0.00    -0.045 SA
BRANCH  14  15
ATOM     15  C   UNL d   1     -45.159  12.202  22.793  0.00  0.00     0.219 A 
ATOM     16  N   UNL d   1     -45.885  12.380  23.097  0.00  0.00    -0.186 N 
ATOM     17  N   UNL d   1     -46.075  11.813  23.668  0.00  0.00    -0.038 NA
ATOM     18  N   UNL d   1     -45.450  11.295  23.698  0.00  0.00    -0.022 NA
ATOM     19  N   UNL d   1     -44.895  11.520  23.176  0.00  0.00    -0.101 NA
BRANCH  16  20
ATOM     20  C   UNL d   1     -46.353  13.021  22.872  0.00  0.00     0.087 A 
ATOM     21  C   UNL d   1     -46.218  13.769  23.177  0.00  0.00     0.019 A 
ATOM     22  C   UNL d   1     -46.693  14.414  22.947  0.00  0.00     0.002 A 
ATOM     23  C   UNL d   1     -47.307  14.306  22.407  0.00  0.00     0.000 A 
ATOM     24  C   UNL d   1     -47.438  13.547  22.102  0.00  0.00     0.002 A 
ATOM     25  C   UNL d   1     -46.964  12.905  22.332  0.00  0.00     0.019 A 
ENDBRANCH  16  20
ENDBRANCH  14  15
ENDBRANCH   1  14
TORSDOF 7
ENDMDL
MODEL 5
REMARK VINA RESULT:      -4.6      4.706      7.536
REMARK  7 active torsions:
REMARK  status: ('A' for Active; 'I' for Inactive)
REMARK    1  A    between atoms: C_10  and  N_1 
REMARK    2  A    between atoms: S_12  and  C_2 
REMARK    3  A    between atoms: S_3  and  N_11 
REMARK    4  A    between atoms: C_7  and  S_3 
REMARK    5  A    between atoms: N_11  and  C_15 
REMARK    6  A    between atoms: C_19  and  S_12 
REMARK    7  A    between atoms: C_15  and  C_19 
ROOT
ATOM      1  C   UNL d   1     -42.230  13.300  20.744  0.00  0.00     0.060 C 
ENDROOT
BRANCH   1   2
ATOM      2  C   UNL d   1     -42.799  13.318  21.321  0.00  0.00     0.119 C 
BRANCH   2   3
ATOM      3  N   UNL d   1     -43.251  12.642  21.495  0.00  0.00    -0.156 NA
BRANCH   3   4
ATOM      4  S   UNL d   1     -43.988  12.720  21.858  0.00  0.00     0.285 S 
ATOM      5  O   UNL d   1     -43.870  11.981  22.272  0.00  0.00    -0.198 OA
ATOM      6  O   UNL d   1     -44.125  13.441  21.466  0.00  0.00    -0.198 OA
BRANCH   4   7
ATOM      7  C   UNL d   1     -44.739  12.783  22.238  0.00  0.00     0.105 A 
ATOM      8  C   UNL d   1     -45.010  12.143  22.663  0.00  0.00     0.013 A 
ATOM      9  C   UNL d   1     -45.732  12.191  23.035  0.00  0.00     0.001 A 
ATOM     10  C   UNL d   1     -46.187  12.885  22.981  0.00  0.00     0.000 A 
ATOM     11  C   UNL d   1     -45.901  13.513  22.553  0.00  0.00     0.001 A 
ATOM     12  C   UNL d   1     -46.932  12.930  23.366  0.00  0.00     0.000 C 
ATOM     13  C   UNL d   1     -45.193  13.477  22.184  0.00  0.00     0.013 A 
ENDBRANCH   4   7
ENDBRANCH   3   4
ENDBRANCH   2   3
ENDBRANCH   1   2
BRANCH   1  14
ATOM     14  S   UNL d   1     -41.627  13.826  20.741  0.00  0.00    -0.045 SA
BRANCH  14  15
ATOM     15  C   UNL d   1     -41.207  13.983  20.053  0.00  0.00     0.219 A 
ATOM     16  N   UNL d   1     -40.545  14.442  20.087  0.00  0.00    -0.186 N 
ATOM     17  N   UNL d   1     -40.235  14.509  19.322  0.00  0.00    -0.038 NA
ATOM     18  N   UNL d   1     -40.726  14.082  18.835  0.00  0.00    -0.022 NA
ATOM     19  N   UNL d   1     -41.312  13.762  19.265  0.00  0.00    -0.101 NA
BRANCH  16  20
ATOM     20  C   UNL d   1     -40.234  14.783  20.769  0.00  0.00     0.087 A 
ATOM     21  C   UNL d   1     -39.744  14.357  21.269  0.00  0.00     0.019 A 
ATOM     22  C   UNL d   1     -39.432  14.705  21.959  0.00  0.00     0.002 A 
ATOM     23  C   UNL d   1     -39.614  15.487  22.148  0.00  0.00     0.000 A 
ATOM     24  C   UNL d   1     -40.111  15.913  21.639  0.00  0.00     0.002 A 
ATOM     25  C   UNL d   1     -40.421  15.565  20.952  0.00  0.00     0.019 A 
ENDBRANCH  16  20
ENDBRANCH  14  15
ENDBRANCH   1  14
TORSDOF 7
ENDMDL
MODEL 6
REMARK VINA RESULT:      -4.5      8.565     10.602
REMARK  7 active torsions:
REMARK  status: ('A' for Active; 'I' for Inactive)
REMARK    1  A    between atoms: C_10  and  N_1 
REMARK    2  A    between atoms: S_12  and  C_2 
REMARK    3  A    between atoms: S_3  and  N_11 
REMARK    4  A    between atoms: C_7  and  S_3 
REMARK    5  A    between atoms: N_11  and  C_15 
REMARK    6  A    between atoms: C_19  and  S_12 
REMARK    7  A    between atoms: C_15  and  C_19 
ROOT
ATOM      1  C   UNL d   1     -38.505  13.591  19.541  0.00  0.00     0.060 C 
ENDROOT
BRANCH   1   2
ATOM      2  C   UNL d   1     -38.375  13.826  18.776  0.00  0.00     0.119 C 
BRANCH   2   3
ATOM      3  N   UNL d   1     -38.887  13.590  18.165  0.00  0.00    -0.156 NA
BRANCH   3   4
ATOM      4  S   UNL d   1     -38.692  13.746  17.379  0.00  0.00     0.285 S 
ATOM      5  O   UNL d   1     -39.121  14.484  17.411  0.00  0.00    -0.198 OA
ATOM      6  O   UNL d   1     -38.268  13.032  17.323  0.00  0.00    -0.198 OA
BRANCH   4   7
ATOM      7  C   UNL d   1     -38.501  13.922  16.576  0.00  0.00     0.105 A 
ATOM      8  C   UNL d   1     -38.692  14.660  16.288  0.00  0.00     0.013 A 
ATOM      9  C   UNL d   1     -38.513  14.843  15.515  0.00  0.00     0.001 A 
ATOM     10  C   UNL d   1     -38.142  14.282  15.026  0.00  0.00     0.000 A 
ATOM     11  C   UNL d   1     -37.959  13.552  15.330  0.00  0.00     0.001 A 
ATOM     12  C   UNL d   1     -37.959  14.475  14.229  0.00  0.00     0.000 C 
ATOM     13  C   UNL d   1     -38.129  13.361  16.087  0.00  0.00     0.013 A 
ENDBRANCH   4   7
ENDBRANCH   3   4
ENDBRANCH   2   3
ENDBRANCH   1   2
BRANCH   1  14
ATOM     14  S   UNL d   1     -38.877  14.069  20.064  0.00  0.00    -0.045 SA
BRANCH  14  15
ATOM     15  C   UNL d   1     -38.840  13.922  20.871  0.00  0.00     0.219 A 
ATOM     16  N   UNL d   1     -39.422  14.203  21.354  0.00  0.00    -0.186 N 
ATOM     17  N   UNL d   1     -39.248  13.977  22.130  0.00  0.00    -0.038 NA
ATOM     18  N   UNL d   1     -38.554  13.556  22.099  0.00  0.00    -0.022 NA
ATOM     19  N   UNL d   1     -38.301  13.518  21.347  0.00  0.00    -0.101 NA
BRANCH  16  20
ATOM     20  C   UNL d   1     -40.075  14.642  21.109  0.00  0.00     0.087 A 
ATOM     21  C   UNL d   1     -40.798  14.280  20.970  0.00  0.00     0.019 A 
ATOM     22  C   UNL d   1     -41.456  14.727  20.722  0.00  0.00     0.002 A 
ATOM     23  C   UNL d   1     -41.388  15.542  20.614  0.00  0.00     0.000 A 
ATOM     24  C   UNL d   1     -40.655  15.902  20.755  0.00  0.00     0.002 A 
ATOM     25  C   UNL d   1     -40.000  15.455  21.002  0.00  0.00     0.019 A 
ENDBRANCH  16  20
ENDBRANCH  14  15
ENDBRANCH   1  14
TORSDOF 7
ENDMDL
MODEL 7
REMARK VINA RESULT:      -4.5      9.057     10.615
REMARK  7 active torsions:
REMARK  status: ('A' for Active; 'I' for Inactive)
REMARK    1  A    between atoms: C_10  and  N_1 
REMARK    2  A    between atoms: S_12  and  C_2 
REMARK    3  A    between atoms: S_3  and  N_11 
REMARK    4  A    between atoms: C_7  and  S_3 
REMARK    5  A    between atoms: N_11  and  C_15 
REMARK    6  A    between atoms: C_19  and  S_12 
REMARK    7  A    between atoms: C_15  and  C_19 
ROOT
ATOM      1  C   UNL d   1     -39.186  15.491  19.376  0.00  0.00     0.060 C 
ENDROOT
BRANCH   1   2
ATOM      2  C   UNL d   1     -38.933  15.100  18.714  0.00  0.00     0.119 C 
BRANCH   2   3
ATOM      3  N   UNL d   1     -39.102  15.395  17.955  0.00  0.00    -0.156 NA
BRANCH   3   4
ATOM      4  S   UNL d   1     -38.855  14.979  17.286  0.00  0.00     0.285 S 
ATOM      5  O   UNL d   1     -39.667  14.880  17.037  0.00  0.00    -0.198 OA
ATOM      6  O   UNL d   1     -38.057  15.062  17.506  0.00  0.00    -0.198 OA
BRANCH   4   7
ATOM      7  C   UNL d   1     -38.620  14.552  16.597  0.00  0.00     0.105 A 
ATOM      8  C   UNL d   1     -38.648  14.935  15.878  0.00  0.00     0.013 A 
ATOM      9  C   UNL d   1     -38.424  14.535  15.206  0.00  0.00     0.001 A 
ATOM     10  C   UNL d   1     -38.170  13.745  15.253  0.00  0.00     0.000 A 
ATOM     11  C   UNL d   1     -38.148  13.379  15.977  0.00  0.00     0.001 A 
ATOM     12  C   UNL d   1     -37.940  13.335  14.557  0.00  0.00     0.000 C 
ATOM     13  C   UNL d   1     -38.366  13.762  16.644  0.00  0.00     0.013 A 
ENDBRANCH   4   7
ENDBRANCH   3   4
ENDBRANCH   2   3
ENDBRANCH   1   2
BRANCH   1  14
ATOM     14  S   UNL d   1     -39.304  15.104  20.066  0.00  0.00    -0.045 SA
BRANCH  14  15
ATOM     15  C   UNL d   1     -39.876  15.354  20.599  0.00  0.00     0.219 A 
ATOM     16  N   UNL d   1     -39.872  15.066  21.353  0.00  0.00    -0.186 N 
ATOM     17  N   UNL d   1     -40.503  15.407  21.765  0.00  0.00    -0.038 NA
ATOM     18  N   UNL d   1     -40.881  15.902  21.243  0.00  0.00    -0.022 NA
ATOM     19  N   UNL d   1     -40.512  15.877  20.541  0.00  0.00    -0.101 NA
BRANCH  16  20
ATOM     20  C   UNL d   1     -39.329  14.525  21.654  0.00  0.00     0.087 A 
ATOM     21  C   UNL d   1     -38.695  14.772  22.111  0.00  0.00     0.019 A 
ATOM     22  C   UNL d   1     -38.148  14.221  22.414  0.00  0.00     0.002 A 
ATOM     23  C   UNL d   1     -38.238  13.417  22.257  0.00  0.00     0.000 A 
ATOM     24  C   UNL d   1     -38.881  13.172  21.794  0.00  0.00     0.002 A 
ATOM     25  C   UNL d   1     -39.426  13.722  21.492  0.00  0.00     0.019 A 
ENDBRANCH  16  20
ENDBRANCH  14  15
ENDBRANCH   1  14
TORSDOF 7
ENDMDL
