MODEL 1
REMARK VINA RESULT:      -7.7      0.000      0.000
REMARK  5 active torsions:
REMARK  status: ('A' for Active; 'I' for Inactive)
REMARK    1  A    between atoms: N_6  and  C_1 
REMARK    2  A    between atoms: C_8  and  C_4 
REMARK       I    between atoms: C_7  and  N_6 
REMARK    3  A    between atoms: C_13  and  C_7 
REMARK    4  A    between atoms: O_14  and  C_8 
REMARK    5  A    between atoms: C_18  and  O_14 
ROOT
ATOM      1  C   UNL d   1     -47.758  12.899  23.193  0.00  0.00     0.124 A 
ATOM      2  C   UNL d   1     -47.140  13.405  22.956  0.00  0.00     0.093 A 
ATOM      3  S   UNL d   1     -48.453  13.341  23.193  0.00  0.00    -0.062 SA
ATOM      4  C   UNL d   1     -48.266  14.109  22.960  0.00  0.00     0.095 A 
ATOM      5  C   UNL d   1     -47.461  14.151  22.814  0.00  0.00     0.023 A 
ATOM      6  C   UNL d   1     -46.334  13.182  22.880  0.00  0.00     0.103 C 
ATOM      7  N   UNL d   1     -45.546  12.974  22.802  0.00  0.00    -0.191 NA
ATOM      8  C   UNL d   1     -47.041  14.823  22.567  0.00  0.00     0.001 C 
ENDROOT
BRANCH   1   9
ATOM      9  N   UNL d   1     -47.681  12.103  23.388  0.00  0.00    -0.201 NA
ATOM     10  C   UNL d   1     -48.248  11.562  23.127  0.00  0.00     0.280 C 
ATOM     11  O   UNL d   1     -48.164  10.772  23.327  0.00  0.00    -0.265 OA
BRANCH  10  12
ATOM     12  C   UNL d   1     -48.885  11.811  22.676  0.00  0.00     0.058 C 
ATOM     13  C   UNL d   1     -49.601  11.990  23.041  0.00  0.00     0.005 C 
ATOM     14  C   UNL d   1     -48.818  11.886  21.849  0.00  0.00     0.005 C 
ENDBRANCH  10  12
ENDBRANCH   1   9
BRANCH   4  15
ATOM     15  C   UNL d   1     -48.800  14.730  22.886  0.00  0.00     0.306 C 
ATOM     16  O   UNL d   1     -48.943  15.079  22.141  0.00  0.00    -0.258 OA
BRANCH  15  17
ATOM     17  O   UNL d   1     -49.209  15.027  23.548  0.00  0.00    -0.271 OA
BRANCH  17  18
ATOM     18  C   UNL d   1     -49.762  15.546  23.216  0.00  0.00     0.126 C 
ATOM     19  C   UNL d   1     -50.316  15.922  23.697  0.00  0.00     0.029 C 
ENDBRANCH  17  18
ENDBRANCH  15  17
ENDBRANCH   4  15
TORSDOF 5
ENDMDL
MODEL 2
REMARK VINA RESULT:      -7.2      1.736      2.863
REMARK  5 active torsions:
REMARK  status: ('A' for Active; 'I' for Inactive)
REMARK    1  A    between atoms: N_6  and  C_1 
REMARK    2  A    between atoms: C_8  and  C_4 
REMARK       I    between atoms: C_7  and  N_6 
REMARK    3  A    between atoms: C_13  and  C_7 
REMARK    4  A    between atoms: O_14  and  C_8 
REMARK    5  A    between atoms: C_18  and  O_14 
ROOT
ATOM      1  C   UNL d   1     -48.763  13.576  23.017  0.00  0.00     0.124 A 
ATOM      2  C   UNL d   1     -48.616  14.374  22.828  0.00  0.00     0.093 A 
ATOM      3  S   UNL d   1     -48.035  13.194  23.064  0.00  0.00    -0.062 SA
ATOM      4  C   UNL d   1     -47.446  13.750  22.907  0.00  0.00     0.095 A 
ATOM      5  C   UNL d   1     -47.800  14.474  22.762  0.00  0.00     0.023 A 
ATOM      6  C   UNL d   1     -49.205  14.964  22.726  0.00  0.00     0.103 C 
ATOM      7  N   UNL d   1     -49.771  15.546  22.624  0.00  0.00    -0.191 NA
ATOM      8  C   UNL d   1     -47.410  15.184  22.580  0.00  0.00     0.001 C 
ENDROOT
BRANCH   1   9
ATOM      9  N   UNL d   1     -49.505  13.238  23.133  0.00  0.00    -0.201 NA
ATOM     10  C   UNL d   1     -49.692  12.526  22.757  0.00  0.00     0.280 C 
ATOM     11  O   UNL d   1     -50.431  12.196  22.878  0.00  0.00    -0.265 OA
BRANCH  10  12
ATOM     12  C   UNL d   1     -49.146  12.156  22.271  0.00  0.00     0.058 C 
ATOM     13  C   UNL d   1     -48.646  11.580  22.580  0.00  0.00     0.005 C 
ATOM     14  C   UNL d   1     -49.089  12.355  21.464  0.00  0.00     0.005 C 
ENDBRANCH  10  12
ENDBRANCH   1   9
BRANCH   4  15
ATOM     15  C   UNL d   1     -46.638  13.601  22.898  0.00  0.00     0.306 C 
ATOM     16  O   UNL d   1     -46.206  13.566  23.612  0.00  0.00    -0.258 OA
BRANCH  15  17
ATOM     17  O   UNL d   1     -46.230  13.481  22.182  0.00  0.00    -0.271 OA
BRANCH  17  18
ATOM     18  C   UNL d   1     -45.488  13.206  22.426  0.00  0.00     0.126 C 
ATOM     19  C   UNL d   1     -44.928  12.978  21.865  0.00  0.00     0.029 C 
ENDBRANCH  17  18
ENDBRANCH  15  17
ENDBRANCH   4  15
TORSDOF 5
ENDMDL
MODEL 3
REMARK VINA RESULT:      -7.1      1.641      3.414
REMARK  5 active torsions:
REMARK  status: ('A' for Active; 'I' for Inactive)
REMARK    1  A    between atoms: N_6  and  C_1 
REMARK    2  A    between atoms: C_8  and  C_4 
REMARK       I    between atoms: C_7  and  N_6 
REMARK    3  A    between atoms: C_13  and  C_7 
REMARK    4  A    between atoms: O_14  and  C_8 
REMARK    5  A    between atoms: C_18  and  O_14 
ROOT
ATOM      1  C   UNL d   1     -48.745  13.040  22.505  0.00  0.00     0.124 A 
ATOM      2  C   UNL d   1     -48.668  12.380  23.008  0.00  0.00     0.093 A 
ATOM      3  S   UNL d   1     -47.994  13.360  22.399  0.00  0.00    -0.062 SA
ATOM      4  C   UNL d   1     -47.460  12.903  22.832  0.00  0.00     0.095 A 
ATOM      5  C   UNL d   1     -47.871  12.302  23.206  0.00  0.00     0.023 A 
ATOM      6  C   UNL d   1     -49.300  11.888  23.262  0.00  0.00     0.103 C 
ATOM      7  N   UNL d   1     -49.908  11.403  23.515  0.00  0.00    -0.191 NA
ATOM      8  C   UNL d   1     -47.547  11.717  23.697  0.00  0.00     0.001 C 
ENDROOT
BRANCH   1   9
ATOM      9  N   UNL d   1     -49.448  13.315  22.177  0.00  0.00    -0.201 NA
ATOM     10  C   UNL d   1     -49.637  14.118  22.233  0.00  0.00     0.280 C 
ATOM     11  O   UNL d   1     -50.338  14.384  21.904  0.00  0.00    -0.265 OA
BRANCH  10  12
ATOM     12  C   UNL d   1     -49.132  14.639  22.612  0.00  0.00     0.058 C 
ATOM     13  C   UNL d   1     -48.556  15.039  22.181  0.00  0.00     0.005 C 
ATOM     14  C   UNL d   1     -49.192  14.771  23.433  0.00  0.00     0.005 C 
ENDBRANCH  10  12
ENDBRANCH   1   9
BRANCH   4  15
ATOM     15  C   UNL d   1     -46.650  13.031  22.879  0.00  0.00     0.306 C 
ATOM     16  O   UNL d   1     -46.294  13.224  23.610  0.00  0.00    -0.258 OA
BRANCH  15  17
ATOM     17  O   UNL d   1     -46.165  12.974  22.205  0.00  0.00    -0.271 OA
BRANCH  17  18
ATOM     18  C   UNL d   1     -45.433  13.258  22.469  0.00  0.00     0.126 C 
ATOM     19  C   UNL d   1     -44.778  13.240  21.968  0.00  0.00     0.029 C 
ENDBRANCH  17  18
ENDBRANCH  15  17
ENDBRANCH   4  15
TORSDOF 5
ENDMDL
MODEL 4
REMARK VINA RESULT:      -6.9      1.029      2.160
REMARK  5 active torsions:
REMARK  status: ('A' for Active; 'I' for Inactive)
REMARK    1  A    between atoms: N_6  and  C_1 
REMARK    2  A    between atoms: C_8  and  C_4 
REMARK       I    between atoms: C_7  and  N_6 
REMARK    3  A    between atoms: C_13  and  C_7 
REMARK    4  A    between atoms: O_14  and  C_8 
REMARK    5  A    between atoms: C_18  and  O_14 
ROOT
ATOM      1  C   UNL d   1     -47.901  12.776  23.252  0.00  0.00     0.124 A 
ATOM      2  C   UNL d   1     -48.511  12.320  22.915  0.00  0.00     0.093 A 
ATOM      3  S   UNL d   1     -48.158  13.558  23.273  0.00  0.00    -0.062 SA
ATOM      4  C   UNL d   1     -48.918  13.584  22.953  0.00  0.00     0.095 A 
ATOM      5  C   UNL d   1     -49.137  12.826  22.733  0.00  0.00     0.023 A 
ATOM      6  C   UNL d   1     -48.483  11.490  22.789  0.00  0.00     0.103 C 
ATOM      7  N   UNL d   1     -48.465  10.682  22.661  0.00  0.00    -0.191 NA
ATOM      8  C   UNL d   1     -49.858  12.603  22.388  0.00  0.00     0.001 C 
ENDROOT
BRANCH   1   9
ATOM      9  N   UNL d   1     -47.175  12.490  23.514  0.00  0.00    -0.201 NA
ATOM     10  C   UNL d   1     -46.476  12.830  23.232  0.00  0.00     0.280 C 
ATOM     11  O   UNL d   1     -45.758  12.540  23.498  0.00  0.00    -0.265 OA
BRANCH  10  12
ATOM     12  C   UNL d   1     -46.502  13.448  22.695  0.00  0.00     0.058 C 
ATOM     13  C   UNL d   1     -46.502  14.226  22.965  0.00  0.00     0.005 C 
ATOM     14  C   UNL d   1     -46.527  13.300  21.876  0.00  0.00     0.005 C 
ENDBRANCH  10  12
ENDBRANCH   1   9
BRANCH   4  15
ATOM     15  C   UNL d   1     -49.379  14.259  22.869  0.00  0.00     0.306 C 
ATOM     16  O   UNL d   1     -49.584  14.540  22.110  0.00  0.00    -0.258 OA
BRANCH  15  17
ATOM     17  O   UNL d   1     -49.652  14.679  23.534  0.00  0.00    -0.271 OA
BRANCH  17  18
ATOM     18  C   UNL d   1     -49.987  15.362  23.207  0.00  0.00     0.126 C 
ATOM     19  C   UNL d   1     -50.345  15.922  23.696  0.00  0.00     0.029 C 
ENDBRANCH  17  18
ENDBRANCH  15  17
ENDBRANCH   4  15
TORSDOF 5
ENDMDL
MODEL 5
REMARK VINA RESULT:      -6.3      1.242      2.800
REMARK  5 active torsions:
REMARK  status: ('A' for Active; 'I' for Inactive)
REMARK    1  A    between atoms: N_6  and  C_1 
REMARK    2  A    between atoms: C_8  and  C_4 
REMARK       I    between atoms: C_7  and  N_6 
REMARK    3  A    between atoms: C_13  and  C_7 
REMARK    4  A    between atoms: O_14  and  C_8 
REMARK    5  A    between atoms: C_18  and  O_14 
ROOT
ATOM      1  C   UNL d   1     -47.408  13.357  23.097  0.00  0.00     0.124 A 
ATOM      2  C   UNL d   1     -47.025  12.622  23.187  0.00  0.00     0.093 A 
ATOM      3  S   UNL d   1     -48.218  13.211  23.062  0.00  0.00    -0.062 SA
ATOM      4  C   UNL d   1     -48.333  12.397  23.131  0.00  0.00     0.095 A 
ATOM      5  C   UNL d   1     -47.603  12.034  23.207  0.00  0.00     0.023 A 
ATOM      6  C   UNL d   1     -46.195  12.513  23.246  0.00  0.00     0.103 C 
ATOM      7  N   UNL d   1     -45.387  12.396  23.305  0.00  0.00    -0.191 NA
ATOM      8  C   UNL d   1     -47.465  11.220  23.291  0.00  0.00     0.001 C 
ENDROOT
BRANCH   1   9
ATOM      9  N   UNL d   1     -47.038  14.090  23.051  0.00  0.00    -0.201 NA
ATOM     10  C   UNL d   1     -47.387  14.696  22.610  0.00  0.00     0.280 C 
ATOM     11  O   UNL d   1     -47.012  15.423  22.570  0.00  0.00    -0.265 OA
BRANCH  10  12
ATOM     12  C   UNL d   1     -48.096  14.572  22.220  0.00  0.00     0.058 C 
ATOM     13  C   UNL d   1     -48.100  14.203  21.484  0.00  0.00     0.005 C 
ATOM     14  C   UNL d   1     -48.817  14.815  22.558  0.00  0.00     0.005 C 
ENDBRANCH  10  12
ENDBRANCH   1   9
BRANCH   4  15
ATOM     15  C   UNL d   1     -49.060  12.015  23.123  0.00  0.00     0.306 C 
ATOM     16  O   UNL d   1     -49.230  11.440  22.541  0.00  0.00    -0.258 OA
BRANCH  15  17
ATOM     17  O   UNL d   1     -49.644  12.188  23.691  0.00  0.00    -0.271 OA
BRANCH  17  18
ATOM     18  C   UNL d   1     -50.323  11.822  23.388  0.00  0.00     0.126 C 
ATOM     19  C   UNL d   1     -51.064  12.007  23.697  0.00  0.00     0.029 C 
ENDBRANCH  17  18
ENDBRANCH  15  17
ENDBRANCH   4  15
TORSDOF 5
ENDMDL
MODEL 6
REMARK VINA RESULT:      -5.1      9.252      9.978
REMARK  5 active torsions:
REMARK  status: ('A' for Active; 'I' for Inactive)
REMARK    1  A    between atoms: N_6  and  C_1 
REMARK    2  A    between atoms: C_8  and  C_4 
REMARK       I    between atoms: C_7  and  N_6 
REMARK    3  A    between atoms: C_13  and  C_7 
REMARK    4  A    between atoms: O_14  and  C_8 
REMARK    5  A    between atoms: C_18  and  O_14 
ROOT
ATOM      1  C   UNL d   1     -39.866  14.142  18.424  0.00  0.00     0.124 A 
ATOM      2  C   UNL d   1     -39.172  13.681  18.446  0.00  0.00     0.093 A 
ATOM      3  S   UNL d   1     -39.854  14.640  19.079  0.00  0.00    -0.062 SA
ATOM      4  C   UNL d   1     -39.162  14.490  19.501  0.00  0.00     0.095 A 
ATOM      5  C   UNL d   1     -38.742  13.902  19.115  0.00  0.00     0.023 A 
ATOM      6  C   UNL d   1     -38.959  13.098  17.881  0.00  0.00     0.103 C 
ATOM      7  N   UNL d   1     -38.742  12.528  17.337  0.00  0.00    -0.191 NA
ATOM      8  C   UNL d   1     -38.013  13.583  19.351  0.00  0.00     0.001 C 
ENDROOT
BRANCH   1   9
ATOM      9  N   UNL d   1     -40.452  14.100  17.847  0.00  0.00    -0.201 NA
ATOM     10  C   UNL d   1     -40.755  14.798  17.522  0.00  0.00     0.280 C 
ATOM     11  O   UNL d   1     -41.338  14.747  16.949  0.00  0.00    -0.265 OA
BRANCH  10  12
ATOM     12  C   UNL d   1     -40.476  15.527  17.768  0.00  0.00     0.058 C 
ATOM     13  C   UNL d   1     -40.850  15.922  18.386  0.00  0.00     0.005 C 
ATOM     14  C   UNL d   1     -39.816  15.877  17.401  0.00  0.00     0.005 C 
ENDBRANCH  10  12
ENDBRANCH   1   9
BRANCH   4  15
ATOM     15  C   UNL d   1     -38.932  14.867  20.194  0.00  0.00     0.306 C 
ATOM     16  O   UNL d   1     -38.251  15.350  20.206  0.00  0.00    -0.258 OA
BRANCH  15  17
ATOM     17  O   UNL d   1     -39.368  14.779  20.897  0.00  0.00    -0.271 OA
BRANCH  17  18
ATOM     18  C   UNL d   1     -39.034  15.342  21.404  0.00  0.00     0.126 C 
ATOM     19  C   UNL d   1     -39.362  15.473  22.149  0.00  0.00     0.029 C 
ENDBRANCH  17  18
ENDBRANCH  15  17
ENDBRANCH   4  15
TORSDOF 5
ENDMDL
MODEL 7
REMARK VINA RESULT:      -4.8      8.733     10.339
REMARK  5 active torsions:
REMARK  status: ('A' for Active; 'I' for Inactive)
REMARK    1  A    between atoms: N_6  and  C_1 
REMARK    2  A    between atoms: C_8  and  C_4 
REMARK       I    between atoms: C_7  and  N_6 
REMARK    3  A    between atoms: C_13  and  C_7 
REMARK    4  A    between atoms: O_14  and  C_8 
REMARK    5  A    between atoms: C_18  and  O_14 
ROOT
ATOM      1  C   UNL d   1     -40.343  14.565  18.521  0.00  0.00     0.124 A 
ATOM      2  C   UNL d   1     -40.327  14.793  17.720  0.00  0.00     0.093 A 
ATOM      3  S   UNL d   1     -39.747  14.007  18.632  0.00  0.00    -0.062 SA
ATOM      4  C   UNL d   1     -39.369  13.892  17.909  0.00  0.00     0.095 A 
ATOM      5  C   UNL d   1     -39.722  14.372  17.347  0.00  0.00     0.023 A 
ATOM      6  C   UNL d   1     -40.841  15.353  17.365  0.00  0.00     0.103 C 
ATOM      7  N   UNL d   1     -41.338  15.897  17.009  0.00  0.00    -0.191 NA
ATOM      8  C   UNL d   1     -39.512  14.429  16.547  0.00  0.00     0.001 C 
ENDROOT
BRANCH   1   9
ATOM      9  N   UNL d   1     -40.862  14.851  19.092  0.00  0.00    -0.201 NA
ATOM     10  C   UNL d   1     -40.569  15.095  19.825  0.00  0.00     0.280 C 
ATOM     11  O   UNL d   1     -41.092  15.378  20.387  0.00  0.00    -0.265 OA
BRANCH  10  12
ATOM     12  C   UNL d   1     -39.767  15.056  19.986  0.00  0.00     0.058 C 
ATOM     13  C   UNL d   1     -39.275  15.680  19.775  0.00  0.00     0.005 C 
ATOM     14  C   UNL d   1     -39.440  14.388  20.363  0.00  0.00     0.005 C 
ENDBRANCH  10  12
ENDBRANCH   1   9
BRANCH   4  15
ATOM     15  C   UNL d   1     -38.740  13.379  17.774  0.00  0.00     0.306 C 
ATOM     16  O   UNL d   1     -37.978  13.679  17.612  0.00  0.00    -0.258 OA
BRANCH  15  17
ATOM     17  O   UNL d   1     -38.846  12.554  17.795  0.00  0.00    -0.271 OA
BRANCH  17  18
ATOM     18  C   UNL d   1     -38.072  12.260  17.802  0.00  0.00     0.126 C 
ATOM     19  C   UNL d   1     -37.939  11.447  17.833  0.00  0.00     0.029 C 
ENDBRANCH  17  18
ENDBRANCH  15  17
ENDBRANCH   4  15
TORSDOF 5
ENDMDL
MODEL 8
REMARK VINA RESULT:      -4.8      9.063     10.426
REMARK  5 active torsions:
REMARK  status: ('A' for Active; 'I' for Inactive)
REMARK    1  A    between atoms: N_6  and  C_1 
REMARK    2  A    between atoms: C_8  and  C_4 
REMARK       I    between atoms: C_7  and  N_6 
REMARK    3  A    between atoms: C_13  and  C_7 
REMARK    4  A    between atoms: O_14  and  C_8 
REMARK    5  A    between atoms: C_18  and  O_14 
ROOT
ATOM      1  C   UNL d   1     -39.584  15.078  17.464  0.00  0.00     0.124 A 
ATOM      2  C   UNL d   1     -40.357  15.320  17.656  0.00  0.00     0.093 A 
ATOM      3  S   UNL d   1     -39.161  15.015  18.167  0.00  0.00    -0.062 SA
ATOM      4  C   UNL d   1     -39.666  15.217  18.787  0.00  0.00     0.095 A 
ATOM      5  C   UNL d   1     -40.401  15.405  18.476  0.00  0.00     0.023 A 
ATOM      6  C   UNL d   1     -40.975  15.453  17.104  0.00  0.00     0.103 C 
ATOM      7  N   UNL d   1     -41.584  15.585  16.574  0.00  0.00    -0.191 NA
ATOM      8  C   UNL d   1     -41.071  15.638  18.906  0.00  0.00     0.001 C 
ENDROOT
BRANCH   1   9
ATOM      9  N   UNL d   1     -39.301  14.929  16.705  0.00  0.00    -0.201 NA
ATOM     10  C   UNL d   1     -38.833  14.262  16.568  0.00  0.00     0.280 C 
ATOM     11  O   UNL d   1     -38.556  14.121  15.810  0.00  0.00    -0.265 OA
BRANCH  10  12
ATOM     12  C   UNL d   1     -38.649  13.749  17.179  0.00  0.00     0.058 C 
ATOM     13  C   UNL d   1     -39.161  13.133  17.366  0.00  0.00     0.005 C 
ATOM     14  C   UNL d   1     -37.946  13.844  17.617  0.00  0.00     0.005 C 
ENDBRANCH  10  12
ENDBRANCH   1   9
BRANCH   4  15
ATOM     15  C   UNL d   1     -39.466  15.228  19.584  0.00  0.00     0.306 C 
ATOM     16  O   UNL d   1     -39.823  14.693  20.117  0.00  0.00    -0.258 OA
BRANCH  15  17
ATOM     17  O   UNL d   1     -38.907  15.769  19.880  0.00  0.00    -0.271 OA
BRANCH  17  18
ATOM     18  C   UNL d   1     -38.798  15.524  20.664  0.00  0.00     0.126 C 
ATOM     19  C   UNL d   1     -38.255  15.915  21.146  0.00  0.00     0.029 C 
ENDBRANCH  17  18
ENDBRANCH  15  17
ENDBRANCH   4  15
TORSDOF 5
ENDMDL
MODEL 9
REMARK VINA RESULT:      -4.7      1.530      2.304
REMARK  5 active torsions:
REMARK  status: ('A' for Active; 'I' for Inactive)
REMARK    1  A    between atoms: N_6  and  C_1 
REMARK    2  A    between atoms: C_8  and  C_4 
REMARK       I    between atoms: C_7  and  N_6 
REMARK    3  A    between atoms: C_13  and  C_7 
REMARK    4  A    between atoms: O_14  and  C_8 
REMARK    5  A    between atoms: C_18  and  O_14 
ROOT
ATOM      1  C   UNL d   1     -47.710  13.816  23.177  0.00  0.00     0.124 A 
ATOM      2  C   UNL d   1     -48.037  14.474  22.783  0.00  0.00     0.093 A 
ATOM      3  S   UNL d   1     -48.335  13.351  23.443  0.00  0.00    -0.062 SA
ATOM      4  C   UNL d   1     -49.039  13.716  23.215  0.00  0.00     0.095 A 
ATOM      5  C   UNL d   1     -48.859  14.405  22.811  0.00  0.00     0.023 A 
ATOM      6  C   UNL d   1     -47.596  15.092  22.425  0.00  0.00     0.103 C 
ATOM      7  N   UNL d   1     -47.176  15.699  22.073  0.00  0.00    -0.191 NA
ATOM      8  C   UNL d   1     -49.402  14.941  22.486  0.00  0.00     0.001 C 
ENDROOT
BRANCH   1   9
ATOM      9  N   UNL d   1     -46.907  13.666  23.279  0.00  0.00    -0.201 NA
ATOM     10  C   UNL d   1     -46.622  12.895  23.192  0.00  0.00     0.280 C 
ATOM     11  O   UNL d   1     -45.822  12.754  23.295  0.00  0.00    -0.265 OA
BRANCH  10  12
ATOM     12  C   UNL d   1     -47.132  12.281  23.007  0.00  0.00     0.058 C 
ATOM     13  C   UNL d   1     -47.382  12.176  22.230  0.00  0.00     0.005 C 
ATOM     14  C   UNL d   1     -47.402  11.759  23.597  0.00  0.00     0.005 C 
ENDBRANCH  10  12
ENDBRANCH   1   9
BRANCH   4  15
ATOM     15  C   UNL d   1     -49.796  13.435  23.370  0.00  0.00     0.306 C 
ATOM     16  O   UNL d   1     -50.380  13.943  23.682  0.00  0.00    -0.258 OA
BRANCH  15  17
ATOM     17  O   UNL d   1     -49.999  12.642  23.220  0.00  0.00    -0.271 OA
BRANCH  17  18
ATOM     18  C   UNL d   1     -50.740  12.561  23.581  0.00  0.00     0.126 C 
ATOM     19  C   UNL d   1     -51.062  11.810  23.698  0.00  0.00     0.029 C 
ENDBRANCH  17  18
ENDBRANCH  15  17
ENDBRANCH   4  15
TORSDOF 5
ENDMDL
