MODEL 1
REMARK VINA RESULT:      -7.2      0.000      0.000
REMARK  3 active torsions:
REMARK  status: ('A' for Active; 'I' for Inactive)
REMARK    1  A    between atoms: S_10  and  C_2 
REMARK    2  A    between atoms: C_9  and  C_4 
REMARK    3  A    between atoms: C_17  and  C_12 
ROOT
ATOM      1  C   UNL d   1     -48.948  13.536  23.142  0.00  0.00     0.092 A 
ATOM      2  C   UNL d   1     -49.691  13.829  23.271  0.00  0.00     0.119 A 
ATOM      3  N   UNL d   1     -49.862  14.621  23.080  0.00  0.00    -0.201 NA
ATOM      4  C   UNL d   1     -48.360  14.027  22.819  0.00  0.00     0.016 A 
ATOM      5  C   UNL d   1     -49.276  15.104  22.761  0.00  0.00     0.280 A 
ATOM      6  C   UNL d   1     -48.776  12.748  23.331  0.00  0.00     0.103 C 
ATOM      7  N   UNL d   1     -48.612  11.959  23.522  0.00  0.00    -0.191 NA
ATOM      8  C   UNL d   1     -48.533  14.810  22.632  0.00  0.00     0.063 A 
ATOM      9  O   UNL d   1     -49.448  15.891  22.572  0.00  0.00    -0.265 OA
ENDROOT
BRANCH   2  10
ATOM     10  S   UNL d   1     -50.278  13.342  23.591  0.00  0.00    -0.093 SA
ATOM     11  C   UNL d   1     -51.062  13.614  23.653  0.00  0.00     0.076 C 
ENDBRANCH   2  10
BRANCH   4  12
ATOM     12  C   UNL d   1     -47.607  13.730  22.689  0.00  0.00     0.001 A 
ATOM     13  C   UNL d   1     -47.040  13.832  23.262  0.00  0.00     0.000 A 
ATOM     14  C   UNL d   1     -46.275  13.534  23.139  0.00  0.00     0.000 A 
ATOM     15  C   UNL d   1     -46.092  13.145  22.455  0.00  0.00     0.000 A 
ATOM     16  C   UNL d   1     -46.669  13.045  21.879  0.00  0.00     0.000 A 
ATOM     17  C   UNL d   1     -47.441  13.343  21.997  0.00  0.00     0.000 A 
BRANCH  15  18
ATOM     18  C   UNL d   1     -45.249  12.812  22.309  0.00  0.00     0.000 C 
ATOM     19  C   UNL d   1     -44.462  13.193  21.642  0.00  0.00     0.000 C 
ATOM     20  C   UNL d   1     -44.771  11.848  22.821  0.00  0.00     0.000 C 
ENDBRANCH  15  18
ENDBRANCH   4  12
TORSDOF 3
ENDMDL
MODEL 2
REMARK VINA RESULT:      -6.9      1.300      1.689
REMARK  3 active torsions:
REMARK  status: ('A' for Active; 'I' for Inactive)
REMARK    1  A    between atoms: S_10  and  C_2 
REMARK    2  A    between atoms: C_9  and  C_4 
REMARK    3  A    between atoms: C_17  and  C_12 
ROOT
ATOM      1  C   UNL d   1     -49.220  14.134  22.939  0.00  0.00     0.092 A 
ATOM      2  C   UNL d   1     -50.006  14.290  23.059  0.00  0.00     0.119 A 
ATOM      3  N   UNL d   1     -50.527  13.668  23.240  0.00  0.00    -0.201 NA
ATOM      4  C   UNL d   1     -48.940  13.353  22.998  0.00  0.00     0.016 A 
ATOM      5  C   UNL d   1     -50.246  12.897  23.297  0.00  0.00     0.280 A 
ATOM      6  C   UNL d   1     -48.699  14.751  22.759  0.00  0.00     0.103 C 
ATOM      7  N   UNL d   1     -48.183  15.374  22.578  0.00  0.00    -0.191 NA
ATOM      8  C   UNL d   1     -49.460  12.741  23.177  0.00  0.00     0.063 A 
ATOM      9  O   UNL d   1     -50.767  12.280  23.478  0.00  0.00    -0.265 OA
ENDROOT
BRANCH   2  10
ATOM     10  S   UNL d   1     -50.286  15.067  23.001  0.00  0.00    -0.093 SA
ATOM     11  C   UNL d   1     -51.064  15.250  23.230  0.00  0.00     0.076 C 
ENDBRANCH   2  10
BRANCH   4  12
ATOM     12  C   UNL d   1     -48.145  13.195  22.876  0.00  0.00     0.001 A 
ATOM     13  C   UNL d   1     -47.650  13.156  23.520  0.00  0.00     0.000 A 
ATOM     14  C   UNL d   1     -46.844  12.996  23.406  0.00  0.00     0.000 A 
ATOM     15  C   UNL d   1     -46.549  12.880  22.663  0.00  0.00     0.000 A 
ATOM     16  C   UNL d   1     -47.055  12.921  22.016  0.00  0.00     0.000 A 
ATOM     17  C   UNL d   1     -47.868  13.082  22.124  0.00  0.00     0.000 A 
BRANCH  15  18
ATOM     18  C   UNL d   1     -45.659  12.704  22.527  0.00  0.00     0.000 C 
ATOM     19  C   UNL d   1     -44.915  13.292  21.971  0.00  0.00     0.000 C 
ATOM     20  C   UNL d   1     -45.056  11.758  22.931  0.00  0.00     0.000 C 
ENDBRANCH  15  18
ENDBRANCH   4  12
TORSDOF 3
ENDMDL
MODEL 3
REMARK VINA RESULT:      -6.9      2.391      4.414
REMARK  3 active torsions:
REMARK  status: ('A' for Active; 'I' for Inactive)
REMARK    1  A    between atoms: S_10  and  C_2 
REMARK    2  A    between atoms: C_9  and  C_4 
REMARK    3  A    between atoms: C_17  and  C_12 
ROOT
ATOM      1  C   UNL d   1     -46.442  12.761  22.642  0.00  0.00     0.092 A 
ATOM      2  C   UNL d   1     -45.633  12.745  22.604  0.00  0.00     0.119 A 
ATOM      3  N   UNL d   1     -45.216  12.117  22.955  0.00  0.00    -0.201 NA
ATOM      4  C   UNL d   1     -46.850  12.150  23.031  0.00  0.00     0.016 A 
ATOM      5  C   UNL d   1     -45.623  11.514  23.340  0.00  0.00     0.280 A 
ATOM      6  C   UNL d   1     -46.859  13.385  22.293  0.00  0.00     0.103 C 
ATOM      7  N   UNL d   1     -47.270  14.013  21.942  0.00  0.00    -0.191 NA
ATOM      8  C   UNL d   1     -46.432  11.530  23.377  0.00  0.00     0.063 A 
ATOM      9  O   UNL d   1     -45.206  10.890  23.688  0.00  0.00    -0.265 OA
ENDROOT
BRANCH   2  10
ATOM     10  S   UNL d   1     -45.225  13.352  22.217  0.00  0.00    -0.093 SA
ATOM     11  C   UNL d   1     -44.501  13.197  21.839  0.00  0.00     0.076 C 
ENDBRANCH   2  10
BRANCH   4  12
ATOM     12  C   UNL d   1     -47.668  12.166  23.069  0.00  0.00     0.001 A 
ATOM     13  C   UNL d   1     -48.095  11.780  22.495  0.00  0.00     0.000 A 
ATOM     14  C   UNL d   1     -48.925  11.791  22.526  0.00  0.00     0.000 A 
ATOM     15  C   UNL d   1     -49.308  12.182  23.120  0.00  0.00     0.000 A 
ATOM     16  C   UNL d   1     -48.871  12.570  23.698  0.00  0.00     0.000 A 
ATOM     17  C   UNL d   1     -48.035  12.562  23.672  0.00  0.00     0.000 A 
BRANCH  15  18
ATOM     18  C   UNL d   1     -50.225  12.200  23.163  0.00  0.00     0.000 C 
ATOM     19  C   UNL d   1     -50.906  11.519  23.694  0.00  0.00     0.000 C 
ATOM     20  C   UNL d   1     -50.941  12.993  22.635  0.00  0.00     0.000 C 
ENDBRANCH  15  18
ENDBRANCH   4  12
TORSDOF 3
ENDMDL
MODEL 4
REMARK VINA RESULT:      -5.8      8.848      9.853
REMARK  3 active torsions:
REMARK  status: ('A' for Active; 'I' for Inactive)
REMARK    1  A    between atoms: S_10  and  C_2 
REMARK    2  A    between atoms: C_9  and  C_4 
REMARK    3  A    between atoms: C_17  and  C_12 
ROOT
ATOM      1  C   UNL d   1     -39.443  15.575  17.679  0.00  0.00     0.092 A 
ATOM      2  C   UNL d   1     -39.529  15.684  16.881  0.00  0.00     0.119 A 
ATOM      3  N   UNL d   1     -40.270  15.557  16.524  0.00  0.00    -0.201 NA
ATOM      4  C   UNL d   1     -40.096  15.336  18.136  0.00  0.00     0.016 A 
ATOM      5  C   UNL d   1     -40.913  15.321  16.981  0.00  0.00     0.280 A 
ATOM      6  C   UNL d   1     -38.707  15.701  18.036  0.00  0.00     0.103 C 
ATOM      7  N   UNL d   1     -37.967  15.829  18.387  0.00  0.00    -0.191 NA
ATOM      8  C   UNL d   1     -40.827  15.212  17.778  0.00  0.00     0.063 A 
ATOM      9  O   UNL d   1     -41.648  15.195  16.623  0.00  0.00    -0.265 OA
ENDROOT
BRANCH   2  10
ATOM     10  S   UNL d   1     -38.881  15.922  16.424  0.00  0.00    -0.093 SA
ATOM     11  C   UNL d   1     -38.930  15.920  15.594  0.00  0.00     0.076 C 
ENDBRANCH   2  10
BRANCH   4  12
ATOM     12  C   UNL d   1     -40.008  15.226  18.944  0.00  0.00     0.001 A 
ATOM     13  C   UNL d   1     -40.192  15.838  19.445  0.00  0.00     0.000 A 
ATOM     14  C   UNL d   1     -40.107  15.736  20.265  0.00  0.00     0.000 A 
ATOM     15  C   UNL d   1     -39.844  15.033  20.564  0.00  0.00     0.000 A 
ATOM     16  C   UNL d   1     -39.660  14.417  20.052  0.00  0.00     0.000 A 
ATOM     17  C   UNL d   1     -39.744  14.515  19.226  0.00  0.00     0.000 A 
BRANCH  15  18
ATOM     18  C   UNL d   1     -39.746  14.909  21.469  0.00  0.00     0.000 C 
ATOM     19  C   UNL d   1     -39.865  13.987  22.057  0.00  0.00     0.000 C 
ATOM     20  C   UNL d   1     -39.455  15.743  22.269  0.00  0.00     0.000 C 
ENDBRANCH  15  18
ENDBRANCH   4  12
TORSDOF 3
ENDMDL
MODEL 5
REMARK VINA RESULT:      -5.7      8.648      9.384
REMARK  3 active torsions:
REMARK  status: ('A' for Active; 'I' for Inactive)
REMARK    1  A    between atoms: S_10  and  C_2 
REMARK    2  A    between atoms: C_9  and  C_4 
REMARK    3  A    between atoms: C_17  and  C_12 
ROOT
ATOM      1  C   UNL d   1     -40.194  14.788  18.760  0.00  0.00     0.092 A 
ATOM      2  C   UNL d   1     -40.357  14.749  17.968  0.00  0.00     0.119 A 
ATOM      3  N   UNL d   1     -39.977  14.180  17.495  0.00  0.00    -0.201 NA
ATOM      4  C   UNL d   1     -39.647  14.257  19.095  0.00  0.00     0.016 A 
ATOM      5  C   UNL d   1     -39.437  13.657  17.831  0.00  0.00     0.280 A 
ATOM      6  C   UNL d   1     -40.570  15.353  19.233  0.00  0.00     0.103 C 
ATOM      7  N   UNL d   1     -40.951  15.922  19.700  0.00  0.00    -0.191 NA
ATOM      8  C   UNL d   1     -39.274  13.696  18.623  0.00  0.00     0.063 A 
ATOM      9  O   UNL d   1     -39.061  13.092  17.358  0.00  0.00    -0.265 OA
ENDROOT
BRANCH   2  10
ATOM     10  S   UNL d   1     -40.900  15.276  17.632  0.00  0.00    -0.093 SA
ATOM     11  C   UNL d   1     -40.934  15.373  16.807  0.00  0.00     0.076 C 
ENDBRANCH   2  10
BRANCH   4  12
ATOM     12  C   UNL d   1     -39.482  14.296  19.898  0.00  0.00     0.001 A 
ATOM     13  C   UNL d   1     -38.797  14.660  20.139  0.00  0.00     0.000 A 
ATOM     14  C   UNL d   1     -38.621  14.704  20.949  0.00  0.00     0.000 A 
ATOM     15  C   UNL d   1     -39.125  14.388  21.496  0.00  0.00     0.000 A 
ATOM     16  C   UNL d   1     -39.817  14.022  21.245  0.00  0.00     0.000 A 
ATOM     17  C   UNL d   1     -39.999  13.975  20.431  0.00  0.00     0.000 A 
BRANCH  15  18
ATOM     18  C   UNL d   1     -38.940  14.432  22.394  0.00  0.00     0.000 C 
ATOM     19  C   UNL d   1     -38.774  13.610  23.106  0.00  0.00     0.000 C 
ATOM     20  C   UNL d   1     -38.827  15.423  23.045  0.00  0.00     0.000 C 
ENDBRANCH  15  18
ENDBRANCH   4  12
TORSDOF 3
ENDMDL
MODEL 6
REMARK VINA RESULT:      -5.7      2.516      4.444
REMARK  3 active torsions:
REMARK  status: ('A' for Active; 'I' for Inactive)
REMARK    1  A    between atoms: S_10  and  C_2 
REMARK    2  A    between atoms: C_9  and  C_4 
REMARK    3  A    between atoms: C_17  and  C_12 
ROOT
ATOM      1  C   UNL d   1     -45.159  11.944  22.808  0.00  0.00     0.092 A 
ATOM      2  C   UNL d   1     -44.457  11.542  22.760  0.00  0.00     0.119 A 
ATOM      3  N   UNL d   1     -43.830  11.858  22.314  0.00  0.00    -0.201 NA
ATOM      4  C   UNL d   1     -45.247  12.669  22.411  0.00  0.00     0.016 A 
ATOM      5  C   UNL d   1     -43.922  12.576  21.923  0.00  0.00     0.280 A 
ATOM      6  C   UNL d   1     -45.784  11.631  23.251  0.00  0.00     0.103 C 
ATOM      7  N   UNL d   1     -46.406  11.313  23.697  0.00  0.00    -0.191 NA
ATOM      8  C   UNL d   1     -44.624  12.977  21.970  0.00  0.00     0.063 A 
ATOM      9  O   UNL d   1     -43.297  12.888  21.479  0.00  0.00    -0.265 OA
ENDROOT
BRANCH   2  10
ATOM     10  S   UNL d   1     -44.366  10.820  23.155  0.00  0.00    -0.093 SA
ATOM     11  C   UNL d   1     -43.615  10.575  23.414  0.00  0.00     0.076 C 
ENDBRANCH   2  10
BRANCH   4  12
ATOM     12  C   UNL d   1     -45.958  13.076  22.459  0.00  0.00     0.001 A 
ATOM     13  C   UNL d   1     -46.058  13.620  23.054  0.00  0.00     0.000 A 
ATOM     14  C   UNL d   1     -46.774  14.037  23.111  0.00  0.00     0.000 A 
ATOM     15  C   UNL d   1     -47.368  13.904  22.581  0.00  0.00     0.000 A 
ATOM     16  C   UNL d   1     -47.261  13.352  21.981  0.00  0.00     0.000 A 
ATOM     17  C   UNL d   1     -46.542  12.929  21.919  0.00  0.00     0.000 A 
BRANCH  15  18
ATOM     18  C   UNL d   1     -48.164  14.359  22.635  0.00  0.00     0.000 C 
ATOM     19  C   UNL d   1     -48.397  15.384  22.310  0.00  0.00     0.000 C 
ATOM     20  C   UNL d   1     -49.186  13.945  23.086  0.00  0.00     0.000 C 
ENDBRANCH  15  18
ENDBRANCH   4  12
TORSDOF 3
ENDMDL
MODEL 7
REMARK VINA RESULT:      -5.5      7.714      9.151
REMARK  3 active torsions:
REMARK  status: ('A' for Active; 'I' for Inactive)
REMARK    1  A    between atoms: S_10  and  C_2 
REMARK    2  A    between atoms: C_9  and  C_4 
REMARK    3  A    between atoms: C_17  and  C_12 
ROOT
ATOM      1  C   UNL d   1     -39.614  14.632  20.318  0.00  0.00     0.092 A 
ATOM      2  C   UNL d   1     -39.526  14.364  21.078  0.00  0.00     0.119 A 
ATOM      3  N   UNL d   1     -40.183  14.060  21.487  0.00  0.00    -0.201 NA
ATOM      4  C   UNL d   1     -40.361  14.601  19.954  0.00  0.00     0.016 A 
ATOM      5  C   UNL d   1     -40.920  14.031  21.122  0.00  0.00     0.280 A 
ATOM      6  C   UNL d   1     -38.962  14.935  19.909  0.00  0.00     0.103 C 
ATOM      7  N   UNL d   1     -38.305  15.238  19.505  0.00  0.00    -0.191 NA
ATOM      8  C   UNL d   1     -41.008  14.299  20.363  0.00  0.00     0.063 A 
ATOM      9  O   UNL d   1     -41.572  13.727  21.531  0.00  0.00    -0.265 OA
ENDROOT
BRANCH   2  10
ATOM     10  S   UNL d   1     -38.784  14.394  21.442  0.00  0.00    -0.093 SA
ATOM     11  C   UNL d   1     -38.703  14.194  22.246  0.00  0.00     0.076 C 
ENDBRANCH   2  10
BRANCH   4  12
ATOM     12  C   UNL d   1     -40.451  14.872  19.185  0.00  0.00     0.001 A 
ATOM     13  C   UNL d   1     -40.413  14.338  18.574  0.00  0.00     0.000 A 
ATOM     14  C   UNL d   1     -40.503  14.603  17.792  0.00  0.00     0.000 A 
ATOM     15  C   UNL d   1     -40.626  15.386  17.637  0.00  0.00     0.000 A 
ATOM     16  C   UNL d   1     -40.663  15.922  18.259  0.00  0.00     0.000 A 
ATOM     17  C   UNL d   1     -40.573  15.660  19.048  0.00  0.00     0.000 A 
BRANCH  15  18
ATOM     18  C   UNL d   1     -40.726  15.690  16.777  0.00  0.00     0.000 C 
ATOM     19  C   UNL d   1     -39.951  15.922  16.031  0.00  0.00     0.000 C 
ATOM     20  C   UNL d   1     -41.756  15.920  16.223  0.00  0.00     0.000 C 
ENDBRANCH  15  18
ENDBRANCH   4  12
TORSDOF 3
ENDMDL
MODEL 8
REMARK VINA RESULT:      -5.2      7.859     10.122
REMARK  3 active torsions:
REMARK  status: ('A' for Active; 'I' for Inactive)
REMARK    1  A    between atoms: S_10  and  C_2 
REMARK    2  A    between atoms: C_9  and  C_4 
REMARK    3  A    between atoms: C_17  and  C_12 
ROOT
ATOM      1  C   UNL d   1     -39.819  14.804  19.265  0.00  0.00     0.092 A 
ATOM      2  C   UNL d   1     -40.045  14.913  20.035  0.00  0.00     0.119 A 
ATOM      3  N   UNL d   1     -39.529  15.288  20.568  0.00  0.00    -0.201 NA
ATOM      4  C   UNL d   1     -39.072  15.068  19.012  0.00  0.00     0.016 A 
ATOM      5  C   UNL d   1     -38.790  15.548  20.313  0.00  0.00     0.280 A 
ATOM      6  C   UNL d   1     -40.332  14.430  18.733  0.00  0.00     0.103 C 
ATOM      7  N   UNL d   1     -40.850  14.056  18.206  0.00  0.00    -0.191 NA
ATOM      8  C   UNL d   1     -38.564  15.439  19.543  0.00  0.00     0.063 A 
ATOM      9  O   UNL d   1     -38.278  15.921  20.845  0.00  0.00    -0.265 OA
ENDROOT
BRANCH   2  10
ATOM     10  S   UNL d   1     -40.788  14.651  20.288  0.00  0.00    -0.093 SA
ATOM     11  C   UNL d   1     -41.058  14.833  21.054  0.00  0.00     0.076 C 
ENDBRANCH   2  10
BRANCH   4  12
ATOM     12  C   UNL d   1     -38.843  14.957  18.232  0.00  0.00     0.001 A 
ATOM     13  C   UNL d   1     -39.023  15.531  17.686  0.00  0.00     0.000 A 
ATOM     14  C   UNL d   1     -38.796  15.428  16.894  0.00  0.00     0.000 A 
ATOM     15  C   UNL d   1     -38.398  14.764  16.666  0.00  0.00     0.000 A 
ATOM     16  C   UNL d   1     -38.219  14.187  17.223  0.00  0.00     0.000 A 
ATOM     17  C   UNL d   1     -38.446  14.285  18.022  0.00  0.00     0.000 A 
BRANCH  15  18
ATOM     18  C   UNL d   1     -38.142  14.640  15.793  0.00  0.00     0.000 C 
ATOM     19  C   UNL d   1     -37.940  15.395  15.019  0.00  0.00     0.000 C 
ATOM     20  C   UNL d   1     -37.956  13.595  15.252  0.00  0.00     0.000 C 
ENDBRANCH  15  18
ENDBRANCH   4  12
TORSDOF 3
ENDMDL
MODEL 9
REMARK VINA RESULT:      -4.4      1.119      1.449
REMARK  3 active torsions:
REMARK  status: ('A' for Active; 'I' for Inactive)
REMARK    1  A    between atoms: S_10  and  C_2 
REMARK    2  A    between atoms: C_9  and  C_4 
REMARK    3  A    between atoms: C_17  and  C_12 
ROOT
ATOM      1  C   UNL d   1     -47.935  12.660  23.049  0.00  0.00     0.092 A 
ATOM      2  C   UNL d   1     -48.727  12.661  23.219  0.00  0.00     0.119 A 
ATOM      3  N   UNL d   1     -49.215  13.259  22.911  0.00  0.00    -0.201 NA
ATOM      4  C   UNL d   1     -47.615  13.258  22.568  0.00  0.00     0.016 A 
ATOM      5  C   UNL d   1     -48.894  13.849  22.435  0.00  0.00     0.280 A 
ATOM      6  C   UNL d   1     -47.447  12.065  23.355  0.00  0.00     0.103 C 
ATOM      7  N   UNL d   1     -46.965  11.466  23.664  0.00  0.00    -0.191 NA
ATOM      8  C   UNL d   1     -48.102  13.849  22.265  0.00  0.00     0.063 A 
ATOM      9  O   UNL d   1     -49.381  14.444  22.129  0.00  0.00    -0.265 OA
ENDROOT
BRANCH   2  10
ATOM     10  S   UNL d   1     -49.047  12.067  23.698  0.00  0.00    -0.093 SA
ATOM     11  C   UNL d   1     -49.864  11.911  23.683  0.00  0.00     0.076 C 
ENDBRANCH   2  10
BRANCH   4  12
ATOM     12  C   UNL d   1     -46.813  13.258  22.396  0.00  0.00     0.001 A 
ATOM     13  C   UNL d   1     -46.319  13.738  22.827  0.00  0.00     0.000 A 
ATOM     14  C   UNL d   1     -45.506  13.744  22.660  0.00  0.00     0.000 A 
ATOM     15  C   UNL d   1     -45.205  13.277  22.074  0.00  0.00     0.000 A 
ATOM     16  C   UNL d   1     -45.709  12.793  21.642  0.00  0.00     0.000 A 
ATOM     17  C   UNL d   1     -46.529  12.783  21.805  0.00  0.00     0.000 A 
BRANCH  15  18
ATOM     18  C   UNL d   1     -44.307  13.277  21.882  0.00  0.00     0.000 C 
ATOM     19  C   UNL d   1     -43.646  12.423  21.672  0.00  0.00     0.000 C 
ATOM     20  C   UNL d   1     -43.600  14.232  21.806  0.00  0.00     0.000 C 
ENDBRANCH  15  18
ENDBRANCH   4  12
TORSDOF 3
ENDMDL
