MODEL 1
REMARK VINA RESULT:      -2.6      0.000      0.000
REMARK  3 active torsions:
REMARK  status: ('A' for Active; 'I' for Inactive)
REMARK    1  A    between atoms: C_6  and  C_5 
REMARK    2  A    between atoms: C_7  and  C_6 
REMARK    3  A    between atoms: O_11  and  C_7 
ROOT
ATOM      1  N   UNL d   1      32.180  23.701 -20.023  0.00  0.00    -0.163 NA
ATOM      2  C   UNL d   1      32.700  23.213 -19.603  0.00  0.00     0.313 A 
ATOM      3  C   UNL d   1      32.021  23.344 -20.748  0.00  0.00     0.288 A 
ATOM      4  S   UNL d   1      32.858  22.558 -20.077  0.00  0.00    -0.021 SA
ATOM      5  C   UNL d   1      32.444  22.636 -20.777  0.00  0.00     0.097 A 
ATOM      6  O   UNL d   1      33.000  23.362 -18.850  0.00  0.00    -0.258 OA
ATOM      7  O   UNL d   1      31.527  23.645 -21.341  0.00  0.00    -0.265 OA
ENDROOT
BRANCH   5   8
ATOM      8  C   UNL d   1      32.443  22.106 -21.408  0.00  0.00     0.080 C 
BRANCH   8   9
ATOM      9  C   UNL d   1      32.458  21.297 -21.264  0.00  0.00     0.297 C 
ATOM     10  O   UNL d   1      31.805  20.926 -20.916  0.00  0.00    -0.259 OA
BRANCH   9  11
ATOM     11  O   UNL d   1      33.116  20.850 -21.461  0.00  0.00    -0.296 OA
ATOM     12  C   UNL d   1      33.026  20.108 -21.802  0.00  0.00     0.185 C 
ENDBRANCH   9  11
ENDBRANCH   8   9
ENDBRANCH   5   8
TORSDOF 3
ENDMDL
MODEL 2
REMARK VINA RESULT:      -2.2      6.363      7.240
REMARK  3 active torsions:
REMARK  status: ('A' for Active; 'I' for Inactive)
REMARK    1  A    between atoms: C_6  and  C_5 
REMARK    2  A    between atoms: C_7  and  C_6 
REMARK    3  A    between atoms: O_11  and  C_7 
ROOT
ATOM      1  N   UNL d   1      28.376  16.756 -23.912  0.00  0.00    -0.163 NA
ATOM      2  C   UNL d   1      28.807  16.095 -23.663  0.00  0.00     0.313 A 
ATOM      3  C   UNL d   1      28.890  17.262 -24.311  0.00  0.00     0.288 A 
ATOM      4  S   UNL d   1      29.585  16.201 -23.911  0.00  0.00    -0.021 SA
ATOM      5  C   UNL d   1      29.637  16.914 -24.307  0.00  0.00     0.097 A 
ATOM      6  O   UNL d   1      28.506  15.453 -23.243  0.00  0.00    -0.258 OA
ATOM      7  O   UNL d   1      28.688  17.990 -24.653  0.00  0.00    -0.265 OA
ENDROOT
BRANCH   5   8
ATOM      8  C   UNL d   1      30.315  17.237 -24.648  0.00  0.00     0.080 C 
BRANCH   8   9
ATOM      9  C   UNL d   1      31.058  16.981 -24.407  0.00  0.00     0.297 C 
ATOM     10  O   UNL d   1      31.368  16.273 -24.704  0.00  0.00    -0.259 OA
BRANCH   9  11
ATOM     11  O   UNL d   1      31.498  17.419 -23.873  0.00  0.00    -0.296 OA
ATOM     12  C   UNL d   1      32.296  17.556 -24.007  0.00  0.00     0.185 C 
ENDBRANCH   9  11
ENDBRANCH   8   9
ENDBRANCH   5   8
TORSDOF 3
ENDMDL
MODEL 3
REMARK VINA RESULT:      -2.1      5.190      6.651
REMARK  3 active torsions:
REMARK  status: ('A' for Active; 'I' for Inactive)
REMARK    1  A    between atoms: C_6  and  C_5 
REMARK    2  A    between atoms: C_7  and  C_6 
REMARK    3  A    between atoms: O_11  and  C_7 
ROOT
ATOM      1  N   UNL d   1      30.279  16.276 -24.062  0.00  0.00    -0.163 NA
ATOM      2  C   UNL d   1      30.286  16.988 -24.482  0.00  0.00     0.313 A 
ATOM      3  C   UNL d   1      30.995  16.208 -23.660  0.00  0.00     0.288 A 
ATOM      4  S   UNL d   1      31.009  17.354 -24.335  0.00  0.00    -0.021 SA
ATOM      5  C   UNL d   1      31.444  16.878 -23.833  0.00  0.00     0.097 A 
ATOM      6  O   UNL d   1      29.677  17.273 -24.959  0.00  0.00    -0.258 OA
ATOM      7  O   UNL d   1      31.221  15.578 -23.171  0.00  0.00    -0.265 OA
ENDROOT
BRANCH   5   8
ATOM      8  C   UNL d   1      32.200  17.033 -23.543  0.00  0.00     0.080 C 
BRANCH   8   9
ATOM      9  C   UNL d   1      32.512  17.791 -23.595  0.00  0.00     0.297 C 
ATOM     10  O   UNL d   1      32.820  18.064 -24.313  0.00  0.00    -0.259 OA
BRANCH   9  11
ATOM     11  O   UNL d   1      32.523  18.284 -22.940  0.00  0.00    -0.296 OA
ATOM     12  C   UNL d   1      33.203  18.700 -22.746  0.00  0.00     0.185 C 
ENDBRANCH   9  11
ENDBRANCH   8   9
ENDBRANCH   5   8
TORSDOF 3
ENDMDL
MODEL 4
REMARK VINA RESULT:      -2.0      5.073      6.135
REMARK  3 active torsions:
REMARK  status: ('A' for Active; 'I' for Inactive)
REMARK    1  A    between atoms: C_6  and  C_5 
REMARK    2  A    between atoms: C_7  and  C_6 
REMARK    3  A    between atoms: O_11  and  C_7 
ROOT
ATOM      1  N   UNL d   1      32.559  18.488 -23.913  0.00  0.00    -0.163 NA
ATOM      2  C   UNL d   1      32.720  18.097 -23.202  0.00  0.00     0.313 A 
ATOM      3  C   UNL d   1      32.034  18.026 -24.348  0.00  0.00     0.288 A 
ATOM      4  S   UNL d   1      32.290  17.394 -23.206  0.00  0.00    -0.021 SA
ATOM      5  C   UNL d   1      31.871  17.349 -23.905  0.00  0.00     0.097 A 
ATOM      6  O   UNL d   1      33.219  18.367 -22.604  0.00  0.00    -0.258 OA
ATOM      7  O   UNL d   1      31.727  18.210 -25.095  0.00  0.00    -0.265 OA
ENDROOT
BRANCH   5   8
ATOM      8  C   UNL d   1      31.368  16.738 -24.138  0.00  0.00     0.080 C 
BRANCH   8   9
ATOM      9  C   UNL d   1      31.151  16.157 -23.597  0.00  0.00     0.297 C 
ATOM     10  O   UNL d   1      31.684  15.556 -23.400  0.00  0.00    -0.259 OA
BRANCH   9  11
ATOM     11  O   UNL d   1      30.409  16.168 -23.249  0.00  0.00    -0.296 OA
ATOM     12  C   UNL d   1      29.970  15.476 -23.190  0.00  0.00     0.185 C 
ENDBRANCH   9  11
ENDBRANCH   8   9
ENDBRANCH   5   8
TORSDOF 3
ENDMDL
MODEL 5
REMARK VINA RESULT:      -2.0      6.301      7.290
REMARK  3 active torsions:
REMARK  status: ('A' for Active; 'I' for Inactive)
REMARK    1  A    between atoms: C_6  and  C_5 
REMARK    2  A    between atoms: C_7  and  C_6 
REMARK    3  A    between atoms: O_11  and  C_7 
ROOT
ATOM      1  N   UNL d   1      31.980  16.824 -23.843  0.00  0.00    -0.163 NA
ATOM      2  C   UNL d   1      31.539  17.381 -24.267  0.00  0.00     0.313 A 
ATOM      3  C   UNL d   1      31.477  16.208 -23.627  0.00  0.00     0.288 A 
ATOM      4  S   UNL d   1      30.765  17.102 -24.309  0.00  0.00    -0.021 SA
ATOM      5  C   UNL d   1      30.726  16.385 -23.918  0.00  0.00     0.097 A 
ATOM      6  O   UNL d   1      31.828  18.085 -24.586  0.00  0.00    -0.258 OA
ATOM      7  O   UNL d   1      31.690  15.534 -23.196  0.00  0.00    -0.265 OA
ENDROOT
BRANCH   5   8
ATOM      8  C   UNL d   1      30.056  15.913 -23.825  0.00  0.00     0.080 C 
BRANCH   8   9
ATOM      9  C   UNL d   1      29.320  16.196 -24.056  0.00  0.00     0.297 C 
ATOM     10  O   UNL d   1      29.108  16.195 -24.856  0.00  0.00    -0.259 OA
BRANCH   9  11
ATOM     11  O   UNL d   1      28.789  16.482 -23.501  0.00  0.00    -0.296 OA
ATOM     12  C   UNL d   1      28.019  16.198 -23.480  0.00  0.00     0.185 C 
ENDBRANCH   9  11
ENDBRANCH   8   9
ENDBRANCH   5   8
TORSDOF 3
ENDMDL
MODEL 6
REMARK VINA RESULT:      -2.0      5.147      6.088
REMARK  3 active torsions:
REMARK  status: ('A' for Active; 'I' for Inactive)
REMARK    1  A    between atoms: C_6  and  C_5 
REMARK    2  A    between atoms: C_7  and  C_6 
REMARK    3  A    between atoms: O_11  and  C_7 
ROOT
ATOM      1  N   UNL d   1      32.927  18.748 -23.746  0.00  0.00    -0.163 NA
ATOM      2  C   UNL d   1      32.509  18.560 -24.435  0.00  0.00     0.313 A 
ATOM      3  C   UNL d   1      32.869  18.110 -23.229  0.00  0.00     0.288 A 
ATOM      4  S   UNL d   1      32.197  17.805 -24.335  0.00  0.00    -0.021 SA
ATOM      5  C   UNL d   1      32.416  17.528 -23.598  0.00  0.00     0.097 A 
ATOM      6  O   UNL d   1      32.426  19.046 -25.097  0.00  0.00    -0.258 OA
ATOM      7  O   UNL d   1      33.206  18.063 -22.473  0.00  0.00    -0.265 OA
ENDROOT
BRANCH   5   8
ATOM      8  C   UNL d   1      32.222  16.796 -23.272  0.00  0.00     0.080 C 
BRANCH   8   9
ATOM      9  C   UNL d   1      31.653  16.324 -23.631  0.00  0.00     0.297 C 
ATOM     10  O   UNL d   1      31.846  15.883 -24.304  0.00  0.00    -0.259 OA
BRANCH   9  11
ATOM     11  O   UNL d   1      30.891  16.286 -23.330  0.00  0.00    -0.296 OA
ATOM     12  C   UNL d   1      30.501  15.565 -23.282  0.00  0.00     0.185 C 
ENDBRANCH   9  11
ENDBRANCH   8   9
ENDBRANCH   5   8
TORSDOF 3
ENDMDL
MODEL 7
REMARK VINA RESULT:      -1.9      1.830      3.083
REMARK  3 active torsions:
REMARK  status: ('A' for Active; 'I' for Inactive)
REMARK    1  A    between atoms: C_6  and  C_5 
REMARK    2  A    between atoms: C_7  and  C_6 
REMARK    3  A    between atoms: O_11  and  C_7 
ROOT
ATOM      1  N   UNL d   1      33.225  20.040 -20.903  0.00  0.00    -0.163 NA
ATOM      2  C   UNL d   1      33.153  20.105 -21.725  0.00  0.00     0.313 A 
ATOM      3  C   UNL d   1      33.191  20.798 -20.581  0.00  0.00     0.288 A 
ATOM      4  S   UNL d   1      33.076  20.905 -21.903  0.00  0.00    -0.021 SA
ATOM      5  C   UNL d   1      33.098  21.330 -21.205  0.00  0.00     0.097 A 
ATOM      6  O   UNL d   1      33.160  19.478 -22.261  0.00  0.00    -0.258 OA
ATOM      7  O   UNL d   1      33.240  20.988 -19.777  0.00  0.00    -0.265 OA
ENDROOT
BRANCH   5   8
ATOM      8  C   UNL d   1      33.040  22.149 -21.127  0.00  0.00     0.080 C 
BRANCH   8   9
ATOM      9  C   UNL d   1      32.541  22.573 -21.624  0.00  0.00     0.297 C 
ATOM     10  O   UNL d   1      32.768  22.729 -22.404  0.00  0.00    -0.259 OA
BRANCH   9  11
ATOM     11  O   UNL d   1      31.816  22.845 -21.354  0.00  0.00    -0.296 OA
ATOM     12  C   UNL d   1      31.639  23.646 -21.379  0.00  0.00     0.185 C 
ENDBRANCH   9  11
ENDBRANCH   8   9
ENDBRANCH   5   8
TORSDOF 3
ENDMDL
MODEL 8
REMARK VINA RESULT:      -1.8      1.556      2.835
REMARK  3 active torsions:
REMARK  status: ('A' for Active; 'I' for Inactive)
REMARK    1  A    between atoms: C_6  and  C_5 
REMARK    2  A    between atoms: C_7  and  C_6 
REMARK    3  A    between atoms: O_11  and  C_7 
ROOT
ATOM      1  N   UNL d   1      33.240  20.816 -22.373  0.00  0.00    -0.163 NA
ATOM      2  C   UNL d   1      33.181  20.511 -21.606  0.00  0.00     0.313 A 
ATOM      3  C   UNL d   1      33.202  21.638 -22.326  0.00  0.00     0.288 A 
ATOM      4  S   UNL d   1      33.106  21.151 -21.092  0.00  0.00    -0.021 SA
ATOM      5  C   UNL d   1      33.119  21.840 -21.531  0.00  0.00     0.097 A 
ATOM      6  O   UNL d   1      33.194  19.712 -21.402  0.00  0.00    -0.258 OA
ATOM      7  O   UNL d   1      33.240  22.164 -22.965  0.00  0.00    -0.265 OA
ENDROOT
BRANCH   5   8
ATOM      8  C   UNL d   1      33.060  22.609 -21.238  0.00  0.00     0.080 C 
BRANCH   8   9
ATOM      9  C   UNL d   1      32.574  22.766 -20.593  0.00  0.00     0.297 C 
ATOM     10  O   UNL d   1      31.752  22.770 -20.686  0.00  0.00    -0.259 OA
BRANCH   9  11
ATOM     11  O   UNL d   1      32.896  22.919 -19.855  0.00  0.00    -0.296 OA
ATOM     12  C   UNL d   1      32.482  23.369 -19.308  0.00  0.00     0.185 C 
ENDBRANCH   9  11
ENDBRANCH   8   9
ENDBRANCH   5   8
TORSDOF 3
ENDMDL
MODEL 9
REMARK VINA RESULT:      -1.8      1.511      2.033
REMARK  3 active torsions:
REMARK  status: ('A' for Active; 'I' for Inactive)
REMARK    1  A    between atoms: C_6  and  C_5 
REMARK    2  A    between atoms: C_7  and  C_6 
REMARK    3  A    between atoms: O_11  and  C_7 
ROOT
ATOM      1  N   UNL d   1      32.148  23.671 -22.593  0.00  0.00    -0.163 NA
ATOM      2  C   UNL d   1      32.819  23.277 -22.874  0.00  0.00     0.313 A 
ATOM      3  C   UNL d   1      31.978  23.384 -21.840  0.00  0.00     0.288 A 
ATOM      4  S   UNL d   1      33.057  22.748 -22.289  0.00  0.00    -0.021 SA
ATOM      5  C   UNL d   1      32.544  22.813 -21.656  0.00  0.00     0.097 A 
ATOM      6  O   UNL d   1      33.178  23.397 -23.607  0.00  0.00    -0.258 OA
ATOM      7  O   UNL d   1      31.351  23.627 -21.356  0.00  0.00    -0.265 OA
ENDROOT
BRANCH   5   8
ATOM      8  C   UNL d   1      32.578  22.385 -20.952  0.00  0.00     0.080 C 
BRANCH   8   9
ATOM      9  C   UNL d   1      32.583  21.563 -20.971  0.00  0.00     0.297 C 
ATOM     10  O   UNL d   1      31.921  21.152 -21.249  0.00  0.00    -0.259 OA
BRANCH   9  11
ATOM     11  O   UNL d   1      33.240  21.144 -20.716  0.00  0.00    -0.296 OA
ATOM     12  C   UNL d   1      33.223  20.323 -20.692  0.00  0.00     0.185 C 
ENDBRANCH   9  11
ENDBRANCH   8   9
ENDBRANCH   5   8
TORSDOF 3
ENDMDL
