MODEL 1
REMARK VINA RESULT:      31.2      0.000      0.000
REMARK  2 active torsions:
REMARK  status: ('A' for Active; 'I' for Inactive)
REMARK    1  A    between atoms: C_2  and  S_1 
REMARK    2  A    between atoms: N_3  and  S_1 
ROOT
ATOM      1  S   UNL d   1     -54.755-101.238 -38.029  0.00  0.00     0.272 S 
ATOM      2  O   UNL d   1     -54.712-100.740 -38.685  0.00  0.00    -0.200 OA
ATOM      3  O   UNL d   1     -54.792-102.057 -38.137  0.00  0.00    -0.200 OA
ENDROOT
BRANCH   1   4
ATOM      4  C   UNL d   1     -54.749-101.558 -38.789  0.00  0.00     0.115 A 
ATOM      5  C   UNL d   1     -54.753-102.369 -38.885  0.00  0.00     0.071 A 
ATOM      6  C   UNL d   1     -54.748-102.694 -39.637  0.00  0.00     0.024 A 
ATOM      7 CL   UNL d   1     -54.763-102.878 -38.235  0.00  0.00    -0.082 Cl
ATOM      8  C   UNL d   1     -54.738-102.200 -40.302  0.00  0.00     0.059 A 
ATOM      9  C   UNL d   1     -54.734-101.381 -40.196  0.00  0.00     0.011 A 
ATOM     10 CL   UNL d   1     -54.732-102.524 -41.059  0.00  0.00    -0.082 Cl
ATOM     11  C   UNL d   1     -54.739-101.058 -39.442  0.00  0.00     0.015 A 
ATOM     12  C   UNL d   1     -54.724-100.891 -40.860  0.00  0.00     0.001 C 
ENDBRANCH   1   4
BRANCH   1  13
ATOM     13  N   UNL d   1     -54.760-100.921 -37.268  0.00  0.00    -0.229 N 
ATOM     14  C   UNL d   1     -54.814-101.517 -36.660  0.00  0.00     0.092 A 
ATOM     15  C   UNL d   1     -54.835-101.500 -35.940  0.00  0.00     0.020 A 
ATOM     16  C   UNL d   1     -54.811-100.817 -35.462  0.00  0.00     0.002 A 
ATOM     17  C   UNL d   1     -54.755 -99.990 -35.742  0.00  0.00     0.002 A 
ATOM     18  C   UNL d   1     -54.712 -99.695 -36.575  0.00  0.00     0.020 A 
ATOM     19  C   UNL d   1     -54.718-100.178 -37.269  0.00  0.00     0.092 A 
ENDBRANCH   1  13
TORSDOF 2
ENDMDL
