MODEL 1
REMARK VINA RESULT:      13.4      0.000      0.000
REMARK  2 active torsions:
REMARK  status: ('A' for Active; 'I' for Inactive)
REMARK    1  A    between atoms: C_6  and  C_1 
REMARK    2  A    between atoms: C_8  and  C_5 
ROOT
ATOM      1  C   UNL d   1     -58.472 -98.814 -43.987  0.00  0.00     0.169 A 
ATOM      2  C   UNL d   1     -57.662 -98.820 -43.784  0.00  0.00     0.048 A 
ATOM      3  N   UNL d   1     -57.750 -98.767 -45.116  0.00  0.00    -0.148 NA
ATOM      4  N   UNL d   1     -58.520 -98.781 -44.816  0.00  0.00    -0.142 NA
ATOM      5  C   UNL d   1     -57.226 -98.792 -44.466  0.00  0.00     0.105 A 
ENDROOT
BRANCH   5   6
ATOM      6  C   UNL d   1     -56.423 -98.788 -44.512  0.00  0.00     0.019 A 
ATOM      7  C   UNL d   1     -55.971 -98.814 -43.822  0.00  0.00     0.002 A 
ATOM      8  C   UNL d   1     -55.146 -98.811 -43.855  0.00  0.00     0.000 A 
ATOM      9  C   UNL d   1     -54.779 -98.781 -44.594  0.00  0.00     0.000 A 
ATOM     10  C   UNL d   1     -55.223 -98.755 -45.293  0.00  0.00     0.000 A 
ATOM     11  C   UNL d   1     -56.042 -98.759 -45.244  0.00  0.00     0.002 A 
ENDBRANCH   5   6
BRANCH   1  12
ATOM     12  C   UNL d   1     -59.080 -98.837 -43.447  0.00  0.00     0.231 C 
ATOM     13  O   UNL d   1     -58.960 -98.781 -42.657  0.00  0.00    -0.643 OA
ATOM     14  O   UNL d   1     -59.859 -98.920 -43.699  0.00  0.00    -0.643 OA
ENDBRANCH   1  12
TORSDOF 2
ENDMDL
