MODEL 1
REMARK VINA RESULT:      16.5      0.000      0.000
REMARK  6 active torsions:
REMARK  status: ('A' for Active; 'I' for Inactive)
REMARK       I    between atoms: C_2  and  N_1 
REMARK    1  A    between atoms: C_3  and  N_1 
REMARK    2  A    between atoms: C_6  and  C_2 
REMARK    3  A    between atoms: N_7  and  C_3 
REMARK    4  A    between atoms: C_8  and  N_7 
REMARK    5  A    between atoms: C_12  and  C_8 
REMARK    6  A    between atoms: C_9  and  C_12 
ROOT
ATOM      1  C   UNL d   1      14.123  12.242  -1.250  0.00  0.00     0.179 C 
ATOM      2  S   UNL d   1      13.866  11.780  -0.626  0.00  0.00    -0.040 SA
ENDROOT
BRANCH   1   3
ATOM      3  N   UNL d   1      14.324  13.027  -1.129  0.00  0.00    -0.299 N 
ATOM      4  C   UNL d   1      14.827  13.214  -0.522  0.00  0.00     0.259 C 
ATOM      5  O   UNL d   1      15.131  12.631  -0.037  0.00  0.00    -0.267 OA
ATOM      6  H   UNL d   1      14.022  13.606  -1.610  0.00  0.00     0.171 HD
BRANCH   4   7
ATOM      7  C   UNL d   1      15.033  14.008  -0.395  0.00  0.00     0.056 A 
ATOM      8  C   UNL d   1      15.812  14.232  -0.421  0.00  0.00     0.005 A 
ATOM      9  C   UNL d   1      16.022  15.016  -0.296  0.00  0.00     0.000 A 
ATOM     10  C   UNL d   1      15.435  15.569  -0.145  0.00  0.00     0.000 A 
ATOM     11  C   UNL d   1      14.656  15.345  -0.120  0.00  0.00     0.000 A 
ATOM     12  C   UNL d   1      14.447  14.561  -0.245  0.00  0.00     0.005 A 
ENDBRANCH   4   7
ENDBRANCH   1   3
BRANCH   1  13
ATOM     13  N   UNL d   1      14.182  11.924  -2.003  0.00  0.00    -0.330 N 
ATOM     14  H   UNL d   1      14.909  11.748  -2.317  0.00  0.00     0.168 HD
BRANCH  13  15
ATOM     15  C   UNL d   1      13.502  11.787  -2.431  0.00  0.00     0.074 C 
BRANCH  15  16
ATOM     16  C   UNL d   1      13.147  12.412  -2.836  0.00  0.00     0.018 C 
BRANCH  16  17
ATOM     17  C   UNL d   1      13.154  12.428  -3.671  0.00  0.00     0.002 A 
ATOM     18  C   UNL d   1      12.868  11.781  -4.105  0.00  0.00     0.000 A 
ATOM     19  C   UNL d   1      12.878  11.802  -4.929  0.00  0.00     0.000 A 
ATOM     20  C   UNL d   1      13.171  12.468  -5.325  0.00  0.00     0.000 A 
ATOM     21  C   UNL d   1      13.456  13.113  -4.897  0.00  0.00     0.000 A 
ATOM     22  C   UNL d   1      13.447  13.094  -4.067  0.00  0.00     0.000 A 
ENDBRANCH  16  17
ENDBRANCH  15  16
ENDBRANCH  13  15
ENDBRANCH   1  13
TORSDOF 6
ENDMDL
