MODEL 1
REMARK VINA RESULT:      -2.2      0.000      0.000
REMARK  2 active torsions:
REMARK  status: ('A' for Active; 'I' for Inactive)
REMARK    1  A    between atoms: N_9  and  C_3 
REMARK    2  A    between atoms: C_11  and  C_4 
ROOT
ATOM      1  N   UNL d   1      59.558  -9.551  31.681  0.00  0.00    -0.196 N 
ATOM      2  C   UNL d   1      59.607  -9.508  32.530  0.00  0.00     0.167 A 
ATOM      3  C   UNL d   1      58.837  -9.679  31.340  0.00  0.00     0.153 A 
ATOM      4  C   UNL d   1      60.322  -9.381  32.890  0.00  0.00     0.057 A 
ATOM      5  N   UNL d   1      60.962  -9.334  31.603  0.00  0.00    -0.161 NA
ATOM      6  N   UNL d   1      58.932  -9.596  32.981  0.00  0.00    -0.227 NA
ATOM      7  C   UNL d   1      58.150  -9.768  31.787  0.00  0.00     0.057 A 
ATOM      8  C   UNL d   1      61.009  -9.293  32.425  0.00  0.00     0.124 A 
ATOM      9  C   UNL d   1      58.198  -9.726  32.622  0.00  0.00     0.086 A 
ATOM     10  C   UNL d   1      57.487  -9.818  33.097  0.00  0.00     0.021 C 
ENDROOT
BRANCH   4  11
ATOM     11  C   UNL d   1      60.370  -9.339  33.713  0.00  0.00     0.005 A 
ATOM     12  C   UNL d   1      60.916  -9.794  34.111  0.00  0.00     0.001 A 
ATOM     13  C   UNL d   1      60.963  -9.753  34.933  0.00  0.00     0.011 A 
ATOM     14  C   UNL d   1      60.464  -9.256  35.344  0.00  0.00     0.058 A 
ATOM     15  C   UNL d   1      59.917  -8.802  34.932  0.00  0.00     0.011 A 
ATOM     16 CL   UNL d   1      60.513  -9.213  36.207  0.00  0.00    -0.082 Cl
ATOM     17  C   UNL d   1      59.870  -8.843  34.123  0.00  0.00     0.001 A 
ENDBRANCH   4  11
BRANCH   3  18
ATOM     18  N   UNL d   1      58.784  -9.723  30.483  0.00  0.00    -0.285 N 
ATOM     19  C   UNL d   1      59.500  -9.768  30.012  0.00  0.00     0.108 A 
ATOM     20  C   UNL d   1      59.443  -9.812  29.164  0.00  0.00     0.142 A 
ATOM     21  O   UNL d   1      58.669  -9.811  28.769  0.00  0.00    -0.300 OA
ATOM     22  C   UNL d   1      57.963  -9.765  29.261  0.00  0.00     0.142 A 
ATOM     23  C   UNL d   1      58.020  -9.722  30.109  0.00  0.00     0.108 A 
ENDBRANCH   3  18
TORSDOF 2
ENDMDL
MODEL 2
REMARK VINA RESULT:      -2.0      9.793     10.397
REMARK  2 active torsions:
REMARK  status: ('A' for Active; 'I' for Inactive)
REMARK    1  A    between atoms: N_9  and  C_3 
REMARK    2  A    between atoms: C_11  and  C_4 
ROOT
ATOM      1  N   UNL d   1      57.429  -0.206  31.284  0.00  0.00    -0.196 N 
ATOM      2  C   UNL d   1      58.167  -0.081  30.880  0.00  0.00     0.167 A 
ATOM      3  C   UNL d   1      57.388  -0.048  32.075  0.00  0.00     0.153 A 
ATOM      4  C   UNL d   1      58.227  -0.235  30.086  0.00  0.00     0.057 A 
ATOM      5  N   UNL d   1      56.846  -0.636  30.059  0.00  0.00    -0.161 NA
ATOM      6  N   UNL d   1      58.816   0.193  31.293  0.00  0.00    -0.227 NA
ATOM      7  C   UNL d   1      58.036   0.229  32.501  0.00  0.00     0.057 A 
ATOM      8  C   UNL d   1      57.562  -0.515  29.668  0.00  0.00     0.124 A 
ATOM      9  C   UNL d   1      58.764   0.352  32.103  0.00  0.00     0.086 A 
ATOM     10  C   UNL d   1      59.446   0.641  32.539  0.00  0.00     0.021 C 
ENDROOT
BRANCH   4  11
ATOM     11  C   UNL d   1      58.943  -0.114  29.694  0.00  0.00     0.005 A 
ATOM     12  C   UNL d   1      59.557  -0.638  29.801  0.00  0.00     0.001 A 
ATOM     13  C   UNL d   1      60.273  -0.517  29.409  0.00  0.00     0.011 A 
ATOM     14  C   UNL d   1      60.363   0.126  28.916  0.00  0.00     0.058 A 
ATOM     15  C   UNL d   1      59.736   0.648  28.816  0.00  0.00     0.011 A 
ATOM     16 CL   UNL d   1      61.113   0.253  28.506  0.00  0.00    -0.082 Cl
ATOM     17  C   UNL d   1      59.032   0.529  29.201  0.00  0.00     0.001 A 
ENDBRANCH   4  11
BRANCH   3  18
ATOM     18  N   UNL d   1      56.643  -0.173  32.487  0.00  0.00    -0.285 N 
ATOM     19  C   UNL d   1      56.150   0.499  32.690  0.00  0.00     0.108 A 
ATOM     20  C   UNL d   1      55.413   0.371  33.098  0.00  0.00     0.142 A 
ATOM     21  O   UNL d   1      55.156  -0.431  33.311  0.00  0.00    -0.300 OA
ATOM     22  C   UNL d   1      55.666  -1.091  33.097  0.00  0.00     0.142 A 
ATOM     23  C   UNL d   1      56.402  -0.964  32.690  0.00  0.00     0.108 A 
ENDBRANCH   3  18
TORSDOF 2
ENDMDL
MODEL 3
REMARK VINA RESULT:      -1.6      9.314      9.644
REMARK  2 active torsions:
REMARK  status: ('A' for Active; 'I' for Inactive)
REMARK    1  A    between atoms: N_9  and  C_3 
REMARK    2  A    between atoms: C_11  and  C_4 
ROOT
ATOM      1  N   UNL d   1      58.807  -0.309  30.459  0.00  0.00    -0.196 N 
ATOM      2  C   UNL d   1      58.084  -0.440  30.888  0.00  0.00     0.167 A 
ATOM      3  C   UNL d   1      58.947  -0.744  29.793  0.00  0.00     0.153 A 
ATOM      4  C   UNL d   1      57.927  -0.012  31.560  0.00  0.00     0.057 A 
ATOM      5  N   UNL d   1      59.178   0.681  31.411  0.00  0.00    -0.161 NA
ATOM      6  N   UNL d   1      57.548  -0.996  30.623  0.00  0.00    -0.227 NA
ATOM      7  C   UNL d   1      58.413  -1.307  29.517  0.00  0.00     0.057 A 
ATOM      8  C   UNL d   1      58.477   0.555  31.827  0.00  0.00     0.124 A 
ATOM      9  C   UNL d   1      57.701  -1.436  29.940  0.00  0.00     0.086 A 
ATOM     10  C   UNL d   1      57.137  -2.022  29.660  0.00  0.00     0.021 C 
ENDROOT
BRANCH   4  11
ATOM     11  C   UNL d   1      57.226  -0.139  31.976  0.00  0.00     0.005 A 
ATOM     12  C   UNL d   1      56.586   0.349  31.849  0.00  0.00     0.001 A 
ATOM     13  C   UNL d   1      55.885   0.222  32.265  0.00  0.00     0.011 A 
ATOM     14  C   UNL d   1      55.836  -0.389  32.801  0.00  0.00     0.058 A 
ATOM     15  C   UNL d   1      56.488  -0.875  32.922  0.00  0.00     0.011 A 
ATOM     16 CL   UNL d   1      55.101  -0.522  33.238  0.00  0.00    -0.082 Cl
ATOM     17  C   UNL d   1      57.178  -0.750  32.512  0.00  0.00     0.001 A 
ENDBRANCH   4  11
BRANCH   3  18
ATOM     18  N   UNL d   1      59.677  -0.615  29.357  0.00  0.00    -0.285 N 
ATOM     19  C   UNL d   1      60.289  -1.216  29.361  0.00  0.00     0.108 A 
ATOM     20  C   UNL d   1      61.010  -1.084  28.928  0.00  0.00     0.142 A 
ATOM     21  O   UNL d   1      61.133  -0.350  28.481  0.00  0.00    -0.300 OA
ATOM     22  C   UNL d   1      60.506   0.241  28.490  0.00  0.00     0.142 A 
ATOM     23  C   UNL d   1      59.785   0.110  28.923  0.00  0.00     0.108 A 
ENDBRANCH   3  18
TORSDOF 2
ENDMDL
MODEL 4
REMARK VINA RESULT:      -0.6      9.211      9.572
REMARK  2 active torsions:
REMARK  status: ('A' for Active; 'I' for Inactive)
REMARK    1  A    between atoms: N_9  and  C_3 
REMARK    2  A    between atoms: C_11  and  C_4 
ROOT
ATOM      1  N   UNL d   1      57.411  -0.860  31.184  0.00  0.00    -0.196 N 
ATOM      2  C   UNL d   1      57.169  -0.513  31.922  0.00  0.00     0.167 A 
ATOM      3  C   UNL d   1      58.144  -0.686  30.895  0.00  0.00     0.153 A 
ATOM      4  C   UNL d   1      56.436  -0.676  32.229  0.00  0.00     0.057 A 
ATOM      5  N   UNL d   1      56.154  -1.522  31.100  0.00  0.00    -0.161 NA
ATOM      6  N   UNL d   1      57.677  -0.015  32.323  0.00  0.00    -0.227 NA
ATOM      7  C   UNL d   1      58.664  -0.185  31.291  0.00  0.00     0.057 A 
ATOM      8  C   UNL d   1      55.920  -1.186  31.816  0.00  0.00     0.124 A 
ATOM      9  C   UNL d   1      58.427   0.157  32.018  0.00  0.00     0.086 A 
ATOM     10  C   UNL d   1      58.962   0.682  32.440  0.00  0.00     0.021 C 
ENDROOT
BRANCH   4  11
ATOM     11  C   UNL d   1      56.202  -0.340  32.945  0.00  0.00     0.005 A 
ATOM     12  C   UNL d   1      56.437  -0.679  33.647  0.00  0.00     0.001 A 
ATOM     13  C   UNL d   1      56.203  -0.342  34.363  0.00  0.00     0.011 A 
ATOM     14  C   UNL d   1      55.738   0.328  34.365  0.00  0.00     0.058 A 
ATOM     15  C   UNL d   1      55.507   0.661  33.650  0.00  0.00     0.011 A 
ATOM     16 CL   UNL d   1      55.493   0.680  35.115  0.00  0.00    -0.082 Cl
ATOM     17  C   UNL d   1      55.738   0.330  32.945  0.00  0.00     0.001 A 
ENDBRANCH   4  11
BRANCH   3  18
ATOM     18  N   UNL d   1      58.391  -1.035  30.149  0.00  0.00    -0.285 N 
ATOM     19  C   UNL d   1      58.575  -1.872  30.108  0.00  0.00     0.108 A 
ATOM     20  C   UNL d   1      58.819  -2.214  29.368  0.00  0.00     0.142 A 
ATOM     21  O   UNL d   1      58.885  -1.726  28.653  0.00  0.00    -0.300 OA
ATOM     22  C   UNL d   1      58.696  -0.887  28.715  0.00  0.00     0.142 A 
ATOM     23  C   UNL d   1      58.452  -0.545  29.455  0.00  0.00     0.108 A 
ENDBRANCH   3  18
TORSDOF 2
ENDMDL
