MODEL 1
REMARK VINA RESULT:      -3.0      0.000      0.000
REMARK  2 active torsions:
REMARK  status: ('A' for Active; 'I' for Inactive)
REMARK    1  A    between atoms: C_6  and  C_1 
REMARK    2  A    between atoms: C_8  and  C_6 
ROOT
ATOM      1  C   UNL d   1      30.814  16.185 -23.961  0.00  0.00     0.141 A 
ATOM      2  C   UNL d   1      31.979  16.820 -23.761  0.00  0.00     0.064 A 
ATOM      3  C   UNL d   1      31.566  16.117 -23.625  0.00  0.00     0.220 A 
ATOM      4  C   UNL d   1      31.480  17.325 -24.183  0.00  0.00     0.106 A 
ATOM      5  O   UNL d   1      30.760  16.938 -24.309  0.00  0.00    -0.304 OA
ATOM      6  C   UNL d   1      32.745  17.064 -23.554  0.00  0.00     0.008 A 
ATOM      7  C   UNL d   1      31.743  18.078 -24.401  0.00  0.00     0.067 A 
ATOM      8  C   UNL d   1      33.006  17.813 -23.772  0.00  0.00     0.042 A 
ATOM      9  C   UNL d   1      32.508  18.318 -24.194  0.00  0.00     0.198 A 
ATOM     10  O   UNL d   1      31.854  15.453 -23.220  0.00  0.00    -0.284 OA
ATOM     11  O   UNL d   1      32.768  19.068 -24.412  0.00  0.00    -0.286 OA
ATOM     12  C   UNL d   1      33.241  16.556 -23.132  0.00  0.00     0.000 C 
ENDROOT
BRANCH   1  13
ATOM     13  C   UNL d   1      30.219  15.614 -23.956  0.00  0.00     0.053 C 
BRANCH  13  14
ATOM     14  C   UNL d   1      29.436  15.830 -23.828  0.00  0.00     0.102 A 
ATOM     15  O   UNL d   1      29.107  16.024 -23.096  0.00  0.00    -0.305 OA
ATOM     16  C   UNL d   1      28.312  16.204 -23.223  0.00  0.00     0.123 A 
ATOM     17  C   UNL d   1      28.154  16.122 -24.023  0.00  0.00     0.029 A 
ATOM     18  C   UNL d   1      28.853  15.889 -24.402  0.00  0.00     0.027 A 
ENDBRANCH  13  14
ENDBRANCH   1  13
TORSDOF 2
ENDMDL
MODEL 2
REMARK VINA RESULT:      -2.9      6.348      7.878
REMARK  2 active torsions:
REMARK  status: ('A' for Active; 'I' for Inactive)
REMARK    1  A    between atoms: C_6  and  C_1 
REMARK    2  A    between atoms: C_8  and  C_6 
ROOT
ATOM      1  C   UNL d   1      32.790  22.963 -19.462  0.00  0.00     0.141 A 
ATOM      2  C   UNL d   1      32.748  22.274 -20.612  0.00  0.00     0.064 A 
ATOM      3  C   UNL d   1      32.626  23.017 -20.269  0.00  0.00     0.220 A 
ATOM      4  C   UNL d   1      32.989  21.760 -20.014  0.00  0.00     0.106 A 
ATOM      5  O   UNL d   1      33.017  22.179 -19.302  0.00  0.00    -0.304 OA
ATOM      6  C   UNL d   1      32.670  22.003 -21.393  0.00  0.00     0.008 A 
ATOM      7  C   UNL d   1      33.154  20.970 -20.190  0.00  0.00     0.067 A 
ATOM      8  C   UNL d   1      32.835  21.216 -21.568  0.00  0.00     0.042 A 
ATOM      9  C   UNL d   1      33.076  20.701 -20.970  0.00  0.00     0.198 A 
ATOM     10  O   UNL d   1      32.380  23.702 -20.666  0.00  0.00    -0.284 OA
ATOM     11  O   UNL d   1      33.241  19.914 -21.144  0.00  0.00    -0.286 OA
ATOM     12  C   UNL d   1      32.428  22.521 -21.989  0.00  0.00     0.000 C 
ENDROOT
BRANCH   1  13
ATOM     13  C   UNL d   1      32.741  23.572 -18.907  0.00  0.00     0.053 C 
BRANCH  13  14
ATOM     14  C   UNL d   1      32.697  23.401 -18.105  0.00  0.00     0.102 A 
ATOM     15  O   UNL d   1      32.093  22.971 -17.740  0.00  0.00    -0.305 OA
ATOM     16  C   UNL d   1      32.270  22.933 -16.934  0.00  0.00     0.123 A 
ATOM     17  C   UNL d   1      32.973  23.335 -16.805  0.00  0.00     0.029 A 
ATOM     18  C   UNL d   1      33.241  23.627 -17.533  0.00  0.00     0.027 A 
ENDBRANCH  13  14
ENDBRANCH   1  13
TORSDOF 2
ENDMDL
MODEL 3
REMARK VINA RESULT:      -2.8      3.754      5.411
REMARK  2 active torsions:
REMARK  status: ('A' for Active; 'I' for Inactive)
REMARK    1  A    between atoms: C_6  and  C_1 
REMARK    2  A    between atoms: C_8  and  C_6 
ROOT
ATOM      1  C   UNL d   1      33.240  20.898 -21.764  0.00  0.00     0.141 A 
ATOM      2  C   UNL d   1      33.240  19.849 -22.600  0.00  0.00     0.064 A 
ATOM      3  C   UNL d   1      33.240  20.073 -21.804  0.00  0.00     0.220 A 
ATOM      4  C   UNL d   1      33.240  20.538 -23.053  0.00  0.00     0.106 A 
ATOM      5  O   UNL d   1      33.241  21.189 -22.542  0.00  0.00    -0.304 OA
ATOM      6  C   UNL d   1      33.239  19.105 -22.968  0.00  0.00     0.008 A 
ATOM      7  C   UNL d   1      33.241  20.490 -23.878  0.00  0.00     0.067 A 
ATOM      8  C   UNL d   1      33.239  19.057 -23.790  0.00  0.00     0.042 A 
ATOM      9  C   UNL d   1      33.240  19.747 -24.243  0.00  0.00     0.198 A 
ATOM     10  O   UNL d   1      33.239  19.559 -21.153  0.00  0.00    -0.284 OA
ATOM     11  O   UNL d   1      33.240  19.701 -25.065  0.00  0.00    -0.286 OA
ATOM     12  C   UNL d   1      33.238  18.416 -22.511  0.00  0.00     0.000 C 
ENDROOT
BRANCH   1  13
ATOM     13  C   UNL d   1      33.241  21.357 -21.079  0.00  0.00     0.053 C 
BRANCH  13  14
ATOM     14  C   UNL d   1      32.777  22.034 -21.032  0.00  0.00     0.102 A 
ATOM     15  O   UNL d   1      31.957  22.046 -20.928  0.00  0.00    -0.305 OA
ATOM     16  C   UNL d   1      31.722  22.837 -20.912  0.00  0.00     0.123 A 
ATOM     17  C   UNL d   1      32.388  23.306 -21.005  0.00  0.00     0.029 A 
ATOM     18  C   UNL d   1      33.047  22.808 -21.080  0.00  0.00     0.027 A 
ENDBRANCH  13  14
ENDBRANCH   1  13
TORSDOF 2
ENDMDL
MODEL 4
REMARK VINA RESULT:      -2.6      2.576      4.199
REMARK  2 active torsions:
REMARK  status: ('A' for Active; 'I' for Inactive)
REMARK    1  A    between atoms: C_6  and  C_1 
REMARK    2  A    between atoms: C_8  and  C_6 
ROOT
ATOM      1  C   UNL d   1      33.191  19.199 -23.292  0.00  0.00     0.141 A 
ATOM      2  C   UNL d   1      33.203  20.422 -22.741  0.00  0.00     0.064 A 
ATOM      3  C   UNL d   1      33.211  20.008 -23.456  0.00  0.00     0.220 A 
ATOM      4  C   UNL d   1      33.179  19.867 -22.131  0.00  0.00     0.106 A 
ATOM      5  O   UNL d   1      33.171  19.110 -22.465  0.00  0.00    -0.304 OA
ATOM      6  C   UNL d   1      33.216  21.234 -22.569  0.00  0.00     0.008 A 
ATOM      7  C   UNL d   1      33.166  20.118 -21.344  0.00  0.00     0.067 A 
ATOM      8  C   UNL d   1      33.204  21.484 -21.784  0.00  0.00     0.042 A 
ATOM      9  C   UNL d   1      33.179  20.928 -21.174  0.00  0.00     0.198 A 
ATOM     10  O   UNL d   1      33.234  20.345 -24.214  0.00  0.00    -0.284 OA
ATOM     11  O   UNL d   1      33.167  21.176 -20.390  0.00  0.00    -0.286 OA
ATOM     12  C   UNL d   1      33.241  21.788 -23.181  0.00  0.00     0.000 C 
ENDROOT
BRANCH   1  13
ATOM     13  C   UNL d   1      33.190  18.584 -23.842  0.00  0.00     0.053 C 
BRANCH  13  14
ATOM     14  C   UNL d   1      32.787  17.886 -23.684  0.00  0.00     0.102 A 
ATOM     15  O   UNL d   1      31.971  17.778 -23.755  0.00  0.00    -0.305 OA
ATOM     16  C   UNL d   1      31.806  16.997 -23.543  0.00  0.00     0.123 A 
ATOM     17  C   UNL d   1      32.512  16.630 -23.344  0.00  0.00     0.029 A 
ATOM     18  C   UNL d   1      33.124  17.182 -23.431  0.00  0.00     0.027 A 
ENDBRANCH  13  14
ENDBRANCH   1  13
TORSDOF 2
ENDMDL
MODEL 5
REMARK VINA RESULT:      -2.6      1.380      2.323
REMARK  2 active torsions:
REMARK  status: ('A' for Active; 'I' for Inactive)
REMARK    1  A    between atoms: C_6  and  C_1 
REMARK    2  A    between atoms: C_8  and  C_6 
ROOT
ATOM      1  C   UNL d   1      32.071  17.466 -23.886  0.00  0.00     0.141 A 
ATOM      2  C   UNL d   1      32.672  18.651 -23.707  0.00  0.00     0.064 A 
ATOM      3  C   UNL d   1      32.417  18.107 -24.275  0.00  0.00     0.220 A 
ATOM      4  C   UNL d   1      32.484  18.345 -22.965  0.00  0.00     0.106 A 
ATOM      5  O   UNL d   1      32.113  17.613 -23.069  0.00  0.00    -0.304 OA
ATOM      6  C   UNL d   1      33.052  19.386 -23.774  0.00  0.00     0.008 A 
ATOM      7  C   UNL d   1      32.673  18.770 -22.282  0.00  0.00     0.067 A 
ATOM      8  C   UNL d   1      33.241  19.810 -23.093  0.00  0.00     0.042 A 
ATOM      9  C   UNL d   1      33.052  19.503 -22.351  0.00  0.00     0.198 A 
ATOM     10  O   UNL d   1      32.492  18.188 -25.097  0.00  0.00    -0.284 OA
ATOM     11  O   UNL d   1      33.241  19.925 -21.670  0.00  0.00    -0.286 OA
ATOM     12  C   UNL d   1      33.239  19.690 -24.519  0.00  0.00     0.000 C 
ENDROOT
BRANCH   1  13
ATOM     13  C   UNL d   1      31.742  16.796 -24.238  0.00  0.00     0.053 C 
BRANCH  13  14
ATOM     14  C   UNL d   1      31.128  16.392 -23.869  0.00  0.00     0.102 A 
ATOM     15  O   UNL d   1      30.330  16.601 -23.904  0.00  0.00    -0.305 OA
ATOM     16  C   UNL d   1      29.910  16.047 -23.458  0.00  0.00     0.123 A 
ATOM     17  C   UNL d   1      30.444  15.504 -23.153  0.00  0.00     0.029 A 
ATOM     18  C   UNL d   1      31.204  15.717 -23.408  0.00  0.00     0.027 A 
ENDBRANCH  13  14
ENDBRANCH   1  13
TORSDOF 2
ENDMDL
MODEL 6
REMARK VINA RESULT:      -2.4      2.976      4.490
REMARK  2 active torsions:
REMARK  status: ('A' for Active; 'I' for Inactive)
REMARK    1  A    between atoms: C_6  and  C_1 
REMARK    2  A    between atoms: C_8  and  C_6 
ROOT
ATOM      1  C   UNL d   1      33.220  19.538 -22.682  0.00  0.00     0.141 A 
ATOM      2  C   UNL d   1      33.204  20.704 -22.019  0.00  0.00     0.064 A 
ATOM      3  C   UNL d   1      33.198  19.882 -21.931  0.00  0.00     0.220 A 
ATOM      4  C   UNL d   1      33.229  20.869 -22.827  0.00  0.00     0.106 A 
ATOM      5  O   UNL d   1      33.239  20.153 -23.241  0.00  0.00    -0.304 OA
ATOM      6  C   UNL d   1      33.189  21.322 -21.465  0.00  0.00     0.008 A 
ATOM      7  C   UNL d   1      33.240  21.652 -23.090  0.00  0.00     0.067 A 
ATOM      8  C   UNL d   1      33.200  22.103 -21.727  0.00  0.00     0.042 A 
ATOM      9  C   UNL d   1      33.225  22.267 -22.535  0.00  0.00     0.198 A 
ATOM     10  O   UNL d   1      33.175  19.469 -21.213  0.00  0.00    -0.284 OA
ATOM     11  O   UNL d   1      33.236  23.047 -22.798  0.00  0.00    -0.286 OA
ATOM     12  C   UNL d   1      33.164  21.154 -20.657  0.00  0.00     0.000 C 
ENDROOT
BRANCH   1  13
ATOM     13  C   UNL d   1      33.222  18.731 -22.854  0.00  0.00     0.053 C 
BRANCH  13  14
ATOM     14  C   UNL d   1      32.875  18.452 -23.545  0.00  0.00     0.102 A 
ATOM     15  O   UNL d   1      32.118  18.128 -23.603  0.00  0.00    -0.305 OA
ATOM     16  C   UNL d   1      31.998  17.923 -24.394  0.00  0.00     0.123 A 
ATOM     17  C   UNL d   1      32.672  18.118 -24.816  0.00  0.00     0.029 A 
ATOM     18  C   UNL d   1      33.221  18.449 -24.289  0.00  0.00     0.027 A 
ENDBRANCH  13  14
ENDBRANCH   1  13
TORSDOF 2
ENDMDL
