MODEL 1
REMARK VINA RESULT:      61.7      0.000      0.000
REMARK  7 active torsions:
REMARK  status: ('A' for Active; 'I' for Inactive)
REMARK    1  A    between atoms: C_5  and  C_1 
REMARK    2  A    between atoms: N_3  and  C_2 
REMARK    3  A    between atoms: C_14  and  C_5 
REMARK    4  A    between atoms: C_10  and  C_6 
REMARK    5  A    between atoms: O_19  and  C_10 
REMARK    6  A    between atoms: O_22  and  C_18 
REMARK    7  A    between atoms: C_26  and  O_19 
ROOT
ATOM      1  C   UNL d   1      13.676  12.829  -3.242  0.00  0.00     0.074 A 
ATOM      2  C   UNL d   1      13.937  13.393  -2.681  0.00  0.00     0.070 A 
ATOM      3  C   UNL d   1      14.313  13.147  -1.989  0.00  0.00     0.036 A 
ATOM      4  C   UNL d   1      13.796  12.025  -3.099  0.00  0.00     0.103 A 
ATOM      5  N   UNL d   1      14.178  11.781  -2.396  0.00  0.00    -0.244 NA
ATOM      6  C   UNL d   1      14.433  12.342  -1.846  0.00  0.00     0.083 A 
ATOM      7  C   UNL d   1      14.568  13.707  -1.440  0.00  0.00     0.027 A 
ATOM      8  C   UNL d   1      14.810  12.096  -1.154  0.00  0.00     0.021 A 
ATOM      9  C   UNL d   1      14.944  13.461  -0.748  0.00  0.00     0.094 A 
ATOM     10  C   UNL d   1      15.065  12.657  -0.605  0.00  0.00     0.026 A 
ENDROOT
BRANCH   2  11
ATOM     11  N   UNL d   1      13.815  14.202  -2.825  0.00  0.00    -0.303 N 
ATOM     12  C   UNL d   1      14.461  14.704  -2.932  0.00  0.00     0.086 A 
ATOM     13  C   UNL d   1      14.339  15.517  -3.076  0.00  0.00     0.081 A 
ATOM     14  C   UNL d   1      13.573  15.820  -3.111  0.00  0.00     0.008 A 
ATOM     15  C   UNL d   1      12.927  15.318  -3.004  0.00  0.00     0.019 A 
ATOM     16  C   UNL d   1      13.049  14.505  -2.860  0.00  0.00     0.080 A 
BRANCH  13  17
ATOM     17  C   UNL d   1      14.996  16.025  -3.184  0.00  0.00     0.302 C 
ATOM     18  O   UNL d   1      15.270  16.478  -2.538  0.00  0.00    -0.259 OA
BRANCH  17  19
ATOM     19  O   UNL d   1      15.365  16.073  -3.921  0.00  0.00    -0.271 OA
BRANCH  19  20
ATOM     20  C   UNL d   1      15.308  16.766  -4.364  0.00  0.00     0.126 C 
ATOM     21  C   UNL d   1      15.971  17.248  -4.459  0.00  0.00     0.029 C 
ENDBRANCH  19  20
ENDBRANCH  17  19
ENDBRANCH  13  17
ENDBRANCH   2  11
BRANCH   1  22
ATOM     22  C   UNL d   1      13.299  13.075  -3.934  0.00  0.00     0.198 C 
ATOM     23  O   UNL d   1      12.822  13.749  -3.942  0.00  0.00    -0.286 OA
BRANCH  22  24
ATOM     24  C   UNL d   1      13.400  12.644  -4.630  0.00  0.00     0.039 A 
ATOM     25  C   UNL d   1      14.132  12.646  -5.012  0.00  0.00     0.003 A 
ATOM     26  C   UNL d   1      14.240  12.210  -5.717  0.00  0.00     0.000 A 
ATOM     27  C   UNL d   1      13.603  11.781  -6.022  0.00  0.00     0.000 A 
ATOM     28  C   UNL d   1      12.871  11.779  -5.641  0.00  0.00     0.000 A 
ATOM     29  C   UNL d   1      12.770  12.211  -4.944  0.00  0.00     0.003 A 
ENDBRANCH  22  24
ENDBRANCH   1  22
BRANCH   9  30
ATOM     30  O   UNL d   1      15.199  14.026  -0.199  0.00  0.00    -0.328 OA
ATOM     31  C   UNL d   1      15.823  14.531  -0.398  0.00  0.00     0.181 C 
ENDBRANCH   9  30
TORSDOF 7
ENDMDL
