MODEL 1
REMARK VINA RESULT:      -5.4      0.000      0.000
REMARK  2 active torsions:
REMARK  status: ('A' for Active; 'I' for Inactive)
REMARK    1  A    between atoms: C_8  and  N_2 
REMARK    2  A    between atoms: N_7  and  C_4 
ROOT
ATOM      1  C   UNL d   1     -41.976-123.239 -52.449  0.00  0.00     0.358 A 
ATOM      2  N   UNL d   1     -41.736-122.494 -52.717  0.00  0.00    -0.226 N 
ATOM      3  N   UNL d   1     -41.980-123.404 -51.647  0.00  0.00    -0.174 NA
ATOM      4  C   UNL d   1     -41.746-122.830 -51.106  0.00  0.00     0.158 A 
ATOM      5  C   UNL d   1     -41.501-121.915 -52.182  0.00  0.00     0.271 A 
ATOM      6  C   UNL d   1     -41.507-122.085 -51.373  0.00  0.00     0.099 A 
ATOM      7  O   UNL d   1     -42.211-123.818 -52.995  0.00  0.00    -0.244 OA
ATOM      8  O   UNL d   1     -41.262-121.169 -52.450  0.00  0.00    -0.266 OA
ENDROOT
BRANCH   2   9
ATOM      9  C   UNL d   1     -41.732-122.327 -53.524  0.00  0.00     0.071 A 
ATOM     10  C   UNL d   1     -42.322-121.849 -53.850  0.00  0.00     0.019 A 
ATOM     11  C   UNL d   1     -42.323-121.679 -54.652  0.00  0.00     0.013 A 
ATOM     12  C   UNL d   1     -41.728-121.990 -55.136  0.00  0.00     0.058 A 
ATOM     13  C   UNL d   1     -41.145-122.464 -54.808  0.00  0.00     0.013 A 
ATOM     14 CL   UNL d   1     -41.728-121.822 -55.936  0.00  0.00    -0.082 Cl
ATOM     15  C   UNL d   1     -41.143-122.635 -54.004  0.00  0.00     0.019 A 
ENDBRANCH   2   9
BRANCH   4  16
ATOM     16  N   UNL d   1     -41.750-122.994 -50.299  0.00  0.00    -0.285 N 
ATOM     17  C   UNL d   1     -41.123-123.422 -49.971  0.00  0.00     0.108 A 
ATOM     18  C   UNL d   1     -41.123-123.587 -49.163  0.00  0.00     0.142 A 
ATOM     19  O   UNL d   1     -41.751-123.325 -48.679  0.00  0.00    -0.300 OA
ATOM     20  C   UNL d   1     -42.366-122.900 -49.024  0.00  0.00     0.142 A 
ATOM     21  C   UNL d   1     -42.366-122.735 -49.832  0.00  0.00     0.108 A 
ENDBRANCH   4  16
TORSDOF 2
ENDMDL
MODEL 2
REMARK VINA RESULT:      -4.7      2.013      4.340
REMARK  2 active torsions:
REMARK  status: ('A' for Active; 'I' for Inactive)
REMARK    1  A    between atoms: C_8  and  N_2 
REMARK    2  A    between atoms: N_7  and  C_4 
ROOT
ATOM      1  C   UNL d   1     -42.120-123.147 -51.665  0.00  0.00     0.358 A 
ATOM      2  N   UNL d   1     -41.809-122.574 -51.156  0.00  0.00    -0.226 N 
ATOM      3  N   UNL d   1     -42.055-123.053 -52.476  0.00  0.00    -0.174 NA
ATOM      4  C   UNL d   1     -41.681-122.389 -52.787  0.00  0.00     0.158 A 
ATOM      5  C   UNL d   1     -41.433-121.908 -51.458  0.00  0.00     0.271 A 
ATOM      6  C   UNL d   1     -41.370-121.816 -52.278  0.00  0.00     0.099 A 
ATOM      7  O   UNL d   1     -42.497-123.816 -51.353  0.00  0.00    -0.244 OA
ATOM      8  O   UNL d   1     -41.123-121.335 -50.949  0.00  0.00    -0.266 OA
ENDROOT
BRANCH   2   9
ATOM      9  C   UNL d   1     -41.874-122.669 -50.339  0.00  0.00     0.071 A 
ATOM     10  C   UNL d   1     -42.584-122.489 -49.959  0.00  0.00     0.019 A 
ATOM     11  C   UNL d   1     -42.655-122.581 -49.147  0.00  0.00     0.013 A 
ATOM     12  C   UNL d   1     -42.009-122.855 -48.709  0.00  0.00     0.058 A 
ATOM     13  C   UNL d   1     -41.306-123.032 -49.092  0.00  0.00     0.013 A 
ATOM     14 CL   UNL d   1     -42.078-122.947 -47.900  0.00  0.00    -0.082 Cl
ATOM     15  C   UNL d   1     -41.234-122.940 -49.906  0.00  0.00     0.019 A 
ENDBRANCH   2   9
BRANCH   4  16
ATOM     16  N   UNL d   1     -41.614-122.292 -53.601  0.00  0.00    -0.285 N 
ATOM     17  C   UNL d   1     -41.975-121.641 -53.961  0.00  0.00     0.108 A 
ATOM     18  C   UNL d   1     -41.911-121.541 -54.777  0.00  0.00     0.142 A 
ATOM     19  O   UNL d   1     -41.484-122.092 -55.237  0.00  0.00    -0.300 OA
ATOM     20  C   UNL d   1     -41.131-122.734 -54.861  0.00  0.00     0.142 A 
ATOM     21  C   UNL d   1     -41.196-122.834 -54.045  0.00  0.00     0.108 A 
ENDBRANCH   4  16
TORSDOF 2
ENDMDL
MODEL 3
REMARK VINA RESULT:      -4.3      0.722      1.214
REMARK  2 active torsions:
REMARK  status: ('A' for Active; 'I' for Inactive)
REMARK    1  A    between atoms: C_8  and  N_2 
REMARK    2  A    between atoms: N_7  and  C_4 
ROOT
ATOM      1  C   UNL d   1     -42.031-123.234 -51.588  0.00  0.00     0.358 A 
ATOM      2  N   UNL d   1     -41.718-122.531 -51.892  0.00  0.00    -0.226 N 
ATOM      3  N   UNL d   1     -42.060-123.352 -50.779  0.00  0.00    -0.174 NA
ATOM      4  C   UNL d   1     -41.779-122.774 -50.265  0.00  0.00     0.158 A 
ATOM      5  C   UNL d   1     -41.435-121.947 -51.386  0.00  0.00     0.271 A 
ATOM      6  C   UNL d   1     -41.466-122.071 -50.569  0.00  0.00     0.099 A 
ATOM      7  O   UNL d   1     -42.315-123.817 -52.105  0.00  0.00    -0.244 OA
ATOM      8  O   UNL d   1     -41.123-121.245 -51.690  0.00  0.00    -0.266 OA
ENDROOT
BRANCH   2   9
ATOM      9  C   UNL d   1     -41.689-122.410 -52.707  0.00  0.00     0.071 A 
ATOM     10  C   UNL d   1     -41.157-122.842 -53.169  0.00  0.00     0.019 A 
ATOM     11  C   UNL d   1     -41.123-122.726 -53.980  0.00  0.00     0.013 A 
ATOM     12  C   UNL d   1     -41.626-122.174 -54.335  0.00  0.00     0.058 A 
ATOM     13  C   UNL d   1     -42.152-121.749 -53.872  0.00  0.00     0.013 A 
ATOM     14 CL   UNL d   1     -41.593-122.058 -55.144  0.00  0.00    -0.082 Cl
ATOM     15  C   UNL d   1     -42.187-121.863 -53.060  0.00  0.00     0.019 A 
ENDBRANCH   2   9
BRANCH   4  16
ATOM     16  N   UNL d   1     -41.807-122.891 -49.451  0.00  0.00    -0.285 N 
ATOM     17  C   UNL d   1     -42.528-122.808 -49.056  0.00  0.00     0.108 A 
ATOM     18  C   UNL d   1     -42.560-122.924 -48.240  0.00  0.00     0.142 A 
ATOM     19  O   UNL d   1     -41.869-123.125 -47.815  0.00  0.00    -0.300 OA
ATOM     20  C   UNL d   1     -41.160-123.203 -48.226  0.00  0.00     0.142 A 
ATOM     21  C   UNL d   1     -41.128-123.087 -49.042  0.00  0.00     0.108 A 
ENDBRANCH   4  16
TORSDOF 2
ENDMDL
