MODEL 1
REMARK VINA RESULT:      -6.6      0.000      0.000
REMARK  4 active torsions:
REMARK  status: ('A' for Active; 'I' for Inactive)
REMARK    1  A    between atoms: C_8  and  N_1 
REMARK    2  A    between atoms: C_6  and  C_5 
REMARK    3  A    between atoms: C_7  and  C_6 
REMARK       I    between atoms: N_10  and  C_7 
REMARK    4  A    between atoms: C_13  and  N_10 
ROOT
ATOM      1  N   UNL d   1     -48.539  13.503  22.645  0.00  0.00    -0.236 N 
ATOM      2  C   UNL d   1     -48.102  14.202  22.663  0.00  0.00     0.298 A 
ATOM      3  C   UNL d   1     -48.060  12.892  22.902  0.00  0.00     0.274 A 
ATOM      4  S   UNL d   1     -47.344  14.016  22.936  0.00  0.00    -0.022 SA
ATOM      5  C   UNL d   1     -47.318  13.204  23.084  0.00  0.00     0.095 A 
ATOM      6  O   UNL d   1     -48.366  14.955  22.450  0.00  0.00    -0.259 OA
ATOM      7  O   UNL d   1     -48.274  12.100  22.971  0.00  0.00    -0.266 OA
ENDROOT
BRANCH   5   8
ATOM      8  C   UNL d   1     -46.664  12.783  23.364  0.00  0.00     0.074 C 
BRANCH   8   9
ATOM      9  C   UNL d   1     -45.930  12.897  23.021  0.00  0.00     0.280 C 
ATOM     10  N   UNL d   1     -45.547  12.272  22.643  0.00  0.00    -0.208 NA
ATOM     11  O   UNL d   1     -45.571  13.641  23.054  0.00  0.00    -0.265 OA
BRANCH  10  12
ATOM     12  C   UNL d   1     -44.808  12.385  22.297  0.00  0.00     0.085 A 
ATOM     13  C   UNL d   1     -44.716  12.930  21.685  0.00  0.00     0.019 A 
ATOM     14  C   UNL d   1     -43.974  13.043  21.338  0.00  0.00     0.002 A 
ATOM     15  C   UNL d   1     -43.322  12.614  21.600  0.00  0.00     0.000 A 
ATOM     16  C   UNL d   1     -43.425  12.064  22.221  0.00  0.00     0.002 A 
ATOM     17  C   UNL d   1     -44.158  11.956  22.559  0.00  0.00     0.019 A 
ENDBRANCH  10  12
ENDBRANCH   8   9
ENDBRANCH   5   8
BRANCH   1  18
ATOM     18  C   UNL d   1     -49.326  13.431  22.408  0.00  0.00     0.070 A 
ATOM     19  C   UNL d   1     -49.935  13.501  22.963  0.00  0.00     0.018 A 
ATOM     20  C   UNL d   1     -50.719  13.427  22.721  0.00  0.00     0.002 A 
ATOM     21  C   UNL d   1     -50.898  13.285  21.935  0.00  0.00     0.000 A 
ATOM     22  C   UNL d   1     -50.288  13.214  21.376  0.00  0.00     0.002 A 
ATOM     23  C   UNL d   1     -49.504  13.287  21.615  0.00  0.00     0.018 A 
ENDBRANCH   1  18
TORSDOF 4
ENDMDL
MODEL 2
REMARK VINA RESULT:      -6.5      0.905      1.560
REMARK  4 active torsions:
REMARK  status: ('A' for Active; 'I' for Inactive)
REMARK    1  A    between atoms: C_8  and  N_1 
REMARK    2  A    between atoms: C_6  and  C_5 
REMARK    3  A    between atoms: C_7  and  C_6 
REMARK       I    between atoms: N_10  and  C_7 
REMARK    4  A    between atoms: C_13  and  N_10 
ROOT
ATOM      1  N   UNL d   1     -48.665  12.440  22.904  0.00  0.00    -0.236 N 
ATOM      2  C   UNL d   1     -48.355  11.705  23.109  0.00  0.00     0.298 A 
ATOM      3  C   UNL d   1     -48.083  13.005  23.007  0.00  0.00     0.274 A 
ATOM      4  S   UNL d   1     -47.570  11.821  23.342  0.00  0.00    -0.022 SA
ATOM      5  C   UNL d   1     -47.401  12.627  23.278  0.00  0.00     0.095 A 
ATOM      6  O   UNL d   1     -48.749  10.979  23.089  0.00  0.00    -0.259 OA
ATOM      7  O   UNL d   1     -48.156  13.813  22.866  0.00  0.00    -0.266 OA
ENDROOT
BRANCH   5   8
ATOM      8  C   UNL d   1     -46.679  12.987  23.456  0.00  0.00     0.074 C 
BRANCH   8   9
ATOM      9  C   UNL d   1     -45.989  12.700  23.122  0.00  0.00     0.280 C 
ATOM     10  N   UNL d   1     -45.530  13.184  22.637  0.00  0.00    -0.208 NA
ATOM     11  O   UNL d   1     -45.751  11.922  23.272  0.00  0.00    -0.265 OA
BRANCH  10  12
ATOM     12  C   UNL d   1     -44.835  12.897  22.301  0.00  0.00     0.085 A 
ATOM     13  C   UNL d   1     -44.425  12.279  22.662  0.00  0.00     0.019 A 
ATOM     14  C   UNL d   1     -43.728  11.991  22.324  0.00  0.00     0.002 A 
ATOM     15  C   UNL d   1     -43.436  12.317  21.626  0.00  0.00     0.000 A 
ATOM     16  C   UNL d   1     -43.860  12.944  21.267  0.00  0.00     0.002 A 
ATOM     17  C   UNL d   1     -44.546  13.223  21.604  0.00  0.00     0.019 A 
ENDBRANCH  10  12
ENDBRANCH   8   9
ENDBRANCH   5   8
BRANCH   1  18
ATOM     18  C   UNL d   1     -49.433  12.584  22.638  0.00  0.00     0.070 A 
ATOM     19  C   UNL d   1     -49.600  12.582  21.829  0.00  0.00     0.018 A 
ATOM     20  C   UNL d   1     -50.369  12.726  21.569  0.00  0.00     0.002 A 
ATOM     21  C   UNL d   1     -50.968  12.871  22.109  0.00  0.00     0.000 A 
ATOM     22  C   UNL d   1     -50.802  12.874  22.922  0.00  0.00     0.002 A 
ATOM     23  C   UNL d   1     -50.035  12.730  23.184  0.00  0.00     0.018 A 
ENDBRANCH   1  18
TORSDOF 4
ENDMDL
MODEL 3
REMARK VINA RESULT:      -6.2      7.978      8.870
REMARK  4 active torsions:
REMARK  status: ('A' for Active; 'I' for Inactive)
REMARK    1  A    between atoms: C_8  and  N_1 
REMARK    2  A    between atoms: C_6  and  C_5 
REMARK    3  A    between atoms: C_7  and  C_6 
REMARK       I    between atoms: N_10  and  C_7 
REMARK    4  A    between atoms: C_13  and  N_10 
ROOT
ATOM      1  N   UNL d   1     -40.023  14.944  18.555  0.00  0.00    -0.236 N 
ATOM      2  C   UNL d   1     -40.565  14.380  18.815  0.00  0.00     0.298 A 
ATOM      3  C   UNL d   1     -39.708  15.320  19.209  0.00  0.00     0.274 A 
ATOM      4  S   UNL d   1     -40.581  14.410  19.641  0.00  0.00    -0.022 SA
ATOM      5  C   UNL d   1     -40.049  14.994  19.885  0.00  0.00     0.095 A 
ATOM      6  O   UNL d   1     -41.013  13.872  18.343  0.00  0.00    -0.259 OA
ATOM      7  O   UNL d   1     -39.145  15.922  19.202  0.00  0.00    -0.266 OA
ENDROOT
BRANCH   5   8
ATOM      8  C   UNL d   1     -39.891  15.208  20.667  0.00  0.00     0.074 C 
BRANCH   8   9
ATOM      9  C   UNL d   1     -39.640  14.641  21.202  0.00  0.00     0.280 C 
ATOM     10  N   UNL d   1     -38.910  14.721  21.578  0.00  0.00    -0.208 NA
ATOM     11  O   UNL d   1     -40.119  13.988  21.365  0.00  0.00    -0.265 OA
BRANCH  10  12
ATOM     12  C   UNL d   1     -38.656  14.151  22.117  0.00  0.00     0.085 A 
ATOM     13  C   UNL d   1     -38.865  14.211  22.912  0.00  0.00     0.019 A 
ATOM     14  C   UNL d   1     -38.610  13.640  23.452  0.00  0.00     0.002 A 
ATOM     15  C   UNL d   1     -38.146  13.007  23.202  0.00  0.00     0.000 A 
ATOM     16  C   UNL d   1     -37.940  12.955  22.393  0.00  0.00     0.002 A 
ATOM     17  C   UNL d   1     -38.193  13.520  21.865  0.00  0.00     0.019 A 
ENDBRANCH  10  12
ENDBRANCH   8   9
ENDBRANCH   5   8
BRANCH   1  18
ATOM     18  C   UNL d   1     -39.831  15.104  17.769  0.00  0.00     0.070 A 
ATOM     19  C   UNL d   1     -39.241  14.668  17.388  0.00  0.00     0.018 A 
ATOM     20  C   UNL d   1     -39.053  14.832  16.603  0.00  0.00     0.002 A 
ATOM     21  C   UNL d   1     -39.447  15.424  16.198  0.00  0.00     0.000 A 
ATOM     22  C   UNL d   1     -40.040  15.863  16.578  0.00  0.00     0.002 A 
ATOM     23  C   UNL d   1     -40.230  15.701  17.362  0.00  0.00     0.018 A 
ENDBRANCH   1  18
TORSDOF 4
ENDMDL
MODEL 4
REMARK VINA RESULT:      -6.2      8.482      9.474
REMARK  4 active torsions:
REMARK  status: ('A' for Active; 'I' for Inactive)
REMARK    1  A    between atoms: C_8  and  N_1 
REMARK    2  A    between atoms: C_6  and  C_5 
REMARK    3  A    between atoms: C_7  and  C_6 
REMARK       I    between atoms: N_10  and  C_7 
REMARK    4  A    between atoms: C_13  and  N_10 
ROOT
ATOM      1  N   UNL d   1     -39.425  14.603  18.092  0.00  0.00    -0.236 N 
ATOM      2  C   UNL d   1     -40.157  14.378  18.395  0.00  0.00     0.298 A 
ATOM      3  C   UNL d   1     -39.109  15.179  18.579  0.00  0.00     0.274 A 
ATOM      4  S   UNL d   1     -40.292  14.824  19.078  0.00  0.00    -0.022 SA
ATOM      5  C   UNL d   1     -39.642  15.320  19.192  0.00  0.00     0.095 A 
ATOM      6  O   UNL d   1     -40.669  13.812  18.079  0.00  0.00    -0.259 OA
ATOM      7  O   UNL d   1     -38.384  15.558  18.481  0.00  0.00    -0.266 OA
ENDROOT
BRANCH   5   8
ATOM      8  C   UNL d   1     -39.547  15.860  19.811  0.00  0.00     0.074 C 
BRANCH   8   9
ATOM      9  C   UNL d   1     -39.506  15.590  20.583  0.00  0.00     0.280 C 
ATOM     10  N   UNL d   1     -38.829  15.728  21.034  0.00  0.00    -0.208 NA
ATOM     11  O   UNL d   1     -40.143  15.180  20.911  0.00  0.00    -0.265 OA
BRANCH  10  12
ATOM     12  C   UNL d   1     -38.785  15.458  21.811  0.00  0.00     0.085 A 
ATOM     13  C   UNL d   1     -38.458  14.718  21.974  0.00  0.00     0.019 A 
ATOM     14  C   UNL d   1     -38.415  14.447  22.754  0.00  0.00     0.002 A 
ATOM     15  C   UNL d   1     -38.696  14.912  23.374  0.00  0.00     0.000 A 
ATOM     16  C   UNL d   1     -39.026  15.660  23.197  0.00  0.00     0.002 A 
ATOM     17  C   UNL d   1     -39.066  15.922  22.428  0.00  0.00     0.019 A 
ENDBRANCH  10  12
ENDBRANCH   8   9
ENDBRANCH   5   8
BRANCH   1  18
ATOM     18  C   UNL d   1     -39.068  14.300  17.413  0.00  0.00     0.070 A 
ATOM     19  C   UNL d   1     -39.141  14.698  16.692  0.00  0.00     0.018 A 
ATOM     20  C   UNL d   1     -38.783  14.391  16.016  0.00  0.00     0.002 A 
ATOM     21  C   UNL d   1     -38.356  13.693  16.055  0.00  0.00     0.000 A 
ATOM     22  C   UNL d   1     -38.282  13.291  16.778  0.00  0.00     0.002 A 
ATOM     23  C   UNL d   1     -38.639  13.596  17.454  0.00  0.00     0.018 A 
ENDBRANCH   1  18
TORSDOF 4
ENDMDL
MODEL 5
REMARK VINA RESULT:      -5.7      1.272      4.957
REMARK  4 active torsions:
REMARK  status: ('A' for Active; 'I' for Inactive)
REMARK    1  A    between atoms: C_8  and  N_1 
REMARK    2  A    between atoms: C_6  and  C_5 
REMARK    3  A    between atoms: C_7  and  C_6 
REMARK       I    between atoms: N_10  and  C_7 
REMARK    4  A    between atoms: C_13  and  N_10 
ROOT
ATOM      1  N   UNL d   1     -46.289  11.714  23.283  0.00  0.00    -0.236 N 
ATOM      2  C   UNL d   1     -47.024  11.342  23.248  0.00  0.00     0.298 A 
ATOM      3  C   UNL d   1     -46.409  12.522  23.320  0.00  0.00     0.274 A 
ATOM      4  S   UNL d   1     -47.603  11.932  23.263  0.00  0.00    -0.022 SA
ATOM      5  C   UNL d   1     -47.222  12.664  23.308  0.00  0.00     0.095 A 
ATOM      6  O   UNL d   1     -47.165  10.530  23.205  0.00  0.00    -0.259 OA
ATOM      7  O   UNL d   1     -45.825  13.101  23.362  0.00  0.00    -0.266 OA
ENDROOT
BRANCH   5   8
ATOM      8  C   UNL d   1     -47.591  13.402  23.335  0.00  0.00     0.074 C 
BRANCH   8   9
ATOM      9  C   UNL d   1     -48.285  13.526  22.918  0.00  0.00     0.280 C 
ATOM     10  N   UNL d   1     -48.952  13.821  23.303  0.00  0.00    -0.208 NA
ATOM     11  O   UNL d   1     -48.317  13.354  22.111  0.00  0.00    -0.265 OA
BRANCH  10  12
ATOM     12  C   UNL d   1     -49.652  13.947  22.885  0.00  0.00     0.085 A 
ATOM     13  C   UNL d   1     -49.787  14.670  22.513  0.00  0.00     0.019 A 
ATOM     14  C   UNL d   1     -50.489  14.795  22.094  0.00  0.00     0.002 A 
ATOM     15  C   UNL d   1     -51.057  14.201  22.045  0.00  0.00     0.000 A 
ATOM     16  C   UNL d   1     -50.910  13.471  22.426  0.00  0.00     0.002 A 
ATOM     17  C   UNL d   1     -50.217  13.353  22.837  0.00  0.00     0.019 A 
ENDBRANCH  10  12
ENDBRANCH   8   9
ENDBRANCH   5   8
BRANCH   1  18
ATOM     18  C   UNL d   1     -45.556  11.336  23.282  0.00  0.00     0.070 A 
ATOM     19  C   UNL d   1     -45.456  10.621  23.686  0.00  0.00     0.018 A 
ATOM     20  C   UNL d   1     -44.721  10.248  23.681  0.00  0.00     0.002 A 
ATOM     21  C   UNL d   1     -44.090  10.581  23.280  0.00  0.00     0.000 A 
ATOM     22  C   UNL d   1     -44.189  11.299  22.873  0.00  0.00     0.002 A 
ATOM     23  C   UNL d   1     -44.921  11.673  22.876  0.00  0.00     0.018 A 
ENDBRANCH   1  18
TORSDOF 4
ENDMDL
