MODEL 1
REMARK VINA RESULT:      70.1      0.000      0.000
REMARK  5 active torsions:
REMARK  status: ('A' for Active; 'I' for Inactive)
REMARK    1  A    between atoms: C_22  and  N_10 
REMARK    2  A    between atoms: C_19  and  N_13 
REMARK    3  A    between atoms: N_14  and  C_26 
REMARK    4  A    between atoms: C_25  and  C_22 
REMARK    5  A    between atoms: C_26  and  C_25 
ROOT
ATOM      1  C   UNL d   1      43.404 -15.604  36.969  0.00  0.00     0.173 A 
ATOM      2  C   UNL d   1      43.249 -14.910  37.341  0.00  0.00     0.191 A 
ATOM      3  C   UNL d   1      44.640 -14.635  37.447  0.00  0.00     0.722 A 
ATOM      4  N   UNL d   1      44.810 -15.347  37.066  0.00  0.00    -0.131 N 
ATOM      5  N   UNL d   1      43.860 -14.417  37.584  0.00  0.00    -0.042 NA
ATOM      6  N   UNL d   1      42.478 -14.680  37.484  0.00  0.00    -0.240 N 
ATOM      7  N   UNL d   1      42.045 -15.915  36.843  0.00  0.00    -0.223 N 
ATOM      8  C   UNL d   1      41.870 -15.183  37.235  0.00  0.00     0.343 A 
ATOM      9  C   UNL d   1      42.823 -16.124  36.711  0.00  0.00     0.288 A 
ATOM     10  N   UNL d   1      45.257 -14.140  37.691  0.00  0.00    -0.139 N 
ATOM     11  C   UNL d   1      46.210 -15.069  37.173  0.00  0.00     0.116 A 
ATOM     12  C   UNL d   1      46.040 -14.358  37.555  0.00  0.00     0.100 A 
ATOM     13  O   UNL d   1      41.071 -14.928  37.393  0.00  0.00    -0.245 OA
ATOM     14  O   UNL d   1      42.993 -16.835  36.330  0.00  0.00    -0.265 OA
ATOM     15  C   UNL d   1      42.308 -13.968  37.865  0.00  0.00     0.105 C 
ATOM     16  C   UNL d   1      41.444 -16.407  36.600  0.00  0.00     0.107 C 
ATOM     17  C   UNL d   1      46.642 -13.845  37.809  0.00  0.00     0.021 C 
ENDROOT
BRANCH  10  18
ATOM     18  C   UNL d   1      45.091 -13.428  38.073  0.00  0.00     0.100 C 
BRANCH  18  19
ATOM     19  C   UNL d   1      45.291 -13.322  38.872  0.00  0.00     0.039 C 
BRANCH  19  20
ATOM     20  C   UNL d   1      45.031 -12.665  39.274  0.00  0.00     0.082 C 
BRANCH  20  21
ATOM     21  N   UNL d   1      45.104 -12.627  40.092  0.00  0.00    -0.300 N 
ATOM     22  C   UNL d   1      44.605 -12.130  40.523  0.00  0.00     0.100 A 
ATOM     23  C   UNL d   1      44.679 -12.093  41.338  0.00  0.00     0.100 A 
ATOM     24  N   UNL d   1      45.245 -12.547  41.720  0.00  0.00    -0.301 N 
ATOM     25  C   UNL d   1      45.737 -13.037  41.287  0.00  0.00     0.100 A 
ATOM     26  C   UNL d   1      45.668 -13.080  40.465  0.00  0.00     0.100 A 
BRANCH  24  27
ATOM     27  C   UNL d   1      45.319 -12.509  42.538  0.00  0.00     0.064 A 
ATOM     28  C   UNL d   1      44.716 -12.780  43.018  0.00  0.00     0.018 A 
ATOM     29  C   UNL d   1      44.783 -12.745  43.832  0.00  0.00     0.002 A 
ATOM     30  C   UNL d   1      45.469 -12.431  44.169  0.00  0.00     0.000 A 
ATOM     31  C   UNL d   1      46.081 -12.156  43.684  0.00  0.00     0.002 A 
ATOM     32  C   UNL d   1      46.005 -12.195  42.875  0.00  0.00     0.018 A 
ENDBRANCH  24  27
ENDBRANCH  20  21
ENDBRANCH  19  20
ENDBRANCH  18  19
ENDBRANCH  10  18
TORSDOF 5
ENDMDL
MODEL 2
REMARK VINA RESULT:      72.5      3.289      4.085
REMARK  5 active torsions:
REMARK  status: ('A' for Active; 'I' for Inactive)
REMARK    1  A    between atoms: C_22  and  N_10 
REMARK    2  A    between atoms: C_19  and  N_13 
REMARK    3  A    between atoms: N_14  and  C_26 
REMARK    4  A    between atoms: C_25  and  C_22 
REMARK    5  A    between atoms: C_26  and  C_25 
ROOT
ATOM      1  C   UNL d   1      43.006 -15.075  36.920  0.00  0.00     0.173 A 
ATOM      2  C   UNL d   1      43.277 -15.827  36.990  0.00  0.00     0.191 A 
ATOM      3  C   UNL d   1      44.564 -15.349  37.358  0.00  0.00     0.722 A 
ATOM      4  N   UNL d   1      44.295 -14.572  37.289  0.00  0.00    -0.131 N 
ATOM      5  N   UNL d   1      44.055 -15.975  37.208  0.00  0.00    -0.042 NA
ATOM      6  N   UNL d   1      42.782 -16.461  36.845  0.00  0.00    -0.240 N 
ATOM      7  N   UNL d   1      41.724 -15.503  36.555  0.00  0.00    -0.223 N 
ATOM      8  C   UNL d   1      42.000 -16.301  36.626  0.00  0.00     0.343 A 
ATOM      9  C   UNL d   1      42.237 -14.885  36.705  0.00  0.00     0.288 A 
ATOM     10  N   UNL d   1      45.348 -15.495  37.578  0.00  0.00    -0.139 N 
ATOM     11  C   UNL d   1      45.592 -14.090  37.659  0.00  0.00     0.116 A 
ATOM     12  C   UNL d   1      45.861 -14.867  37.728  0.00  0.00     0.100 A 
ATOM     13  O   UNL d   1      41.497 -16.975  36.478  0.00  0.00    -0.245 OA
ATOM     14  O   UNL d   1      41.968 -14.109  36.636  0.00  0.00    -0.265 OA
ATOM     15  C   UNL d   1      43.051 -17.238  36.914  0.00  0.00     0.105 C 
ATOM     16  C   UNL d   1      40.954 -15.350  36.339  0.00  0.00     0.107 C 
ATOM     17  C   UNL d   1      46.643 -15.038  37.947  0.00  0.00     0.021 C 
ENDROOT
BRANCH  10  18
ATOM     18  C   UNL d   1      45.621 -16.270  37.648  0.00  0.00     0.100 C 
BRANCH  18  19
ATOM     19  C   UNL d   1      45.824 -16.579  38.391  0.00  0.00     0.039 C 
BRANCH  19  20
ATOM     20  C   UNL d   1      45.769 -17.378  38.530  0.00  0.00     0.082 C 
BRANCH  20  21
ATOM     21  N   UNL d   1      45.889 -17.675  39.287  0.00  0.00    -0.300 N 
ATOM     22  C   UNL d   1      45.412 -18.289  39.565  0.00  0.00     0.100 A 
ATOM     23  C   UNL d   1      45.534 -18.582  40.320  0.00  0.00     0.100 A 
ATOM     24  N   UNL d   1      46.126 -18.268  40.794  0.00  0.00    -0.301 N 
ATOM     25  C   UNL d   1      46.594 -17.660  40.512  0.00  0.00     0.100 A 
ATOM     26  C   UNL d   1      46.478 -17.358  39.752  0.00  0.00     0.100 A 
BRANCH  24  27
ATOM     27  C   UNL d   1      46.247 -18.564  41.551  0.00  0.00     0.064 A 
ATOM     28  C   UNL d   1      46.105 -19.352  41.712  0.00  0.00     0.018 A 
ATOM     29  C   UNL d   1      46.223 -19.652  42.463  0.00  0.00     0.002 A 
ATOM     30  C   UNL d   1      46.489 -19.151  43.063  0.00  0.00     0.000 A 
ATOM     31  C   UNL d   1      46.633 -18.351  42.902  0.00  0.00     0.002 A 
ATOM     32  C   UNL d   1      46.512 -18.062  42.151  0.00  0.00     0.018 A 
ENDBRANCH  24  27
ENDBRANCH  20  21
ENDBRANCH  19  20
ENDBRANCH  18  19
ENDBRANCH  10  18
TORSDOF 5
ENDMDL
