MODEL 1
REMARK VINA RESULT:      -3.4      0.000      0.000
REMARK  3 active torsions:
REMARK  status: ('A' for Active; 'I' for Inactive)
REMARK    1  A    between atoms: C_8  and  C_2 
REMARK    2  A    between atoms: C_7  and  C_5 
REMARK    3  A    between atoms: C_10  and  C_8 
ROOT
ATOM      1  C   UNL d   1      30.893  16.858 -24.311  0.00  0.00     0.101 A 
ATOM      2  O   UNL d   1      31.243  17.592 -24.277  0.00  0.00    -0.307 OA
ATOM      3  C   UNL d   1      32.041  17.486 -24.491  0.00  0.00     0.101 A 
ATOM      4  C   UNL d   1      31.473  16.335 -24.538  0.00  0.00     0.027 A 
ATOM      5  C   UNL d   1      32.161  16.750 -24.640  0.00  0.00     0.027 A 
ENDROOT
BRANCH   1   6
ATOM      6  C   UNL d   1      30.097  16.711 -24.139  0.00  0.00     0.034 A 
ATOM      7  C   UNL d   1      29.912  16.159 -23.518  0.00  0.00     0.070 A 
ATOM      8  C   UNL d   1      29.101  16.001 -23.334  0.00  0.00     0.068 A 
ATOM      9 CL   UNL d   1      30.487  15.708 -23.017  0.00  0.00    -0.081 Cl
ATOM     10 CL   UNL d   1      29.067  15.459 -22.725  0.00  0.00    -0.082 Cl
ATOM     11  C   UNL d   1      28.513  16.394 -23.770  0.00  0.00     0.012 A 
ATOM     12  C   UNL d   1      28.716  16.935 -24.378  0.00  0.00     0.001 A 
ATOM     13  C   UNL d   1      29.493  17.084 -24.551  0.00  0.00     0.003 A 
ENDBRANCH   1   6
BRANCH   3  14
ATOM     14  C   UNL d   1      32.638  18.074 -24.542  0.00  0.00     0.036 C 
BRANCH  14  15
ATOM     15  C   UNL d   1      32.838  18.502 -23.866  0.00  0.00     0.094 A 
ATOM     16  C   UNL d   1      33.049  19.292 -23.912  0.00  0.00     0.288 A 
ATOM     17  N   UNL d   1      33.219  19.572 -23.140  0.00  0.00    -0.163 NA
ATOM     18  O   UNL d   1      33.091  19.765 -24.636  0.00  0.00    -0.265 OA
ATOM     19  C   UNL d   1      33.111  18.972 -22.666  0.00  0.00     0.313 A 
ATOM     20  S   UNL d   1      32.873  18.284 -23.081  0.00  0.00    -0.021 SA
ATOM     21  O   UNL d   1      33.241  19.082 -21.847  0.00  0.00    -0.258 OA
ENDBRANCH  14  15
ENDBRANCH   3  14
TORSDOF 3
ENDMDL
MODEL 2
REMARK VINA RESULT:      -3.0      2.249      4.079
REMARK  3 active torsions:
REMARK  status: ('A' for Active; 'I' for Inactive)
REMARK    1  A    between atoms: C_8  and  C_2 
REMARK    2  A    between atoms: C_7  and  C_5 
REMARK    3  A    between atoms: C_10  and  C_8 
ROOT
ATOM      1  C   UNL d   1      32.119  17.490 -24.471  0.00  0.00     0.101 A 
ATOM      2  O   UNL d   1      31.345  17.387 -24.700  0.00  0.00    -0.307 OA
ATOM      3  C   UNL d   1      31.201  16.566 -24.697  0.00  0.00     0.101 A 
ATOM      4  C   UNL d   1      32.422  16.747 -24.337  0.00  0.00     0.027 A 
ATOM      5  C   UNL d   1      31.836  16.206 -24.483  0.00  0.00     0.027 A 
ENDROOT
BRANCH   1   6
ATOM      6  C   UNL d   1      32.492  18.225 -24.400  0.00  0.00     0.034 A 
ATOM      7  C   UNL d   1      32.708  18.496 -23.624  0.00  0.00     0.070 A 
ATOM      8  C   UNL d   1      33.090  19.247 -23.540  0.00  0.00     0.068 A 
ATOM      9 CL   UNL d   1      32.577  18.074 -22.856  0.00  0.00    -0.081 Cl
ATOM     10 CL   UNL d   1      33.239  19.382 -22.749  0.00  0.00    -0.082 Cl
ATOM     11  C   UNL d   1      33.241  19.693 -24.224  0.00  0.00     0.012 A 
ATOM     12  C   UNL d   1      33.021  19.407 -24.982  0.00  0.00     0.001 A 
ATOM     13  C   UNL d   1      32.655  18.689 -25.058  0.00  0.00     0.003 A 
ENDBRANCH   1   6
BRANCH   3  14
ATOM     14  C   UNL d   1      30.486  16.172 -24.891  0.00  0.00     0.036 C 
BRANCH  14  15
ATOM     15  C   UNL d   1      29.930  16.034 -24.297  0.00  0.00     0.094 A 
ATOM     16  C   UNL d   1      29.145  16.245 -24.395  0.00  0.00     0.288 A 
ATOM     17  N   UNL d   1      28.721  16.036 -23.702  0.00  0.00    -0.163 NA
ATOM     18  O   UNL d   1      28.804  16.620 -25.097  0.00  0.00    -0.265 OA
ATOM     19  C   UNL d   1      29.237  15.719 -23.223  0.00  0.00     0.313 A 
ATOM     20  S   UNL d   1      30.005  15.699 -23.558  0.00  0.00    -0.021 SA
ATOM     21  O   UNL d   1      28.975  15.453 -22.475  0.00  0.00    -0.258 OA
ENDBRANCH  14  15
ENDBRANCH   3  14
TORSDOF 3
ENDMDL
MODEL 3
REMARK VINA RESULT:      -2.1      0.608      1.157
REMARK  3 active torsions:
REMARK  status: ('A' for Active; 'I' for Inactive)
REMARK    1  A    between atoms: C_8  and  C_2 
REMARK    2  A    between atoms: C_7  and  C_5 
REMARK    3  A    between atoms: C_10  and  C_8 
ROOT
ATOM      1  C   UNL d   1      31.101  16.640 -24.010  0.00  0.00     0.101 A 
ATOM      2  O   UNL d   1      31.440  17.247 -23.587  0.00  0.00    -0.307 OA
ATOM      3  C   UNL d   1      32.262  17.114 -23.594  0.00  0.00     0.101 A 
ATOM      4  C   UNL d   1      31.710  16.162 -24.258  0.00  0.00     0.027 A 
ATOM      5  C   UNL d   1      32.405  16.479 -23.988  0.00  0.00     0.027 A 
ENDROOT
BRANCH   1   6
ATOM      6  C   UNL d   1      30.288  16.559 -24.140  0.00  0.00     0.034 A 
ATOM      7  C   UNL d   1      29.843  16.052 -23.622  0.00  0.00     0.070 A 
ATOM      8  C   UNL d   1      29.010  15.961 -23.747  0.00  0.00     0.068 A 
ATOM      9 CL   UNL d   1      30.154  15.585 -22.936  0.00  0.00    -0.081 Cl
ATOM     10 CL   UNL d   1      28.711  15.452 -23.183  0.00  0.00    -0.082 Cl
ATOM     11  C   UNL d   1      28.657  16.374 -24.376  0.00  0.00     0.012 A 
ATOM     12  C   UNL d   1      29.114  16.869 -24.876  0.00  0.00     0.001 A 
ATOM     13  C   UNL d   1      29.909  16.953 -24.754  0.00  0.00     0.003 A 
ENDBRANCH   1   6
BRANCH   3  14
ATOM     14  C   UNL d   1      32.859  17.583 -23.235  0.00  0.00     0.036 C 
BRANCH  14  15
ATOM     15  C   UNL d   1      32.986  18.349 -23.513  0.00  0.00     0.094 A 
ATOM     16  C   UNL d   1      33.136  18.966 -22.997  0.00  0.00     0.288 A 
ATOM     17  N   UNL d   1      33.241  19.670 -23.440  0.00  0.00    -0.163 NA
ATOM     18  O   UNL d   1      33.180  18.907 -22.134  0.00  0.00    -0.265 OA
ATOM     19  C   UNL d   1      33.156  19.471 -24.181  0.00  0.00     0.313 A 
ATOM     20  S   UNL d   1      32.996  18.653 -24.269  0.00  0.00    -0.021 SA
ATOM     21  O   UNL d   1      33.231  20.065 -24.765  0.00  0.00    -0.258 OA
ENDBRANCH  14  15
ENDBRANCH   3  14
TORSDOF 3
ENDMDL
MODEL 4
REMARK VINA RESULT:      -1.9      2.721      4.717
REMARK  3 active torsions:
REMARK  status: ('A' for Active; 'I' for Inactive)
REMARK    1  A    between atoms: C_8  and  C_2 
REMARK    2  A    between atoms: C_7  and  C_5 
REMARK    3  A    between atoms: C_10  and  C_8 
ROOT
ATOM      1  C   UNL d   1      33.215  19.747 -23.134  0.00  0.00     0.101 A 
ATOM      2  O   UNL d   1      33.219  18.950 -22.972  0.00  0.00    -0.307 OA
ATOM      3  C   UNL d   1      33.231  18.556 -23.706  0.00  0.00     0.101 A 
ATOM      4  C   UNL d   1      33.224  19.819 -23.944  0.00  0.00     0.027 A 
ATOM      5  C   UNL d   1      33.233  19.075 -24.263  0.00  0.00     0.027 A 
ENDROOT
BRANCH   1   6
ATOM      6  C   UNL d   1      33.204  20.342 -22.559  0.00  0.00     0.034 A 
ATOM      7  C   UNL d   1      33.217  21.153 -22.814  0.00  0.00     0.070 A 
ATOM      8  C   UNL d   1      33.206  21.770 -22.233  0.00  0.00     0.068 A 
ATOM      9 CL   UNL d   1      33.241  21.449 -23.649  0.00  0.00    -0.081 Cl
ATOM     10 CL   UNL d   1      33.221  22.492 -22.612  0.00  0.00    -0.082 Cl
ATOM     11  C   UNL d   1      33.183  21.556 -21.431  0.00  0.00     0.012 A 
ATOM     12  C   UNL d   1      33.171  20.750 -21.199  0.00  0.00     0.001 A 
ATOM     13  C   UNL d   1      33.182  20.163 -21.757  0.00  0.00     0.003 A 
ENDBRANCH   1   6
BRANCH   3  14
ATOM     14  C   UNL d   1      33.238  17.728 -23.841  0.00  0.00     0.036 C 
BRANCH  14  15
ATOM     15  C   UNL d   1      32.525  17.313 -23.827  0.00  0.00     0.094 A 
ATOM     16  C   UNL d   1      32.487  16.546 -23.545  0.00  0.00     0.288 A 
ATOM     17  N   UNL d   1      31.695  16.276 -23.602  0.00  0.00    -0.163 NA
ATOM     18  O   UNL d   1      33.153  16.085 -23.239  0.00  0.00    -0.265 OA
ATOM     19  C   UNL d   1      31.290  16.860 -23.903  0.00  0.00     0.313 A 
ATOM     20  S   UNL d   1      31.773  17.528 -24.058  0.00  0.00    -0.021 SA
ATOM     21  O   UNL d   1      30.470  16.756 -24.027  0.00  0.00    -0.258 OA
ENDBRANCH  14  15
ENDBRANCH   3  14
TORSDOF 3
ENDMDL
MODEL 5
REMARK VINA RESULT:      -1.2      3.472      4.948
REMARK  3 active torsions:
REMARK  status: ('A' for Active; 'I' for Inactive)
REMARK    1  A    between atoms: C_8  and  C_2 
REMARK    2  A    between atoms: C_7  and  C_5 
REMARK    3  A    between atoms: C_10  and  C_8 
ROOT
ATOM      1  C   UNL d   1      33.128  20.108 -21.972  0.00  0.00     0.101 A 
ATOM      2  O   UNL d   1      33.209  20.890 -21.763  0.00  0.00    -0.307 OA
ATOM      3  C   UNL d   1      33.179  20.921 -20.931  0.00  0.00     0.101 A 
ATOM      4  C   UNL d   1      33.051  19.690 -21.279  0.00  0.00     0.027 A 
ATOM      5  C   UNL d   1      33.087  20.215 -20.663  0.00  0.00     0.027 A 
ENDROOT
BRANCH   1   6
ATOM      6  C   UNL d   1      33.127  19.830 -22.751  0.00  0.00     0.034 A 
ATOM      7  C   UNL d   1      33.014  18.997 -22.884  0.00  0.00     0.070 A 
ATOM      8  C   UNL d   1      33.012  18.701 -23.677  0.00  0.00     0.068 A 
ATOM      9 CL   UNL d   1      32.893  18.371 -22.268  0.00  0.00    -0.081 Cl
ATOM     10 CL   UNL d   1      32.895  17.894 -23.659  0.00  0.00    -0.082 Cl
ATOM     11  C   UNL d   1      33.121  19.240 -24.300  0.00  0.00     0.012 A 
ATOM     12  C   UNL d   1      33.230  20.058 -24.149  0.00  0.00     0.001 A 
ATOM     13  C   UNL d   1      33.232  20.337 -23.389  0.00  0.00     0.003 A 
ENDBRANCH   1   6
BRANCH   3  14
ATOM     14  C   UNL d   1      33.238  21.601 -20.442  0.00  0.00     0.036 C 
BRANCH  14  15
ATOM     15  C   UNL d   1      32.712  22.225 -20.561  0.00  0.00     0.094 A 
ATOM     16  C   UNL d   1      32.684  22.859 -20.043  0.00  0.00     0.288 A 
ATOM     17  N   UNL d   1      32.100  23.399 -20.309  0.00  0.00    -0.163 NA
ATOM     18  O   UNL d   1      33.174  22.958 -19.337  0.00  0.00    -0.265 OA
ATOM     19  C   UNL d   1      31.802  23.094 -20.952  0.00  0.00     0.313 A 
ATOM     20  S   UNL d   1      32.158  22.359 -21.144  0.00  0.00    -0.021 SA
ATOM     21  O   UNL d   1      31.198  23.513 -21.350  0.00  0.00    -0.258 OA
ENDBRANCH  14  15
ENDBRANCH   3  14
TORSDOF 3
ENDMDL
MODEL 6
REMARK VINA RESULT:      -0.7      2.692      4.279
REMARK  3 active torsions:
REMARK  status: ('A' for Active; 'I' for Inactive)
REMARK    1  A    between atoms: C_8  and  C_2 
REMARK    2  A    between atoms: C_7  and  C_5 
REMARK    3  A    between atoms: C_10  and  C_8 
ROOT
ATOM      1  C   UNL d   1      30.937  15.851 -23.954  0.00  0.00     0.101 A 
ATOM      2  O   UNL d   1      30.258  16.030 -24.365  0.00  0.00    -0.307 OA
ATOM      3  C   UNL d   1      29.618  15.790 -23.888  0.00  0.00     0.101 A 
ATOM      4  C   UNL d   1      30.701  15.513 -23.252  0.00  0.00     0.027 A 
ATOM      5  C   UNL d   1      29.891  15.491 -23.243  0.00  0.00     0.027 A 
ENDROOT
BRANCH   1   6
ATOM      6  C   UNL d   1      31.703  15.998 -24.229  0.00  0.00     0.034 A 
ATOM      7  C   UNL d   1      32.147  16.629 -23.872  0.00  0.00     0.070 A 
ATOM      8  C   UNL d   1      32.933  16.789 -24.146  0.00  0.00     0.068 A 
ATOM      9 CL   UNL d   1      31.880  17.166 -23.219  0.00  0.00    -0.081 Cl
ATOM     10 CL   UNL d   1      33.240  17.414 -23.721  0.00  0.00    -0.082 Cl
ATOM     11  C   UNL d   1      33.241  16.319 -24.757  0.00  0.00     0.012 A 
ATOM     12  C   UNL d   1      32.786  15.700 -25.097  0.00  0.00     0.001 A 
ATOM     13  C   UNL d   1      32.036  15.551 -24.832  0.00  0.00     0.003 A 
ENDBRANCH   1   6
BRANCH   3  14
ATOM     14  C   UNL d   1      28.799  15.854 -24.061  0.00  0.00     0.036 C 
BRANCH  14  15
ATOM     15  C   UNL d   1      28.373  16.488 -23.751  0.00  0.00     0.094 A 
ATOM     16  C   UNL d   1      27.645  16.375 -23.395  0.00  0.00     0.288 A 
ATOM     17  N   UNL d   1      27.351  17.117 -23.137  0.00  0.00    -0.163 NA
ATOM     18  O   UNL d   1      27.240  15.615 -23.299  0.00  0.00    -0.265 OA
ATOM     19  C   UNL d   1      27.885  17.639 -23.334  0.00  0.00     0.313 A 
ATOM     20  S   UNL d   1      28.540  17.286 -23.720  0.00  0.00    -0.021 SA
ATOM     21  O   UNL d   1      27.746  18.441 -23.146  0.00  0.00    -0.258 OA
ENDBRANCH  14  15
ENDBRANCH   3  14
TORSDOF 3
ENDMDL
