MODEL 1
REMARK VINA RESULT:      95.2      0.000      0.000
REMARK  4 active torsions:
REMARK  status: ('A' for Active; 'I' for Inactive)
REMARK    1  A    between atoms: N_10  and  C_3 
REMARK    2  A    between atoms: C_14  and  C_5 
REMARK    3  A    between atoms: C_15  and  C_9 
REMARK       I    between atoms: C_11  and  N_12 
REMARK    4  A    between atoms: C_13  and  C_11 
ROOT
ATOM      1  N   UNL d   1      45.547 -18.016  40.895  0.00  0.00    -0.196 N 
ATOM      2  C   UNL d   1      45.715 -18.279  41.690  0.00  0.00     0.167 A 
ATOM      3  C   UNL d   1      45.286 -17.249  40.784  0.00  0.00     0.152 A 
ATOM      4  N   UNL d   1      45.917 -19.310  40.403  0.00  0.00    -0.163 NA
ATOM      5  C   UNL d   1      45.979 -19.046  41.828  0.00  0.00     0.055 A 
ATOM      6  N   UNL d   1      45.612 -17.760  42.331  0.00  0.00    -0.231 NA
ATOM      7  C   UNL d   1      45.182 -16.730  41.410  0.00  0.00     0.052 A 
ATOM      8  C   UNL d   1      46.082 -19.568  41.182  0.00  0.00     0.104 A 
ATOM      9  C   UNL d   1      45.347 -16.988  42.193  0.00  0.00     0.063 A 
ATOM     10  C   UNL d   1      46.344 -20.330  41.318  0.00  0.00     0.023 C 
ENDROOT
BRANCH   3  11
ATOM     11  N   UNL d   1      45.114 -16.978  39.977  0.00  0.00    -0.286 N 
ATOM     12  C   UNL d   1      44.433 -16.933  39.526  0.00  0.00     0.101 A 
ATOM     13  C   UNL d   1      44.456 -16.641  38.757  0.00  0.00     0.102 A 
ATOM     14  N   UNL d   1      45.174 -16.393  38.441  0.00  0.00    -0.267 N 
ATOM     15  C   UNL d   1      45.212 -16.101  37.678  0.00  0.00     0.288 C 
ATOM     16  C   UNL d   1      45.854 -16.437  38.888  0.00  0.00     0.102 A 
ATOM     17  O   UNL d   1      45.928 -15.852  37.359  0.00  0.00    -0.264 OA
ATOM     18  C   UNL d   1      45.823 -16.731  39.659  0.00  0.00     0.101 A 
BRANCH  15  19
ATOM     19  C   UNL d   1      44.530 -16.056  37.227  0.00  0.00     0.156 A 
ATOM     20  O   UNL d   1      44.045 -15.393  37.287  0.00  0.00    -0.300 OA
ATOM     21  C   UNL d   1      43.363 -15.348  36.836  0.00  0.00     0.123 A 
ATOM     22  C   UNL d   1      43.163 -15.950  36.332  0.00  0.00     0.029 A 
ATOM     23  C   UNL d   1      44.329 -16.658  36.723  0.00  0.00     0.032 A 
ENDBRANCH  15  19
ENDBRANCH   3  11
BRANCH   9  24
ATOM     24  C   UNL d   1      45.238 -16.439  42.864  0.00  0.00     0.036 C 
ATOM     25  C   UNL d   1      45.129 -15.892  43.526  0.00  0.00     0.006 C 
ATOM     26  C   UNL d   1      45.348 -16.717  43.681  0.00  0.00     0.006 C 
ATOM     27  C   UNL d   1      45.019 -15.613  42.713  0.00  0.00     0.006 C 
ENDBRANCH   9  24
BRANCH   5  28
ATOM     28  C   UNL d   1      46.142 -19.301  42.599  0.00  0.00     0.004 A 
ATOM     29  C   UNL d   1      45.965 -20.070  42.825  0.00  0.00     0.001 A 
ATOM     30  C   UNL d   1      46.130 -20.328  43.605  0.00  0.00     0.011 A 
ATOM     31  C   UNL d   1      46.468 -19.812  44.147  0.00  0.00     0.058 A 
ATOM     32  C   UNL d   1      46.646 -19.026  43.911  0.00  0.00     0.011 A 
ATOM     33 CL   UNL d   1      46.639 -20.079  44.955  0.00  0.00    -0.082 Cl
ATOM     34  C   UNL d   1      46.484 -18.773  43.144  0.00  0.00     0.001 A 
ENDBRANCH   5  28
TORSDOF 4
ENDMDL
