MODEL 1
REMARK VINA RESULT:      61.9      0.000      0.000
REMARK  5 active torsions:
REMARK  status: ('A' for Active; 'I' for Inactive)
REMARK    1  A    between atoms: N_2  and  S_1 
REMARK    2  A    between atoms: C_3  and  S_1 
REMARK    3  A    between atoms: C_8  and  N_2 
REMARK    4  A    between atoms: C_7  and  C_6 
REMARK    5  A    between atoms: C_16  and  C_8 
ROOT
ATOM      1  C   UNL d   1     -47.887  29.634  35.324  0.00  0.00     0.105 A 
ATOM      2  C   UNL d   1     -48.862  28.481  34.641  0.00  0.00     0.000 A 
ATOM      3  C   UNL d   1     -48.309  29.113  35.804  0.00  0.00     0.013 A 
ATOM      4  C   UNL d   1     -47.952  29.581  34.506  0.00  0.00     0.013 A 
ATOM      5  C   UNL d   1     -48.799  28.533  35.460  0.00  0.00     0.001 A 
ATOM      6  C   UNL d   1     -48.441  29.001  34.162  0.00  0.00     0.001 A 
ENDROOT
BRANCH   1   7
ATOM      7  S   UNL d   1     -47.403  30.207  35.669  0.00  0.00     0.285 S 
ATOM      8  O   UNL d   1     -47.115  29.651  36.199  0.00  0.00    -0.198 OA
ATOM      9  O   UNL d   1     -46.923  30.771  36.013  0.00  0.00    -0.198 OA
BRANCH   7  10
ATOM     10  N   UNL d   1     -47.691  30.768  35.138  0.00  0.00    -0.155 NA
BRANCH  10  11
ATOM     11  C   UNL d   1     -47.417  31.548  35.180  0.00  0.00     0.137 C 
BRANCH  11  12
ATOM     12  C   UNL d   1     -47.637  32.095  34.586  0.00  0.00     0.120 A 
ATOM     13  O   UNL d   1     -48.358  32.497  34.528  0.00  0.00    -0.304 OA
ATOM     14  C   UNL d   1     -48.326  32.976  33.858  0.00  0.00     0.123 A 
ATOM     15  C   UNL d   1     -47.597  32.873  33.505  0.00  0.00     0.029 A 
ATOM     16  C   UNL d   1     -47.167  32.329  33.953  0.00  0.00     0.028 A 
ENDBRANCH  11  12
ENDBRANCH  10  11
ENDBRANCH   7  10
ENDBRANCH   1   7
BRANCH   2  17
ATOM     17  C   UNL d   1     -49.344  27.911  34.308  0.00  0.00     0.000 A 
ATOM     18  C   UNL d   1     -49.352  27.149  34.623  0.00  0.00     0.000 A 
ATOM     19  C   UNL d   1     -49.836  26.567  34.293  0.00  0.00     0.000 A 
ATOM     20  C   UNL d   1     -50.316  26.758  33.638  0.00  0.00     0.000 A 
ATOM     21  C   UNL d   1     -50.308  27.518  33.324  0.00  0.00     0.000 A 
ATOM     22  C   UNL d   1     -50.801  26.179  33.306  0.00  0.00     0.000 C 
ATOM     23  C   UNL d   1     -49.823  28.097  33.657  0.00  0.00     0.000 A 
ENDBRANCH   2  17
TORSDOF 5
ENDMDL
MODEL 2
REMARK VINA RESULT:      63.1      3.155      5.695
REMARK  5 active torsions:
REMARK  status: ('A' for Active; 'I' for Inactive)
REMARK    1  A    between atoms: N_2  and  S_1 
REMARK    2  A    between atoms: C_3  and  S_1 
REMARK    3  A    between atoms: C_8  and  N_2 
REMARK    4  A    between atoms: C_7  and  C_6 
REMARK    5  A    between atoms: C_16  and  C_8 
ROOT
ATOM      1  C   UNL d   1     -50.526  27.045  33.907  0.00  0.00     0.105 A 
ATOM      2  C   UNL d   1     -49.242  27.906  34.507  0.00  0.00     0.000 A 
ATOM      3  C   UNL d   1     -50.113  26.767  34.564  0.00  0.00     0.013 A 
ATOM      4  C   UNL d   1     -50.299  27.751  33.550  0.00  0.00     0.013 A 
ATOM      5  C   UNL d   1     -49.468  27.200  34.866  0.00  0.00     0.001 A 
ATOM      6  C   UNL d   1     -49.653  28.183  33.851  0.00  0.00     0.001 A 
ENDROOT
BRANCH   1   7
ATOM      7  S   UNL d   1     -51.164  26.614  33.613  0.00  0.00     0.285 S 
ATOM      8  O   UNL d   1     -51.608  27.301  33.555  0.00  0.00    -0.198 OA
ATOM      9  O   UNL d   1     -51.798  26.189  33.320  0.00  0.00    -0.198 OA
BRANCH   7  10
ATOM     10  N   UNL d   1     -50.720  25.921  33.669  0.00  0.00    -0.155 NA
BRANCH  10  11
ATOM     11  C   UNL d   1     -51.002  25.226  33.321  0.00  0.00     0.137 C 
BRANCH  11  12
ATOM     12  C   UNL d   1     -50.603  24.503  33.459  0.00  0.00     0.120 A 
ATOM     13  O   UNL d   1     -49.815  24.412  33.693  0.00  0.00    -0.304 OA
ATOM     14  C   UNL d   1     -49.665  23.604  33.760  0.00  0.00     0.123 A 
ATOM     15  C   UNL d   1     -50.349  23.199  33.571  0.00  0.00     0.029 A 
ATOM     16  C   UNL d   1     -50.932  23.753  33.384  0.00  0.00     0.028 A 
ENDBRANCH  11  12
ENDBRANCH  10  11
ENDBRANCH   7  10
ENDBRANCH   1   7
BRANCH   2  17
ATOM     17  C   UNL d   1     -48.608  28.326  34.806  0.00  0.00     0.000 A 
ATOM     18  C   UNL d   1     -48.217  28.053  35.478  0.00  0.00     0.000 A 
ATOM     19  C   UNL d   1     -47.576  28.471  35.786  0.00  0.00     0.000 A 
ATOM     20  C   UNL d   1     -47.329  29.174  35.412  0.00  0.00     0.000 A 
ATOM     21  C   UNL d   1     -47.719  29.447  34.741  0.00  0.00     0.000 A 
ATOM     22  C   UNL d   1     -46.689  29.595  35.718  0.00  0.00     0.000 C 
ATOM     23  C   UNL d   1     -48.360  29.026  34.436  0.00  0.00     0.000 A 
ENDBRANCH   2  17
TORSDOF 5
ENDMDL
