MODEL 1
REMARK VINA RESULT:       8.1      0.000      0.000
REMARK  3 active torsions:
REMARK  status: ('A' for Active; 'I' for Inactive)
REMARK    1  A    between atoms: C_2  and  C_1 
REMARK    2  A    between atoms: C_4  and  C_1 
REMARK    3  A    between atoms: C_3  and  C_2 
ROOT
ATOM      1  C   UNL d   1     -51.302  24.938  33.311  0.00  0.00     0.000 A 
ATOM      2  C   UNL d   1     -51.992  24.474  33.318  0.00  0.00     0.000 A 
ATOM      3  C   UNL d   1     -51.933  23.670  33.323  0.00  0.00     0.000 A 
ATOM      4  C   UNL d   1     -50.496  23.757  33.314  0.00  0.00     0.000 A 
ATOM      5  C   UNL d   1     -50.556  24.580  33.309  0.00  0.00     0.000 A 
ATOM      6  C   UNL d   1     -52.719  24.834  33.320  0.00  0.00     0.000 A 
ATOM      7  C   UNL d   1     -51.182  23.292  33.321  0.00  0.00     0.000 A 
ATOM      8  C   UNL d   1     -52.599  23.188  33.330  0.00  0.00     0.000 A 
ATOM      9  C   UNL d   1     -53.401  24.371  33.327  0.00  0.00     0.000 A 
ATOM     10  C   UNL d   1     -53.341  23.548  33.332  0.00  0.00     0.000 A 
ENDROOT
BRANCH   1  11
ATOM     11  C   UNL d   1     -51.363  25.762  33.306  0.00  0.00     0.006 C 
BRANCH  11  12
ATOM     12  C   UNL d   1     -50.715  26.223  33.466  0.00  0.00     0.070 C 
BRANCH  12  13
ATOM     13  C   UNL d   1     -50.766  27.057  33.423  0.00  0.00     0.211 C 
ATOM     14  O   UNL d   1     -51.487  27.430  33.344  0.00  0.00    -0.644 OA
ATOM     15  O   UNL d   1     -50.086  27.523  33.458  0.00  0.00    -0.644 OA
ENDBRANCH  12  13
ENDBRANCH  11  12
ENDBRANCH   1  11
TORSDOF 3
ENDMDL
