MODEL 1
REMARK VINA RESULT:      -0.9      0.000      0.000
REMARK  3 active torsions:
REMARK  status: ('A' for Active; 'I' for Inactive)
REMARK       I    between atoms: C_3  and  N_1 
REMARK    1  A    between atoms: C_5  and  C_3 
REMARK    2  A    between atoms: C_9  and  C_4 
REMARK    3  A    between atoms: C_14  and  C_6 
ROOT
ATOM      1  N   UNL d   1      32.629  22.106 -21.760  0.00  0.00    -0.193 N 
ATOM      2  N   UNL d   1      32.756  21.524 -22.343  0.00  0.00    -0.162 NA
ATOM      3  C   UNL d   1      32.547  22.905 -21.928  0.00  0.00     0.303 C 
ATOM      4  C   UNL d   1      32.809  20.791 -21.957  0.00  0.00     0.109 A 
ATOM      5  C   UNL d   1      32.606  21.714 -21.028  0.00  0.00     0.088 A 
ATOM      6  C   UNL d   1      32.716  20.909 -21.144  0.00  0.00     0.041 A 
ATOM      7  O   UNL d   1      32.419  23.469 -21.312  0.00  0.00    -0.263 OA
ENDROOT
BRANCH   3   8
ATOM      8  C   UNL d   1      32.585  23.183 -22.676  0.00  0.00     0.158 A 
ATOM      9  O   UNL d   1      31.951  23.212 -23.217  0.00  0.00    -0.296 OA
ATOM     10  C   UNL d   1      32.231  23.536 -23.920  0.00  0.00     0.134 A 
ATOM     11 BR   UNL d   1      31.768  23.667 -24.621  0.00  0.00    -0.022 Br
ATOM     12  C   UNL d   1      33.015  23.702 -23.819  0.00  0.00     0.034 A 
ATOM     13  C   UNL d   1      33.240  23.492 -23.068  0.00  0.00     0.032 A 
ENDBRANCH   3   8
BRANCH   5  14
ATOM     14  C   UNL d   1      32.550  21.897 -20.681  0.00  0.00     0.018 A 
ATOM     15  C   UNL d   1      31.807  22.067 -20.365  0.00  0.00     0.002 A 
ATOM     16  C   UNL d   1      31.772  22.446 -19.645  0.00  0.00     0.000 A 
ATOM     17  C   UNL d   1      32.430  22.665 -19.224  0.00  0.00     0.000 A 
ATOM     18  C   UNL d   1      33.173  22.495 -19.540  0.00  0.00     0.000 A 
ATOM     19  C   UNL d   1      32.393  23.044 -18.506  0.00  0.00     0.000 C 
ATOM     20  C   UNL d   1      33.234  22.112 -20.268  0.00  0.00     0.002 A 
ENDBRANCH   5  14
BRANCH   4  21
ATOM     21  C   UNL d   1      32.933  20.056 -22.312  0.00  0.00     0.049 A 
ATOM     22  S   UNL d   1      33.152  19.971 -23.088  0.00  0.00    -0.085 SA
ATOM     23  C   UNL d   1      33.217  19.141 -23.219  0.00  0.00     0.035 A 
ATOM     24  C   UNL d   1      33.036  18.739 -22.521  0.00  0.00     0.007 A 
ATOM     25  C   UNL d   1      32.862  19.327 -21.970  0.00  0.00     0.009 A 
ENDBRANCH   4  21
TORSDOF 3
ENDMDL
MODEL 2
REMARK VINA RESULT:      -0.7      1.544      2.944
REMARK  3 active torsions:
REMARK  status: ('A' for Active; 'I' for Inactive)
REMARK       I    between atoms: C_3  and  N_1 
REMARK    1  A    between atoms: C_5  and  C_3 
REMARK    2  A    between atoms: C_9  and  C_4 
REMARK    3  A    between atoms: C_14  and  C_6 
ROOT
ATOM      1  N   UNL d   1      32.784  21.662 -21.788  0.00  0.00    -0.193 N 
ATOM      2  N   UNL d   1      32.923  21.702 -22.609  0.00  0.00    -0.162 NA
ATOM      3  C   UNL d   1      32.751  20.958 -21.367  0.00  0.00     0.303 C 
ATOM      4  C   UNL d   1      32.916  22.504 -22.825  0.00  0.00     0.109 A 
ATOM      5  C   UNL d   1      32.695  22.443 -21.520  0.00  0.00     0.088 A 
ATOM      6  C   UNL d   1      32.775  22.961 -22.151  0.00  0.00     0.041 A 
ATOM      7  O   UNL d   1      32.609  20.954 -20.536  0.00  0.00    -0.263 OA
ENDROOT
BRANCH   3   8
ATOM      8  C   UNL d   1      32.851  20.251 -21.725  0.00  0.00     0.158 A 
ATOM      9  O   UNL d   1      32.579  20.048 -22.488  0.00  0.00    -0.296 OA
ATOM     10  C   UNL d   1      32.801  19.270 -22.638  0.00  0.00     0.134 A 
ATOM     11 BR   UNL d   1      32.635  18.840 -23.353  0.00  0.00    -0.022 Br
ATOM     12  C   UNL d   1      33.198  18.998 -21.990  0.00  0.00     0.034 A 
ATOM     13  C   UNL d   1      33.235  19.584 -21.430  0.00  0.00     0.032 A 
ENDBRANCH   3   8
BRANCH   5  14
ATOM     14  C   UNL d   1      32.625  22.540 -21.142  0.00  0.00     0.018 A 
ATOM     15  C   UNL d   1      31.920  22.374 -20.748  0.00  0.00     0.002 A 
ATOM     16  C   UNL d   1      31.849  22.605 -19.970  0.00  0.00     0.000 A 
ATOM     17  C   UNL d   1      32.437  22.990 -19.564  0.00  0.00     0.000 A 
ATOM     18  C   UNL d   1      33.142  23.156 -19.958  0.00  0.00     0.000 A 
ATOM     19  C   UNL d   1      32.365  23.221 -18.788  0.00  0.00     0.000 C 
ATOM     20  C   UNL d   1      33.237  22.932 -20.746  0.00  0.00     0.002 A 
ENDBRANCH   5  14
BRANCH   4  21
ATOM     21  C   UNL d   1      33.029  22.809 -23.583  0.00  0.00     0.049 A 
ATOM     22  S   UNL d   1      33.154  22.342 -24.235  0.00  0.00    -0.085 SA
ATOM     23  C   UNL d   1      33.240  22.873 -24.884  0.00  0.00     0.035 A 
ATOM     24  C   UNL d   1      33.167  23.649 -24.615  0.00  0.00     0.007 A 
ATOM     25  C   UNL d   1      33.036  23.587 -23.803  0.00  0.00     0.009 A 
ENDBRANCH   4  21
TORSDOF 3
ENDMDL
