MODEL 1
REMARK VINA RESULT:      31.7      0.000      0.000
REMARK  4 active torsions:
REMARK  status: ('A' for Active; 'I' for Inactive)
REMARK    1  A    between atoms: C_2  and  N_1 
REMARK       I    between atoms: C_3  and  N_1 
REMARK    2  A    between atoms: C_6  and  C_3 
REMARK    3  A    between atoms: O_7  and  C_6 
REMARK    4  A    between atoms: C_9  and  O_7 
ROOT
ATOM      1  C   UNL d   1     -55.093-102.069 -41.713  0.00  0.00     0.158 C 
ATOM      2  C   UNL d   1     -54.715-102.791 -41.662  0.00  0.00     0.032 C 
ENDROOT
BRANCH   1   3
ATOM      3  C   UNL d   1     -55.004-101.604 -42.387  0.00  0.00     0.304 C 
ATOM      4  N   UNL d   1     -54.961-101.951 -43.127  0.00  0.00    -0.181 NA
ATOM      5  O   UNL d   1     -54.959-100.783 -42.314  0.00  0.00    -0.263 OA
BRANCH   4   6
ATOM      6  C   UNL d   1     -54.872-101.487 -43.801  0.00  0.00     0.197 A 
ATOM      7  N   UNL d   1     -54.849-101.765 -44.582  0.00  0.00    -0.219 NA
ATOM      8  C   UNL d   1     -54.754-101.117 -45.080  0.00  0.00     0.108 A 
ATOM      9  C   UNL d   1     -54.718-100.431 -44.608  0.00  0.00     0.059 A 
ATOM     10  S   UNL d   1     -54.791-100.663 -43.821  0.00  0.00    -0.046 SA
ENDBRANCH   4   6
ENDBRANCH   1   3
BRANCH   1  11
ATOM     11  O   UNL d   1     -55.563-101.808 -41.087  0.00  0.00    -0.302 OA
BRANCH  11  12
ATOM     12  C   UNL d   1     -55.501-102.163 -40.347  0.00  0.00     0.100 A 
ATOM     13  C   UNL d   1     -54.769-102.180 -39.953  0.00  0.00     0.025 A 
ATOM     14  C   UNL d   1     -54.713-102.538 -39.210  0.00  0.00     0.002 A 
ATOM     15  C   UNL d   1     -55.377-102.877 -38.856  0.00  0.00     0.000 A 
ATOM     16  C   UNL d   1     -56.104-102.863 -39.242  0.00  0.00     0.002 A 
ATOM     17  C   UNL d   1     -56.171-102.506 -39.989  0.00  0.00     0.025 A 
ENDBRANCH  11  12
ENDBRANCH   1  11
TORSDOF 4
ENDMDL
