MODEL 1
REMARK VINA RESULT:      -1.7      0.000      0.000
REMARK  3 active torsions:
REMARK  status: ('A' for Active; 'I' for Inactive)
REMARK    1  A    between atoms: C_7  and  N_1 
REMARK    2  A    between atoms: C_11  and  C_4 
REMARK    3  A    between atoms: C_9  and  C_7 
ROOT
ATOM      1  N   UNL d   1      31.882  17.959 -24.536  0.00  0.00    -0.252 N 
ATOM      2  C   UNL d   1      31.376  18.557 -24.874  0.00  0.00     0.354 A 
ATOM      3  C   UNL d   1      30.728  17.106 -24.446  0.00  0.00     0.035 A 
ATOM      4  C   UNL d   1      31.548  17.237 -24.325  0.00  0.00     0.070 A 
ATOM      5  N   UNL d   1      30.570  18.401 -24.982  0.00  0.00    -0.192 NA
ATOM      6  C   UNL d   1      30.236  17.679 -24.771  0.00  0.00     0.087 A 
ATOM      7  C   UNL d   1      30.428  16.373 -24.223  0.00  0.00     0.010 A 
ATOM      8  O   UNL d   1      31.675  19.291 -25.097  0.00  0.00    -0.244 OA
ATOM      9  C   UNL d   1      29.461  17.547 -24.882  0.00  0.00     0.020 A 
ATOM     10  C   UNL d   1      29.623  16.209 -24.327  0.00  0.00     0.035 A 
ATOM     11  C   UNL d   1      29.120  16.827 -24.673  0.00  0.00     0.008 A 
ATOM     12 BR   UNL d   1      29.314  15.453 -24.098  0.00  0.00    -0.049 Br
ENDROOT
BRANCH   4  13
ATOM     13  C   UNL d   1      31.984  16.664 -24.011  0.00  0.00     0.016 A 
ATOM     14  C   UNL d   1      32.049  16.601 -23.196  0.00  0.00     0.001 A 
ATOM     15  C   UNL d   1      32.507  16.001 -22.850  0.00  0.00     0.000 A 
ATOM     16  C   UNL d   1      32.909  15.453 -23.337  0.00  0.00     0.000 A 
ATOM     17  C   UNL d   1      32.848  15.510 -24.157  0.00  0.00     0.000 A 
ATOM     18  C   UNL d   1      32.406  16.089 -24.485  0.00  0.00     0.001 A 
ENDBRANCH   4  13
BRANCH   1  19
ATOM     19  C   UNL d   1      32.700  18.082 -24.413  0.00  0.00     0.155 C 
BRANCH  19  20
ATOM     20  C   UNL d   1      32.976  18.850 -24.282  0.00  0.00     0.230 C 
ATOM     21  O   UNL d   1      33.002  19.150 -23.492  0.00  0.00    -0.643 OA
ATOM     22  O   UNL d   1      33.217  19.298 -24.924  0.00  0.00    -0.643 OA
ENDBRANCH  19  20
ENDBRANCH   1  19
TORSDOF 3
ENDMDL
