MODEL 1
REMARK VINA RESULT:      -9.4      0.000      0.000
REMARK  0 active torsions:
REMARK  status: ('A' for Active; 'I' for Inactive)
ROOT
ATOM      1  N   UNL d   1      52.876  32.808  53.234  0.00  0.00    -0.270 NA
ATOM      2  C   UNL d   1      53.914  33.035  54.501  0.00  0.00    -0.001 A 
ATOM      3  C   UNL d   1      53.841  32.290  54.155  0.00  0.00    -0.004 A 
ATOM      4  C   UNL d   1      52.951  33.544  53.580  0.00  0.00     0.076 A 
ATOM      5  C   UNL d   1      53.322  32.176  53.521  0.00  0.00     0.103 A 
ATOM      6  C   UNL d   1      53.470  33.658  54.213  0.00  0.00     0.017 A 
ATOM      7  C   UNL d   1      54.433  33.149  55.134  0.00  0.00    -0.000 C 
ATOM      8  C   UNL d   1      52.504  34.177  53.293  0.00  0.00     0.019 A 
ATOM      9  C   UNL d   1      53.769  31.545  53.809  0.00  0.00     0.029 C 
ATOM     10  C   UNL d   1      52.803  32.062  52.887  0.00  0.00     0.029 C 
ATOM     11  C   UNL d   1      53.543  34.400  54.559  0.00  0.00     0.002 A 
ATOM     12  C   UNL d   1      52.578  34.917  53.638  0.00  0.00     0.002 A 
ATOM     13  C   UNL d   1      53.096  35.036  54.272  0.00  0.00     0.000 A 
ENDROOT
TORSDOF 0
ENDMDL
MODEL 2
REMARK VINA RESULT:      -9.2      0.495      2.208
REMARK  0 active torsions:
REMARK  status: ('A' for Active; 'I' for Inactive)
ROOT
ATOM      1  N   UNL d   1      52.625  33.735  53.448  0.00  0.00    -0.270 NA
ATOM      2  C   UNL d   1      53.834  33.407  54.527  0.00  0.00    -0.001 A 
ATOM      3  C   UNL d   1      53.513  34.166  54.484  0.00  0.00    -0.004 A 
ATOM      4  C   UNL d   1      52.945  32.985  53.494  0.00  0.00     0.076 A 
ATOM      5  C   UNL d   1      52.909  34.330  53.944  0.00  0.00     0.103 A 
ATOM      6  C   UNL d   1      53.550  32.821  54.033  0.00  0.00     0.017 A 
ATOM      7  C   UNL d   1      54.438  33.243  55.066  0.00  0.00    -0.000 C 
ATOM      8  C   UNL d   1      52.661  32.389  52.997  0.00  0.00     0.019 A 
ATOM      9  C   UNL d   1      53.193  34.925  54.440  0.00  0.00     0.029 C 
ATOM     10  C   UNL d   1      52.304  34.494  53.404  0.00  0.00     0.029 C 
ATOM     11  C   UNL d   1      53.870  32.066  54.078  0.00  0.00     0.002 A 
ATOM     12  C   UNL d   1      52.982  31.635  53.042  0.00  0.00     0.002 A 
ATOM     13  C   UNL d   1      53.587  31.466  53.580  0.00  0.00     0.000 A 
ENDROOT
TORSDOF 0
ENDMDL
MODEL 3
REMARK VINA RESULT:      -9.2      0.645      2.050
REMARK  0 active torsions:
REMARK  status: ('A' for Active; 'I' for Inactive)
ROOT
ATOM      1  N   UNL d   1      52.716  32.984  53.457  0.00  0.00    -0.270 NA
ATOM      2  C   UNL d   1      52.869  34.553  53.954  0.00  0.00    -0.001 A 
ATOM      3  C   UNL d   1      52.317  34.356  53.374  0.00  0.00    -0.004 A 
ATOM      4  C   UNL d   1      53.262  33.184  54.031  0.00  0.00     0.076 A 
ATOM      5  C   UNL d   1      52.240  33.571  53.125  0.00  0.00     0.103 A 
ATOM      6  C   UNL d   1      53.338  33.969  54.280  0.00  0.00     0.017 A 
ATOM      7  C   UNL d   1      52.945  35.338  54.203  0.00  0.00    -0.000 C 
ATOM      8  C   UNL d   1      53.738  32.597  54.364  0.00  0.00     0.019 A 
ATOM      9  C   UNL d   1      51.765  34.158  52.794  0.00  0.00     0.029 C 
ATOM     10  C   UNL d   1      52.164  32.786  52.876  0.00  0.00     0.029 C 
ATOM     11  C   UNL d   1      53.887  34.168  54.858  0.00  0.00     0.002 A 
ATOM     12  C   UNL d   1      54.287  32.796  54.941  0.00  0.00     0.002 A 
ATOM     13  C   UNL d   1      54.367  33.580  55.193  0.00  0.00     0.000 A 
ENDROOT
TORSDOF 0
ENDMDL
MODEL 4
REMARK VINA RESULT:      -9.0      0.775      1.782
REMARK  0 active torsions:
REMARK  status: ('A' for Active; 'I' for Inactive)
ROOT
ATOM      1  N   UNL d   1      53.725  31.818  53.951  0.00  0.00    -0.270 NA
ATOM      2  C   UNL d   1      52.687  32.967  53.371  0.00  0.00    -0.001 A 
ATOM      3  C   UNL d   1      52.650  32.194  53.085  0.00  0.00    -0.004 A 
ATOM      4  C   UNL d   1      53.759  32.585  54.232  0.00  0.00     0.076 A 
ATOM      5  C   UNL d   1      53.169  31.619  53.375  0.00  0.00     0.103 A 
ATOM      6  C   UNL d   1      53.239  33.159  53.942  0.00  0.00     0.017 A 
ATOM      7  C   UNL d   1      52.168  33.541  53.081  0.00  0.00    -0.000 C 
ATOM      8  C   UNL d   1      54.315  32.784  54.809  0.00  0.00     0.019 A 
ATOM      9  C   UNL d   1      52.613  31.421  52.798  0.00  0.00     0.029 C 
ATOM     10  C   UNL d   1      53.688  31.045  53.665  0.00  0.00     0.029 C 
ATOM     11  C   UNL d   1      53.275  33.929  54.226  0.00  0.00     0.002 A 
ATOM     12  C   UNL d   1      54.350  33.553  55.092  0.00  0.00     0.002 A 
ATOM     13  C   UNL d   1      53.833  34.131  54.805  0.00  0.00     0.000 A 
ENDROOT
TORSDOF 0
ENDMDL
