MODEL 1
REMARK VINA RESULT:      11.6      0.000      0.000
REMARK  3 active torsions:
REMARK  status: ('A' for Active; 'I' for Inactive)
REMARK    1  A    between atoms: C_6  and  C_1 
REMARK    2  A    between atoms: C_7  and  C_5 
REMARK    3  A    between atoms: O_11  and  C_6 
ROOT
ATOM      1  C   UNL d   1      14.585  12.805  -1.133  0.00  0.00     0.167 A 
ATOM      2  C   UNL d   1      14.707  13.232  -1.779  0.00  0.00     0.047 A 
ATOM      3  N   UNL d   1      13.748  11.996  -1.826  0.00  0.00    -0.148 NA
ATOM      4  N   UNL d   1      14.102  12.182  -1.156  0.00  0.00    -0.143 NA
ATOM      5  C   UNL d   1      13.872  12.428  -2.478  0.00  0.00     0.105 A 
ENDROOT
BRANCH   5   6
ATOM      6  C   UNL d   1      13.599  12.392  -3.256  0.00  0.00     0.019 A 
ATOM      7  C   UNL d   1      13.869  12.958  -3.803  0.00  0.00     0.002 A 
ATOM      8  C   UNL d   1      13.600  12.929  -4.585  0.00  0.00     0.011 A 
ATOM      9  C   UNL d   1      13.063  12.335  -4.816  0.00  0.00     0.058 A 
ATOM     10  C   UNL d   1      12.804  11.779  -4.261  0.00  0.00     0.011 A 
ATOM     11 CL   UNL d   1      12.791  12.308  -5.613  0.00  0.00    -0.082 Cl
ATOM     12  C   UNL d   1      13.071  11.810  -3.488  0.00  0.00     0.002 A 
ENDBRANCH   5   6
BRANCH   1  13
ATOM     13  C   UNL d   1      14.946  12.999  -0.457  0.00  0.00     0.316 C 
ATOM     14  O   UNL d   1      15.448  12.489  -0.115  0.00  0.00    -0.257 OA
BRANCH  13  15
ATOM     15  O   UNL d   1      14.793  13.732  -0.116  0.00  0.00    -0.294 OA
ATOM     16  C   UNL d   1      15.416  14.304  -0.056  0.00  0.00     0.185 C 
ENDBRANCH  13  15
ENDBRANCH   1  13
TORSDOF 3
ENDMDL
