MODEL 1
REMARK VINA RESULT:      -6.8      0.000      0.000
REMARK  6 active torsions:
REMARK  status: ('A' for Active; 'I' for Inactive)
REMARK    1  A    between atoms: S_3  and  N_1 
REMARK    2  A    between atoms: C_19  and  S_3 
REMARK    3  A    between atoms: S_4  and  N_8 
REMARK    4  A    between atoms: C_12  and  C_5 
REMARK    5  A    between atoms: C_9  and  C_6 
REMARK    6  A    between atoms: N_8  and  C_16 
ROOT
ATOM      1  N   UNL d   1     -40.017  14.901  18.208  0.00  0.00    -0.152 N 
ATOM      2  N   UNL d   1     -40.104  15.091  19.012  0.00  0.00    -0.155 NA
ATOM      3  C   UNL d   1     -39.230  14.655  18.092  0.00  0.00     0.096 A 
ATOM      4  C   UNL d   1     -39.379  14.964  19.388  0.00  0.00     0.104 A 
ATOM      5  C   UNL d   1     -38.845  14.695  18.817  0.00  0.00     0.041 A 
ENDROOT
BRANCH   4   6
ATOM      6  C   UNL d   1     -39.219  15.083  20.187  0.00  0.00     0.021 A 
ATOM      7  C   UNL d   1     -39.384  14.489  20.729  0.00  0.00     0.021 A 
ATOM      8  C   UNL d   1     -39.223  14.608  21.534  0.00  0.00     0.093 A 
ATOM      9  C   UNL d   1     -38.896  15.327  21.790  0.00  0.00     0.020 A 
ATOM     10  C   UNL d   1     -38.732  15.921  21.237  0.00  0.00     0.002 A 
ATOM     11  C   UNL d   1     -38.891  15.804  20.441  0.00  0.00     0.002 A 
BRANCH   8  12
ATOM     12  N   UNL d   1     -39.390  14.006  22.085  0.00  0.00    -0.162 NA
BRANCH  12  13
ATOM     13  S   UNL d   1     -38.791  13.703  22.556  0.00  0.00     0.266 S 
ATOM     14  O   UNL d   1     -38.191  13.185  22.808  0.00  0.00    -0.203 OA
ATOM     15  O   UNL d   1     -38.764  13.109  21.979  0.00  0.00    -0.203 OA
ATOM     16  C   UNL d   1     -38.808  14.286  23.134  0.00  0.00     0.165 C 
ENDBRANCH  12  13
ENDBRANCH   8  12
ENDBRANCH   4   6
BRANCH   1  17
ATOM     17  S   UNL d   1     -40.611  14.951  17.635  0.00  0.00     0.287 S 
ATOM     18  O   UNL d   1     -41.218  14.599  17.200  0.00  0.00    -0.198 OA
ATOM     19  O   UNL d   1     -40.476  14.237  18.031  0.00  0.00    -0.198 OA
BRANCH  17  20
ATOM     20  C   UNL d   1     -40.691  15.684  17.281  0.00  0.00     0.118 C 
ATOM     21  C   UNL d   1     -41.427  15.915  16.976  0.00  0.00     0.014 C 
ENDBRANCH  17  20
ENDBRANCH   1  17
BRANCH   3  22
ATOM     22  C   UNL d   1     -38.909  14.417  17.378  0.00  0.00     0.018 A 
ATOM     23  C   UNL d   1     -38.911  13.616  17.180  0.00  0.00     0.002 A 
ATOM     24  C   UNL d   1     -38.589  13.369  16.462  0.00  0.00     0.000 A 
ATOM     25  C   UNL d   1     -38.267  13.919  15.947  0.00  0.00     0.000 A 
ATOM     26  C   UNL d   1     -38.270  14.718  16.154  0.00  0.00     0.000 A 
ATOM     27  C   UNL d   1     -37.945  13.671  15.227  0.00  0.00     0.000 C 
ATOM     28  C   UNL d   1     -38.585  14.967  16.857  0.00  0.00     0.002 A 
ENDBRANCH   3  22
TORSDOF 6
ENDMDL
MODEL 2
REMARK VINA RESULT:      -6.5      8.656      9.785
REMARK  6 active torsions:
REMARK  status: ('A' for Active; 'I' for Inactive)
REMARK    1  A    between atoms: S_3  and  N_1 
REMARK    2  A    between atoms: C_19  and  S_3 
REMARK    3  A    between atoms: S_4  and  N_8 
REMARK    4  A    between atoms: C_12  and  C_5 
REMARK    5  A    between atoms: C_9  and  C_6 
REMARK    6  A    between atoms: N_8  and  C_16 
ROOT
ATOM      1  N   UNL d   1     -48.424  12.732  22.553  0.00  0.00    -0.152 N 
ATOM      2  N   UNL d   1     -47.704  12.326  22.470  0.00  0.00    -0.155 NA
ATOM      3  C   UNL d   1     -48.245  13.529  22.714  0.00  0.00     0.096 A 
ATOM      4  C   UNL d   1     -47.089  12.865  22.577  0.00  0.00     0.104 A 
ATOM      5  C   UNL d   1     -47.427  13.605  22.727  0.00  0.00     0.041 A 
ENDROOT
BRANCH   4   6
ATOM      6  C   UNL d   1     -46.283  12.697  22.541  0.00  0.00     0.021 A 
ATOM      7  C   UNL d   1     -45.952  12.171  23.079  0.00  0.00     0.021 A 
ATOM      8  C   UNL d   1     -45.141  12.001  23.043  0.00  0.00     0.093 A 
ATOM      9  C   UNL d   1     -44.665  12.361  22.466  0.00  0.00     0.020 A 
ATOM     10  C   UNL d   1     -45.007  12.890  21.928  0.00  0.00     0.002 A 
ATOM     11  C   UNL d   1     -45.809  13.060  21.962  0.00  0.00     0.002 A 
BRANCH   8  12
ATOM     12  N   UNL d   1     -44.805  11.467  23.587  0.00  0.00    -0.162 NA
BRANCH  12  13
ATOM     13  S   UNL d   1     -44.559  10.726  23.337  0.00  0.00     0.266 S 
ATOM     14  O   UNL d   1     -44.077  10.150  22.979  0.00  0.00    -0.203 OA
ATOM     15  O   UNL d   1     -43.910  11.145  23.035  0.00  0.00    -0.203 OA
ATOM     16  C   UNL d   1     -45.196  10.299  23.632  0.00  0.00     0.165 C 
ENDBRANCH  12  13
ENDBRANCH   8  12
ENDBRANCH   4   6
BRANCH   1  17
ATOM     17  S   UNL d   1     -49.177  12.396  22.487  0.00  0.00     0.287 S 
ATOM     18  O   UNL d   1     -49.845  12.219  22.036  0.00  0.00    -0.198 OA
ATOM     19  O   UNL d   1     -48.827  12.762  21.832  0.00  0.00    -0.198 OA
BRANCH  17  20
ATOM     20  C   UNL d   1     -49.465  12.052  23.171  0.00  0.00     0.118 C 
ATOM     21  C   UNL d   1     -49.981  11.405  23.120  0.00  0.00     0.014 C 
ENDBRANCH  17  20
ENDBRANCH   1  17
BRANCH   3  22
ATOM     22  C   UNL d   1     -48.795  14.123  22.835  0.00  0.00     0.018 A 
ATOM     23  C   UNL d   1     -49.067  14.560  22.190  0.00  0.00     0.002 A 
ATOM     24  C   UNL d   1     -49.621  15.160  22.305  0.00  0.00     0.000 A 
ATOM     25  C   UNL d   1     -49.901  15.321  23.058  0.00  0.00     0.000 A 
ATOM     26  C   UNL d   1     -49.623  14.878  23.696  0.00  0.00     0.000 A 
ATOM     27  C   UNL d   1     -50.456  15.922  23.172  0.00  0.00     0.000 C 
ATOM     28  C   UNL d   1     -49.079  14.287  23.591  0.00  0.00     0.002 A 
ENDBRANCH   3  22
TORSDOF 6
ENDMDL
MODEL 3
REMARK VINA RESULT:      -5.8      8.396      9.448
REMARK  6 active torsions:
REMARK  status: ('A' for Active; 'I' for Inactive)
REMARK    1  A    between atoms: S_3  and  N_1 
REMARK    2  A    between atoms: C_19  and  S_3 
REMARK    3  A    between atoms: S_4  and  N_8 
REMARK    4  A    between atoms: C_12  and  C_5 
REMARK    5  A    between atoms: C_9  and  C_6 
REMARK    6  A    between atoms: N_8  and  C_16 
ROOT
ATOM      1  N   UNL d   1     -47.676  13.734  22.688  0.00  0.00    -0.152 N 
ATOM      2  N   UNL d   1     -46.853  13.719  22.584  0.00  0.00    -0.155 NA
ATOM      3  C   UNL d   1     -47.936  12.946  22.751  0.00  0.00     0.096 A 
ATOM      4  C   UNL d   1     -46.607  12.931  22.582  0.00  0.00     0.104 A 
ATOM      5  C   UNL d   1     -47.277  12.458  22.685  0.00  0.00     0.041 A 
ENDROOT
BRANCH   4   6
ATOM      6  C   UNL d   1     -45.832  12.664  22.494  0.00  0.00     0.021 A 
ATOM      7  C   UNL d   1     -45.522  12.128  23.033  0.00  0.00     0.021 A 
ATOM      8  C   UNL d   1     -44.742  11.859  22.944  0.00  0.00     0.093 A 
ATOM      9  C   UNL d   1     -44.277  12.131  22.313  0.00  0.00     0.020 A 
ATOM     10  C   UNL d   1     -44.598  12.672  21.774  0.00  0.00     0.002 A 
ATOM     11  C   UNL d   1     -45.369  12.939  21.860  0.00  0.00     0.002 A 
BRANCH   8  12
ATOM     12  N   UNL d   1     -44.426  11.315  23.490  0.00  0.00    -0.162 NA
BRANCH  12  13
ATOM     13  S   UNL d   1     -44.079  10.621  23.224  0.00  0.00     0.266 S 
ATOM     14  O   UNL d   1     -43.510  10.123  22.875  0.00  0.00    -0.203 OA
ATOM     15  O   UNL d   1     -43.465  11.127  22.990  0.00  0.00    -0.203 OA
ATOM     16  C   UNL d   1     -44.680  10.109  23.452  0.00  0.00     0.165 C 
ENDBRANCH  12  13
ENDBRANCH   8  12
ENDBRANCH   4   6
BRANCH   1  17
ATOM     17  S   UNL d   1     -48.146  14.415  22.722  0.00  0.00     0.287 S 
ATOM     18  O   UNL d   1     -48.501  15.018  23.159  0.00  0.00    -0.198 OA
ATOM     19  O   UNL d   1     -47.823  14.098  23.416  0.00  0.00    -0.198 OA
BRANCH  17  20
ATOM     20  C   UNL d   1     -48.433  14.675  22.002  0.00  0.00     0.118 C 
ATOM     21  C   UNL d   1     -48.728  15.447  21.931  0.00  0.00     0.014 C 
ENDBRANCH  17  20
ENDBRANCH   1  17
BRANCH   3  22
ATOM     22  C   UNL d   1     -48.713  12.710  22.858  0.00  0.00     0.018 A 
ATOM     23  C   UNL d   1     -49.151  12.453  22.208  0.00  0.00     0.002 A 
ATOM     24  C   UNL d   1     -49.934  12.213  22.310  0.00  0.00     0.000 A 
ATOM     25  C   UNL d   1     -50.275  12.231  23.054  0.00  0.00     0.000 A 
ATOM     26  C   UNL d   1     -49.828  12.490  23.698  0.00  0.00     0.000 A 
ATOM     27  C   UNL d   1     -51.059  11.991  23.155  0.00  0.00     0.000 C 
ATOM     28  C   UNL d   1     -49.058  12.726  23.606  0.00  0.00     0.002 A 
ENDBRANCH   3  22
TORSDOF 6
ENDMDL
MODEL 4
REMARK VINA RESULT:      -5.0      1.111      2.079
REMARK  6 active torsions:
REMARK  status: ('A' for Active; 'I' for Inactive)
REMARK    1  A    between atoms: S_3  and  N_1 
REMARK    2  A    between atoms: C_19  and  S_3 
REMARK    3  A    between atoms: S_4  and  N_8 
REMARK    4  A    between atoms: C_12  and  C_5 
REMARK    5  A    between atoms: C_9  and  C_6 
REMARK    6  A    between atoms: N_8  and  C_16 
ROOT
ATOM      1  N   UNL d   1     -39.115  14.106  18.555  0.00  0.00    -0.152 N 
ATOM      2  N   UNL d   1     -38.684  14.038  19.262  0.00  0.00    -0.155 NA
ATOM      3  C   UNL d   1     -39.583  14.792  18.612  0.00  0.00     0.096 A 
ATOM      4  C   UNL d   1     -38.884  14.674  19.749  0.00  0.00     0.104 A 
ATOM      5  C   UNL d   1     -39.437  15.136  19.344  0.00  0.00     0.041 A 
ENDROOT
BRANCH   4   6
ATOM      6  C   UNL d   1     -38.584  14.821  20.502  0.00  0.00     0.021 A 
ATOM      7  C   UNL d   1     -38.465  14.197  21.023  0.00  0.00     0.021 A 
ATOM      8  C   UNL d   1     -38.163  14.344  21.781  0.00  0.00     0.093 A 
ATOM      9  C   UNL d   1     -37.983  15.121  22.014  0.00  0.00     0.020 A 
ATOM     10  C   UNL d   1     -38.107  15.745  21.483  0.00  0.00     0.002 A 
ATOM     11  C   UNL d   1     -38.405  15.600  20.732  0.00  0.00     0.002 A 
BRANCH   8  12
ATOM     12  N   UNL d   1     -38.042  13.712  22.310  0.00  0.00    -0.162 NA
BRANCH  12  13
ATOM     13  S   UNL d   1     -38.467  13.676  23.011  0.00  0.00     0.266 S 
ATOM     14  O   UNL d   1     -39.030  13.408  23.562  0.00  0.00    -0.203 OA
ATOM     15  O   UNL d   1     -38.857  13.049  22.634  0.00  0.00    -0.203 OA
ATOM     16  C   UNL d   1     -38.088  14.295  23.395  0.00  0.00     0.165 C 
ENDBRANCH  12  13
ENDBRANCH   8  12
ENDBRANCH   4   6
BRANCH   1  17
ATOM     17  S   UNL d   1     -39.080  13.582  17.916  0.00  0.00     0.287 S 
ATOM     18  O   UNL d   1     -39.392  12.946  17.494  0.00  0.00    -0.198 OA
ATOM     19  O   UNL d   1     -39.697  13.526  18.464  0.00  0.00    -0.198 OA
BRANCH  17  20
ATOM     20  C   UNL d   1     -38.445  13.692  17.412  0.00  0.00     0.118 C 
ATOM     21  C   UNL d   1     -38.218  13.083  16.896  0.00  0.00     0.014 C 
ENDBRANCH  17  20
ENDBRANCH   1  17
BRANCH   3  22
ATOM     22  C   UNL d   1     -40.094  15.067  18.034  0.00  0.00     0.018 A 
ATOM     23  C   UNL d   1     -39.832  15.641  17.503  0.00  0.00     0.002 A 
ATOM     24  C   UNL d   1     -40.342  15.922  16.918  0.00  0.00     0.000 A 
ATOM     25  C   UNL d   1     -41.106  15.631  16.866  0.00  0.00     0.000 A 
ATOM     26  C   UNL d   1     -41.358  15.057  17.402  0.00  0.00     0.000 A 
ATOM     27  C   UNL d   1     -41.616  15.913  16.280  0.00  0.00     0.000 C 
ATOM     28  C   UNL d   1     -40.863  14.776  17.979  0.00  0.00     0.002 A 
ENDBRANCH   3  22
TORSDOF 6
ENDMDL
