MODEL 1
REMARK VINA RESULT:      25.0      0.000      0.000
REMARK  1 active torsions:
REMARK  status: ('A' for Active; 'I' for Inactive)
REMARK    1  A    between atoms: C_8  and  C_2 
ROOT
ATOM      1  N   UNL d   1      57.827  49.660  51.649  0.00  0.00    -0.191 NA
ATOM      2  C   UNL d   1      58.093  49.645  50.886  0.00  0.00     0.087 A 
ATOM      3  C   UNL d   1      57.003  49.678  51.795  0.00  0.00     0.369 A 
ATOM      4  N   UNL d   1      56.460  49.680  51.174  0.00  0.00    -0.191 NA
ATOM      5  C   UNL d   1      57.580  49.645  50.249  0.00  0.00     0.036 A 
ATOM      6  C   UNL d   1      56.756  49.663  50.395  0.00  0.00     0.088 A 
ATOM      7  O   UNL d   1      56.707  49.695  52.570  0.00  0.00    -0.242 OA
ATOM      8  C   UNL d   1      57.845  49.630  49.486  0.00  0.00     0.003 A 
ATOM      9  C   UNL d   1      56.213  49.665  49.774  0.00  0.00     0.019 A 
ATOM     10  C   UNL d   1      57.334  49.631  48.859  0.00  0.00     0.000 A 
ATOM     11  C   UNL d   1      56.510  49.648  49.004  0.00  0.00     0.002 A 
ENDROOT
BRANCH   2  12
ATOM     12  C   UNL d   1      58.918  49.627  50.740  0.00  0.00     0.018 A 
ATOM     13  C   UNL d   1      59.185  49.684  49.979  0.00  0.00     0.002 A 
ATOM     14  C   UNL d   1      60.020  49.666  49.832  0.00  0.00     0.000 A 
ATOM     15  C   UNL d   1      60.528  49.593  50.456  0.00  0.00     0.000 A 
ATOM     16  C   UNL d   1      60.263  49.535  51.227  0.00  0.00     0.000 A 
ATOM     17  C   UNL d   1      59.428  49.553  51.374  0.00  0.00     0.002 A 
ENDBRANCH   2  12
TORSDOF 1
ENDMDL
