MODEL 1
REMARK VINA RESULT:      -8.3      0.000      0.000
REMARK  6 active torsions:
REMARK  status: ('A' for Active; 'I' for Inactive)
REMARK       I    between atoms: C_2  and  N_1 
REMARK    1  A    between atoms: C_8  and  C_2 
REMARK    2  A    between atoms: C_11  and  C_3 
REMARK       I    between atoms: C_4  and  N_6 
REMARK    3  A    between atoms: C_5  and  C_4 
REMARK       I    between atoms: N_7  and  C_5 
REMARK    4  A    between atoms: N_6  and  C_11 
REMARK    5  A    between atoms: C_17  and  N_7 
REMARK    6  A    between atoms: C_20  and  C_17 
ROOT
ATOM      1  C   UNL d   1      53.273  33.780  54.280  0.00  0.00     0.146 C 
ENDROOT
BRANCH   1   2
ATOM      2  N   UNL d   1      53.718  33.696  54.968  0.00  0.00    -0.199 NA
ATOM      3  C   UNL d   1      54.286  33.105  55.017  0.00  0.00     0.337 C 
ATOM      4  O   UNL d   1      54.732  33.021  55.706  0.00  0.00    -0.260 OA
BRANCH   3   5
ATOM      5  C   UNL d   1      54.417  32.592  54.381  0.00  0.00     0.337 C 
ATOM      6  N   UNL d   1      54.049  31.866  54.356  0.00  0.00    -0.202 NA
ATOM      7  O   UNL d   1      54.922  32.820  53.771  0.00  0.00    -0.260 OA
BRANCH   6   8
ATOM      8  C   UNL d   1      54.180  31.353  53.720  0.00  0.00     0.102 C 
BRANCH   8   9
ATOM      9  C   UNL d   1      53.699  30.698  53.606  0.00  0.00     0.019 A 
ATOM     10  C   UNL d   1      53.670  30.092  54.154  0.00  0.00     0.002 A 
ATOM     11  C   UNL d   1      53.196  29.438  54.051  0.00  0.00     0.011 A 
ATOM     12  C   UNL d   1      52.724  29.383  53.362  0.00  0.00     0.058 A 
ATOM     13  C   UNL d   1      52.743  29.984  52.801  0.00  0.00     0.011 A 
ATOM     14 CL   UNL d   1      52.237  28.716  53.248  0.00  0.00    -0.082 Cl
ATOM     15  C   UNL d   1      53.227  30.643  52.917  0.00  0.00     0.002 A 
ENDBRANCH   8   9
ENDBRANCH   6   8
ENDBRANCH   3   5
ENDBRANCH   1   2
BRANCH   1  16
ATOM     16  C   UNL d   1      52.917  34.501  54.105  0.00  0.00     0.190 A 
ATOM     17  N   UNL d   1      52.231  34.601  53.660  0.00  0.00    -0.250 N 
ATOM     18  C   UNL d   1      51.779  34.001  53.311  0.00  0.00     0.266 C 
ATOM     19  C   UNL d   1      52.078  35.410  53.627  0.00  0.00     0.112 A 
ATOM     20  O   UNL d   1      52.000  33.214  53.392  0.00  0.00    -0.267 OA
ATOM     21  C   UNL d   1      52.666  35.815  54.049  0.00  0.00     0.144 A 
ATOM     22  O   UNL d   1      53.186  35.252  54.346  0.00  0.00    -0.285 OA
BRANCH  18  23
ATOM     23  C   UNL d   1      51.091  34.197  52.873  0.00  0.00     0.057 A 
ATOM     24  C   UNL d   1      50.392  34.369  53.261  0.00  0.00     0.006 A 
ATOM     25  C   UNL d   1      49.715  34.561  52.829  0.00  0.00     0.012 A 
ATOM     26  C   UNL d   1      49.745  34.581  52.007  0.00  0.00     0.058 A 
ATOM     27  C   UNL d   1      50.453  34.407  51.615  0.00  0.00     0.012 A 
ATOM     28 CL   UNL d   1      49.059  34.776  51.571  0.00  0.00    -0.082 Cl
ATOM     29  C   UNL d   1      51.117  34.217  52.048  0.00  0.00     0.006 A 
ENDBRANCH  18  23
ENDBRANCH   1  16
TORSDOF 6
ENDMDL
MODEL 2
REMARK VINA RESULT:      -8.1      1.129      5.104
REMARK  6 active torsions:
REMARK  status: ('A' for Active; 'I' for Inactive)
REMARK       I    between atoms: C_2  and  N_1 
REMARK    1  A    between atoms: C_8  and  C_2 
REMARK    2  A    between atoms: C_11  and  C_3 
REMARK       I    between atoms: C_4  and  N_6 
REMARK    3  A    between atoms: C_5  and  C_4 
REMARK       I    between atoms: N_7  and  C_5 
REMARK    4  A    between atoms: N_6  and  C_11 
REMARK    5  A    between atoms: C_17  and  N_7 
REMARK    6  A    between atoms: C_20  and  C_17 
ROOT
ATOM      1  C   UNL d   1      52.725  33.451  53.268  0.00  0.00     0.146 C 
ENDROOT
BRANCH   1   2
ATOM      2  N   UNL d   1      52.618  34.192  53.612  0.00  0.00    -0.199 NA
ATOM      3  C   UNL d   1      52.056  34.706  53.306  0.00  0.00     0.337 C 
ATOM      4  O   UNL d   1      51.948  35.448  53.650  0.00  0.00    -0.260 OA
BRANCH   3   5
ATOM      5  C   UNL d   1      51.595  34.488  52.655  0.00  0.00     0.337 C 
ATOM      6  N   UNL d   1      50.783  34.496  52.704  0.00  0.00    -0.202 NA
ATOM      7  O   UNL d   1      51.963  34.262  51.953  0.00  0.00    -0.260 OA
BRANCH   6   8
ATOM      8  C   UNL d   1      50.321  34.277  52.053  0.00  0.00     0.102 C 
BRANCH   8   9
ATOM      9  C   UNL d   1      49.568  34.587  51.951  0.00  0.00     0.019 A 
ATOM     10  C   UNL d   1      49.165  34.936  52.571  0.00  0.00     0.002 A 
ATOM     11  C   UNL d   1      48.418  35.247  52.480  0.00  0.00     0.011 A 
ATOM     12  C   UNL d   1      48.050  35.208  51.729  0.00  0.00     0.058 A 
ATOM     13  C   UNL d   1      48.443  34.860  51.096  0.00  0.00     0.011 A 
ATOM     14 CL   UNL d   1      47.285  35.524  51.629  0.00  0.00    -0.082 Cl
ATOM     15  C   UNL d   1      49.201  34.549  51.200  0.00  0.00     0.002 A 
ENDBRANCH   8   9
ENDBRANCH   6   8
ENDBRANCH   3   5
ENDBRANCH   1   2
BRANCH   1  16
ATOM     16  C   UNL d   1      53.425  33.037  53.392  0.00  0.00     0.190 A 
ATOM     17  N   UNL d   1      53.484  32.228  53.537  0.00  0.00    -0.250 N 
ATOM     18  C   UNL d   1      52.856  31.690  53.585  0.00  0.00     0.266 C 
ATOM     19  C   UNL d   1      54.284  32.054  53.627  0.00  0.00     0.112 A 
ATOM     20  O   UNL d   1      52.081  31.945  53.483  0.00  0.00    -0.267 OA
ATOM     21  C   UNL d   1      54.725  32.751  53.538  0.00  0.00     0.144 A 
ATOM     22  O   UNL d   1      54.193  33.360  53.393  0.00  0.00    -0.285 OA
BRANCH  18  23
ATOM     23  C   UNL d   1      53.010  30.880  53.738  0.00  0.00     0.057 A 
ATOM     24  C   UNL d   1      53.166  30.628  54.501  0.00  0.00     0.006 A 
ATOM     25  C   UNL d   1      53.318  29.830  54.650  0.00  0.00     0.012 A 
ATOM     26  C   UNL d   1      53.312  29.289  54.031  0.00  0.00     0.058 A 
ATOM     27  C   UNL d   1      53.155  29.544  53.259  0.00  0.00     0.012 A 
ATOM     28 CL   UNL d   1      53.466  28.482  54.184  0.00  0.00    -0.082 Cl
ATOM     29  C   UNL d   1      53.006  30.334  53.119  0.00  0.00     0.006 A 
ENDBRANCH  18  23
ENDBRANCH   1  16
TORSDOF 6
ENDMDL
MODEL 3
REMARK VINA RESULT:      -7.0      2.662      6.139
REMARK  6 active torsions:
REMARK  status: ('A' for Active; 'I' for Inactive)
REMARK       I    between atoms: C_2  and  N_1 
REMARK    1  A    between atoms: C_8  and  C_2 
REMARK    2  A    between atoms: C_11  and  C_3 
REMARK       I    between atoms: C_4  and  N_6 
REMARK    3  A    between atoms: C_5  and  C_4 
REMARK       I    between atoms: N_7  and  C_5 
REMARK    4  A    between atoms: N_6  and  C_11 
REMARK    5  A    between atoms: C_17  and  N_7 
REMARK    6  A    between atoms: C_20  and  C_17 
ROOT
ATOM      1  C   UNL d   1      50.588  34.137  52.913  0.00  0.00     0.146 C 
ENDROOT
BRANCH   1   2
ATOM      2  N   UNL d   1      50.153  34.148  52.213  0.00  0.00    -0.199 NA
ATOM      3  C   UNL d   1      49.536  34.681  52.124  0.00  0.00     0.337 C 
ATOM      4  O   UNL d   1      49.100  34.691  51.423  0.00  0.00    -0.260 OA
BRANCH   3   5
ATOM      5  C   UNL d   1      49.344  35.209  52.731  0.00  0.00     0.337 C 
ATOM      6  N   UNL d   1      48.566  35.347  52.926  0.00  0.00    -0.202 NA
ATOM      7  O   UNL d   1      49.947  35.596  53.139  0.00  0.00    -0.260 OA
BRANCH   6   8
ATOM      8  C   UNL d   1      48.374  35.876  53.533  0.00  0.00     0.102 C 
BRANCH   8   9
ATOM      9  C   UNL d   1      47.593  36.083  53.676  0.00  0.00     0.019 A 
ATOM     10  C   UNL d   1      47.124  36.402  53.088  0.00  0.00     0.002 A 
ATOM     11  C   UNL d   1      46.348  36.611  53.219  0.00  0.00     0.011 A 
ATOM     12  C   UNL d   1      46.020  36.497  53.980  0.00  0.00     0.058 A 
ATOM     13  C   UNL d   1      46.479  36.178  54.583  0.00  0.00     0.011 A 
ATOM     14 CL   UNL d   1      45.226  36.709  54.123  0.00  0.00    -0.082 Cl
ATOM     15  C   UNL d   1      47.265  35.969  54.438  0.00  0.00     0.002 A 
ENDBRANCH   8   9
ENDBRANCH   6   8
ENDBRANCH   3   5
ENDBRANCH   1   2
BRANCH   1  16
ATOM     16  C   UNL d   1      50.962  33.446  53.155  0.00  0.00     0.190 A 
ATOM     17  N   UNL d   1      51.718  33.399  53.479  0.00  0.00    -0.250 N 
ATOM     18  C   UNL d   1      52.234  34.032  53.619  0.00  0.00     0.266 C 
ATOM     19  C   UNL d   1      51.866  32.604  53.638  0.00  0.00     0.112 A 
ATOM     20  O   UNL d   1      52.010  34.800  53.431  0.00  0.00    -0.267 OA
ATOM     21  C   UNL d   1      51.206  32.155  53.415  0.00  0.00     0.144 A 
ATOM     22  O   UNL d   1      50.646  32.676  53.115  0.00  0.00    -0.285 OA
BRANCH  18  23
ATOM     23  C   UNL d   1      52.989  33.890  53.955  0.00  0.00     0.057 A 
ATOM     24  C   UNL d   1      53.588  33.570  53.498  0.00  0.00     0.006 A 
ATOM     25  C   UNL d   1      54.332  33.430  53.830  0.00  0.00     0.012 A 
ATOM     26  C   UNL d   1      54.469  33.613  54.619  0.00  0.00     0.058 A 
ATOM     27  C   UNL d   1      53.863  33.937  55.081  0.00  0.00     0.012 A 
ATOM     28 CL   UNL d   1      55.222  33.471  54.953  0.00  0.00    -0.082 Cl
ATOM     29  C   UNL d   1      53.131  34.072  54.747  0.00  0.00     0.006 A 
ENDBRANCH  18  23
ENDBRANCH   1  16
TORSDOF 6
ENDMDL
MODEL 4
REMARK VINA RESULT:      -6.5      2.592      4.128
REMARK  6 active torsions:
REMARK  status: ('A' for Active; 'I' for Inactive)
REMARK       I    between atoms: C_2  and  N_1 
REMARK    1  A    between atoms: C_8  and  C_2 
REMARK    2  A    between atoms: C_11  and  C_3 
REMARK       I    between atoms: C_4  and  N_6 
REMARK    3  A    between atoms: C_5  and  C_4 
REMARK       I    between atoms: N_7  and  C_5 
REMARK    4  A    between atoms: N_6  and  C_11 
REMARK    5  A    between atoms: C_17  and  N_7 
REMARK    6  A    between atoms: C_20  and  C_17 
ROOT
ATOM      1  C   UNL d   1      50.201  34.468  52.142  0.00  0.00     0.146 C 
ENDROOT
BRANCH   1   2
ATOM      2  N   UNL d   1      50.857  34.522  51.647  0.00  0.00    -0.199 NA
ATOM      3  C   UNL d   1      51.571  34.190  51.878  0.00  0.00     0.337 C 
ATOM      4  O   UNL d   1      52.228  34.243  51.382  0.00  0.00    -0.260 OA
BRANCH   3   5
ATOM      5  C   UNL d   1      51.640  33.801  52.606  0.00  0.00     0.337 C 
ATOM      6  N   UNL d   1      52.207  34.030  53.142  0.00  0.00    -0.202 NA
ATOM      7  O   UNL d   1      51.129  33.180  52.784  0.00  0.00    -0.260 OA
BRANCH   6   8
ATOM      8  C   UNL d   1      52.275  33.642  53.870  0.00  0.00     0.102 C 
BRANCH   8   9
ATOM      9  C   UNL d   1      52.987  33.642  54.279  0.00  0.00     0.019 A 
ATOM     10  C   UNL d   1      53.259  34.314  54.656  0.00  0.00     0.002 A 
ATOM     11  C   UNL d   1      53.964  34.325  55.065  0.00  0.00     0.011 A 
ATOM     12  C   UNL d   1      54.424  33.627  55.099  0.00  0.00     0.058 A 
ATOM     13  C   UNL d   1      54.164  32.943  54.724  0.00  0.00     0.011 A 
ATOM     14 CL   UNL d   1      55.147  33.631  55.516  0.00  0.00    -0.082 Cl
ATOM     15  C   UNL d   1      53.447  32.944  54.313  0.00  0.00     0.002 A 
ENDBRANCH   8   9
ENDBRANCH   6   8
ENDBRANCH   3   5
ENDBRANCH   1   2
BRANCH   1  16
ATOM     16  C   UNL d   1      49.443  34.544  51.832  0.00  0.00     0.190 A 
ATOM     17  N   UNL d   1      48.809  34.919  52.201  0.00  0.00    -0.250 N 
ATOM     18  C   UNL d   1      48.818  35.284  52.944  0.00  0.00     0.266 C 
ATOM     19  C   UNL d   1      48.163  34.862  51.693  0.00  0.00     0.112 A 
ATOM     20  O   UNL d   1      49.508  35.298  53.392  0.00  0.00    -0.267 OA
ATOM     21  C   UNL d   1      48.390  34.454  51.008  0.00  0.00     0.144 A 
ATOM     22  O   UNL d   1      49.184  34.256  51.094  0.00  0.00    -0.285 OA
BRANCH  18  23
ATOM     23  C   UNL d   1      48.122  35.643  53.243  0.00  0.00     0.057 A 
ATOM     24  C   UNL d   1      47.864  36.357  52.937  0.00  0.00     0.006 A 
ATOM     25  C   UNL d   1      47.178  36.709  53.232  0.00  0.00     0.012 A 
ATOM     26  C   UNL d   1      46.754  36.342  53.833  0.00  0.00     0.058 A 
ATOM     27  C   UNL d   1      47.015  35.620  54.142  0.00  0.00     0.012 A 
ATOM     28 CL   UNL d   1      46.060  36.700  54.130  0.00  0.00    -0.082 Cl
ATOM     29  C   UNL d   1      47.694  35.277  53.847  0.00  0.00     0.006 A 
ENDBRANCH  18  23
ENDBRANCH   1  16
TORSDOF 6
ENDMDL
MODEL 5
REMARK VINA RESULT:      -6.5      2.017      3.238
REMARK  6 active torsions:
REMARK  status: ('A' for Active; 'I' for Inactive)
REMARK       I    between atoms: C_2  and  N_1 
REMARK    1  A    between atoms: C_8  and  C_2 
REMARK    2  A    between atoms: C_11  and  C_3 
REMARK       I    between atoms: C_4  and  N_6 
REMARK    3  A    between atoms: C_5  and  C_4 
REMARK       I    between atoms: N_7  and  C_5 
REMARK    4  A    between atoms: N_6  and  C_11 
REMARK    5  A    between atoms: C_17  and  N_7 
REMARK    6  A    between atoms: C_20  and  C_17 
ROOT
ATOM      1  C   UNL d   1      50.602  34.472  52.576  0.00  0.00     0.146 C 
ENDROOT
BRANCH   1   2
ATOM      2  N   UNL d   1      51.316  34.777  52.302  0.00  0.00    -0.199 NA
ATOM      3  C   UNL d   1      52.023  34.515  52.627  0.00  0.00     0.337 C 
ATOM      4  O   UNL d   1      52.739  34.821  52.353  0.00  0.00    -0.260 OA
BRANCH   3   5
ATOM      5  C   UNL d   1      52.026  33.946  53.228  0.00  0.00     0.337 C 
ATOM      6  N   UNL d   1      52.273  33.186  53.074  0.00  0.00    -0.202 NA
ATOM      7  O   UNL d   1      51.775  34.153  53.985  0.00  0.00    -0.260 OA
BRANCH   6   8
ATOM      8  C   UNL d   1      52.276  32.617  53.674  0.00  0.00     0.102 C 
BRANCH   8   9
ATOM      9  C   UNL d   1      52.649  31.895  53.564  0.00  0.00     0.019 A 
ATOM     10  C   UNL d   1      52.308  31.305  53.112  0.00  0.00     0.002 A 
ATOM     11  C   UNL d   1      52.670  30.584  52.997  0.00  0.00     0.011 A 
ATOM     12  C   UNL d   1      53.414  30.442  53.352  0.00  0.00     0.058 A 
ATOM     13  C   UNL d   1      53.771  31.026  53.810  0.00  0.00     0.011 A 
ATOM     14 CL   UNL d   1      53.791  29.707  53.239  0.00  0.00    -0.082 Cl
ATOM     15  C   UNL d   1      53.394  31.752  53.920  0.00  0.00     0.002 A 
ENDBRANCH   8   9
ENDBRANCH   6   8
ENDBRANCH   3   5
ENDBRANCH   1   2
BRANCH   1  16
ATOM     16  C   UNL d   1      49.942  34.464  52.084  0.00  0.00     0.190 A 
ATOM     17  N   UNL d   1      49.228  34.847  52.233  0.00  0.00    -0.250 N 
ATOM     18  C   UNL d   1      49.046  35.307  52.898  0.00  0.00     0.266 C 
ATOM     19  C   UNL d   1      48.729  34.689  51.597  0.00  0.00     0.112 A 
ATOM     20  O   UNL d   1      49.603  35.417  53.492  0.00  0.00    -0.267 OA
ATOM     21  C   UNL d   1      49.128  34.208  51.052  0.00  0.00     0.144 A 
ATOM     22  O   UNL d   1      49.879  34.069  51.353  0.00  0.00    -0.285 OA
BRANCH  18  23
ATOM     23  C   UNL d   1      48.290  35.662  52.967  0.00  0.00     0.057 A 
ATOM     24  C   UNL d   1      48.059  36.243  52.439  0.00  0.00     0.006 A 
ATOM     25  C   UNL d   1      47.314  36.592  52.507  0.00  0.00     0.012 A 
ATOM     26  C   UNL d   1      46.803  36.355  53.106  0.00  0.00     0.058 A 
ATOM     27  C   UNL d   1      47.037  35.767  53.640  0.00  0.00     0.012 A 
ATOM     28 CL   UNL d   1      46.050  36.709  53.174  0.00  0.00    -0.082 Cl
ATOM     29  C   UNL d   1      47.774  35.426  53.567  0.00  0.00     0.006 A 
ENDBRANCH  18  23
ENDBRANCH   1  16
TORSDOF 6
ENDMDL
MODEL 6
REMARK VINA RESULT:      -5.6      2.164      3.065
REMARK  6 active torsions:
REMARK  status: ('A' for Active; 'I' for Inactive)
REMARK       I    between atoms: C_2  and  N_1 
REMARK    1  A    between atoms: C_8  and  C_2 
REMARK    2  A    between atoms: C_11  and  C_3 
REMARK       I    between atoms: C_4  and  N_6 
REMARK    3  A    between atoms: C_5  and  C_4 
REMARK       I    between atoms: N_7  and  C_5 
REMARK    4  A    between atoms: N_6  and  C_11 
REMARK    5  A    between atoms: C_17  and  N_7 
REMARK    6  A    between atoms: C_20  and  C_17 
ROOT
ATOM      1  C   UNL d   1      51.922  32.684  52.776  0.00  0.00     0.146 C 
ENDROOT
BRANCH   1   2
ATOM      2  N   UNL d   1      52.164  32.030  52.338  0.00  0.00    -0.199 NA
ATOM      3  C   UNL d   1      52.637  31.457  52.688  0.00  0.00     0.337 C 
ATOM      4  O   UNL d   1      52.880  30.802  52.249  0.00  0.00    -0.260 OA
BRANCH   3   5
ATOM      5  C   UNL d   1      52.873  31.530  53.478  0.00  0.00     0.337 C 
ATOM      6  N   UNL d   1      53.548  31.943  53.669  0.00  0.00    -0.202 NA
ATOM      7  O   UNL d   1      52.420  31.181  54.071  0.00  0.00    -0.260 OA
BRANCH   6   8
ATOM      8  C   UNL d   1      53.784  32.015  54.458  0.00  0.00     0.102 C 
BRANCH   8   9
ATOM      9  C   UNL d   1      54.284  32.624  54.691  0.00  0.00     0.019 A 
ATOM     10  C   UNL d   1      54.887  32.888  54.206  0.00  0.00     0.002 A 
ATOM     11  C   UNL d   1      55.388  33.490  54.427  0.00  0.00     0.011 A 
ATOM     12  C   UNL d   1      55.283  33.852  55.175  0.00  0.00     0.058 A 
ATOM     13  C   UNL d   1      54.681  33.597  55.675  0.00  0.00     0.011 A 
ATOM     14 CL   UNL d   1      55.791  34.469  55.409  0.00  0.00    -0.082 Cl
ATOM     15  C   UNL d   1      54.179  32.985  55.439  0.00  0.00     0.002 A 
ENDBRANCH   8   9
ENDBRANCH   6   8
ENDBRANCH   3   5
ENDBRANCH   1   2
BRANCH   1  16
ATOM     16  C   UNL d   1      51.855  33.420  52.415  0.00  0.00     0.190 A 
ATOM     17  N   UNL d   1      51.206  33.925  52.472  0.00  0.00    -0.250 N 
ATOM     18  C   UNL d   1      50.510  33.785  52.899  0.00  0.00     0.266 C 
ATOM     19  C   UNL d   1      51.379  34.595  52.024  0.00  0.00     0.112 A 
ATOM     20  O   UNL d   1      50.415  33.087  53.322  0.00  0.00    -0.267 OA
ATOM     21  C   UNL d   1      52.132  34.511  51.688  0.00  0.00     0.144 A 
ATOM     22  O   UNL d   1      52.428  33.783  51.930  0.00  0.00    -0.285 OA
BRANCH  18  23
ATOM     23  C   UNL d   1      49.898  34.359  52.900  0.00  0.00     0.057 A 
ATOM     24  C   UNL d   1      49.366  34.392  52.279  0.00  0.00     0.006 A 
ATOM     25  C   UNL d   1      48.764  34.958  52.282  0.00  0.00     0.012 A 
ATOM     26  C   UNL d   1      48.700  35.486  52.908  0.00  0.00     0.058 A 
ATOM     27  C   UNL d   1      49.239  35.451  53.536  0.00  0.00     0.012 A 
ATOM     28 CL   UNL d   1      48.090  36.058  52.909  0.00  0.00    -0.082 Cl
ATOM     29  C   UNL d   1      49.831  34.891  53.527  0.00  0.00     0.006 A 
ENDBRANCH  18  23
ENDBRANCH   1  16
TORSDOF 6
ENDMDL
