MODEL 1
REMARK VINA RESULT:      97.6      0.000      0.000
REMARK  3 active torsions:
REMARK  status: ('A' for Active; 'I' for Inactive)
REMARK    1  A    between atoms: C_8  and  C_1 
REMARK       I    between atoms: C_5  and  N_7 
REMARK    2  A    between atoms: C_10  and  C_5 
REMARK    3  A    between atoms: N_7  and  C_15 
ROOT
ATOM      1  C   UNL d   1      61.473  46.292  50.308  0.00  0.00     0.024 A 
ATOM      2  C   UNL d   1      61.221  45.684  50.791  0.00  0.00     0.004 A 
ATOM      3  C   UNL d   1      61.970  46.141  49.669  0.00  0.00     0.004 A 
ATOM      4  C   UNL d   1      61.963  44.752  49.997  0.00  0.00     0.085 A 
ATOM      5  C   UNL d   1      62.217  45.370  49.510  0.00  0.00     0.019 A 
ATOM      6  C   UNL d   1      61.464  44.910  50.638  0.00  0.00     0.019 A 
ENDROOT
BRANCH   1   7
ATOM      7  C   UNL d   1      61.227  47.068  50.465  0.00  0.00     0.112 A 
ATOM      8  S   UNL d   1      60.959  47.354  51.205  0.00  0.00    -0.047 SA
ATOM      9  C   UNL d   1      60.770  48.159  51.111  0.00  0.00     0.130 A 
ATOM     10  N   UNL d   1      60.482  48.724  51.640  0.00  0.00    -0.236 NA
ATOM     11  C   UNL d   1      60.919  48.371  50.319  0.00  0.00     0.106 A 
ATOM     12  C   UNL d   1      60.343  49.499  51.385  0.00  0.00     0.100 A 
ATOM     13  C   UNL d   1      60.495  49.708  50.589  0.00  0.00     0.022 A 
ATOM     14  C   UNL d   1      60.781  49.142  50.064  0.00  0.00     0.023 A 
ATOM     15  N   UNL d   1      61.204  47.684  49.925  0.00  0.00    -0.237 NA
ENDBRANCH   1   7
BRANCH   4  16
ATOM     16  N   UNL d   1      62.207  43.975  49.843  0.00  0.00    -0.206 NA
ATOM     17  C   UNL d   1      62.369  43.468  50.471  0.00  0.00     0.302 C 
ATOM     18  O   UNL d   1      62.291  43.723  51.251  0.00  0.00    -0.263 OA
BRANCH  17  19
ATOM     19  C   UNL d   1      62.611  42.698  50.319  0.00  0.00     0.158 A 
ATOM     20  O   UNL d   1      62.484  42.274  49.621  0.00  0.00    -0.300 OA
ATOM     21  C   UNL d   1      62.821  41.530  49.717  0.00  0.00     0.123 A 
ATOM     22  C   UNL d   1      63.158  41.487  50.474  0.00  0.00     0.029 A 
ATOM     23  C   UNL d   1      63.029  42.208  50.848  0.00  0.00     0.032 A 
ENDBRANCH  17  19
ENDBRANCH   4  16
TORSDOF 3
ENDMDL
