MODEL 1
REMARK VINA RESULT:      -5.8      0.000      0.000
REMARK  0 active torsions:
REMARK  status: ('A' for Active; 'I' for Inactive)
ROOT
ATOM      1  N   UNL d   1      56.371  -0.674  32.311  0.00  0.00    -0.273 N 
ATOM      2  C   UNL d   1      56.439   0.128  32.198  0.00  0.00     0.068 A 
ATOM      3  C   UNL d   1      55.895  -0.967  32.925  0.00  0.00     0.265 A 
ATOM      4  C   UNL d   1      56.912   0.413  31.587  0.00  0.00     0.035 A 
ATOM      5  C   UNL d   1      56.777  -1.197  31.814  0.00  0.00     0.085 A 
ATOM      6  C   UNL d   1      56.030   0.644  32.698  0.00  0.00     0.018 A 
ATOM      7  N   UNL d   1      57.844   0.127  30.416  0.00  0.00    -0.242 NA
ATOM      8  C   UNL d   1      57.320  -0.103  31.088  0.00  0.00     0.006 A 
ATOM      9  C   UNL d   1      57.253  -0.904  31.201  0.00  0.00     0.037 A 
ATOM     10  C   UNL d   1      55.554   0.359  33.312  0.00  0.00     0.006 A 
ATOM     11  C   UNL d   1      55.487  -0.442  33.424  0.00  0.00     0.061 A 
ATOM     12  O   UNL d   1      55.830  -1.771  33.035  0.00  0.00    -0.267 OA
ATOM     13  C   UNL d   1      57.390   0.682  30.973  0.00  0.00     0.100 A 
ATOM     14  C   UNL d   1      57.737  -0.673  30.579  0.00  0.00     0.100 A 
ENDROOT
TORSDOF 0
ENDMDL
MODEL 2
REMARK VINA RESULT:      -5.8      0.837      1.460
REMARK  0 active torsions:
REMARK  status: ('A' for Active; 'I' for Inactive)
ROOT
ATOM      1  N   UNL d   1      56.073  -0.052  32.670  0.00  0.00    -0.273 N 
ATOM      2  C   UNL d   1      56.319  -0.764  32.367  0.00  0.00     0.068 A 
ATOM      3  C   UNL d   1      55.542  -0.035  33.309  0.00  0.00     0.265 A 
ATOM      4  C   UNL d   1      56.846  -0.776  31.734  0.00  0.00     0.035 A 
ATOM      5  C   UNL d   1      56.352   0.655  32.343  0.00  0.00     0.085 A 
ATOM      6  C   UNL d   1      56.035  -1.466  32.699  0.00  0.00     0.018 A 
ATOM      7  N   UNL d   1      57.691  -0.008  30.726  0.00  0.00    -0.242 NA
ATOM      8  C   UNL d   1      57.128  -0.075  31.402  0.00  0.00     0.006 A 
ATOM      9  C   UNL d   1      56.883   0.637  31.705  0.00  0.00     0.037 A 
ATOM     10  C   UNL d   1      55.506  -1.456  33.336  0.00  0.00     0.006 A 
ATOM     11  C   UNL d   1      55.261  -0.744  33.639  0.00  0.00     0.061 A 
ATOM     12  O   UNL d   1      55.298   0.682  33.610  0.00  0.00    -0.267 OA
ATOM     13  C   UNL d   1      57.372  -0.770  31.101  0.00  0.00     0.100 A 
ATOM     14  C   UNL d   1      57.408   0.682  31.075  0.00  0.00     0.100 A 
ENDROOT
TORSDOF 0
ENDMDL
MODEL 3
REMARK VINA RESULT:      -5.8      0.984      2.517
REMARK  0 active torsions:
REMARK  status: ('A' for Active; 'I' for Inactive)
ROOT
ATOM      1  N   UNL d   1      56.859  -0.679  31.651  0.00  0.00    -0.273 N 
ATOM      2  C   UNL d   1      56.810   0.091  31.904  0.00  0.00     0.068 A 
ATOM      3  C   UNL d   1      57.366  -0.876  31.023  0.00  0.00     0.265 A 
ATOM      4  C   UNL d   1      56.305   0.282  32.527  0.00  0.00     0.035 A 
ATOM      5  C   UNL d   1      56.405  -1.265  32.018  0.00  0.00     0.085 A 
ATOM      6  C   UNL d   1      57.266   0.671  31.532  0.00  0.00     0.018 A 
ATOM      7  N   UNL d   1      55.289  -0.171  33.568  0.00  0.00    -0.242 NA
ATOM      8  C   UNL d   1      55.849  -0.298  32.898  0.00  0.00     0.006 A 
ATOM      9  C   UNL d   1      55.899  -1.068  32.645  0.00  0.00     0.037 A 
ATOM     10  C   UNL d   1      57.773   0.482  30.906  0.00  0.00     0.006 A 
ATOM     11  C   UNL d   1      57.823  -0.288  30.653  0.00  0.00     0.061 A 
ATOM     12  O   UNL d   1      57.413  -1.650  30.771  0.00  0.00    -0.267 OA
ATOM     13  C   UNL d   1      55.796   0.455  33.151  0.00  0.00     0.100 A 
ATOM     14  C   UNL d   1      55.382  -0.932  33.268  0.00  0.00     0.100 A 
ENDROOT
TORSDOF 0
ENDMDL
MODEL 4
REMARK VINA RESULT:      -3.8      8.727      9.401
REMARK  0 active torsions:
REMARK  status: ('A' for Active; 'I' for Inactive)
ROOT
ATOM      1  N   UNL d   1      60.396  -7.796  35.377  0.00  0.00    -0.273 N 
ATOM      2  C   UNL d   1      59.708  -8.226  35.341  0.00  0.00     0.068 A 
ATOM      3  C   UNL d   1      60.442  -7.130  35.871  0.00  0.00     0.265 A 
ATOM      4  C   UNL d   1      59.668  -8.886  34.848  0.00  0.00     0.035 A 
ATOM      5  C   UNL d   1      61.049  -8.020  34.921  0.00  0.00     0.085 A 
ATOM      6  C   UNL d   1      59.060  -7.996  35.799  0.00  0.00     0.018 A 
ATOM      7  N   UNL d   1      60.347  -9.807  33.843  0.00  0.00    -0.242 NA
ATOM      8  C   UNL d   1      60.315  -9.116  34.391  0.00  0.00     0.006 A 
ATOM      9  C   UNL d   1      61.003  -8.685  34.427  0.00  0.00     0.037 A 
ATOM     10  C   UNL d   1      59.099  -7.334  36.294  0.00  0.00     0.006 A 
ATOM     11  C   UNL d   1      59.787  -6.903  36.330  0.00  0.00     0.061 A 
ATOM     12  O   UNL d   1      61.133  -6.700  35.905  0.00  0.00    -0.267 OA
ATOM     13  C   UNL d   1      59.644  -9.542  34.351  0.00  0.00     0.100 A 
ATOM     14  C   UNL d   1      61.015  -9.332  33.921  0.00  0.00     0.100 A 
ENDROOT
TORSDOF 0
ENDMDL
MODEL 5
REMARK VINA RESULT:      -3.8      1.828      2.466
REMARK  0 active torsions:
REMARK  status: ('A' for Active; 'I' for Inactive)
ROOT
ATOM      1  N   UNL d   1      55.716   0.613  34.406  0.00  0.00    -0.273 N 
ATOM      2  C   UNL d   1      55.343   0.626  33.685  0.00  0.00     0.068 A 
ATOM      3  C   UNL d   1      55.267   0.622  35.105  0.00  0.00     0.265 A 
ATOM      4  C   UNL d   1      55.793   0.616  32.995  0.00  0.00     0.035 A 
ATOM      5  C   UNL d   1      56.543   0.591  34.444  0.00  0.00     0.085 A 
ATOM      6  C   UNL d   1      54.517   0.648  33.656  0.00  0.00     0.018 A 
ATOM      7  N   UNL d   1      57.164   0.582  32.332  0.00  0.00    -0.242 NA
ATOM      8  C   UNL d   1      56.618   0.594  33.025  0.00  0.00     0.006 A 
ATOM      9  C   UNL d   1      56.991   0.581  33.746  0.00  0.00     0.037 A 
ATOM     10  C   UNL d   1      54.064   0.657  34.348  0.00  0.00     0.006 A 
ATOM     11  C   UNL d   1      54.437   0.644  35.069  0.00  0.00     0.061 A 
ATOM     12  O   UNL d   1      55.645   0.609  35.827  0.00  0.00    -0.267 OA
ATOM     13  C   UNL d   1      56.257   0.607  32.315  0.00  0.00     0.100 A 
ATOM     14  C   UNL d   1      57.485   0.571  33.090  0.00  0.00     0.100 A 
ENDROOT
TORSDOF 0
ENDMDL
MODEL 6
REMARK VINA RESULT:      -3.7      1.490      2.978
REMARK  0 active torsions:
REMARK  status: ('A' for Active; 'I' for Inactive)
ROOT
ATOM      1  N   UNL d   1      57.913  -0.649  30.370  0.00  0.00    -0.273 N 
ATOM      2  C   UNL d   1      57.852   0.150  30.503  0.00  0.00     0.068 A 
ATOM      3  C   UNL d   1      58.370  -0.930  29.736  0.00  0.00     0.265 A 
ATOM      4  C   UNL d   1      57.397   0.423  31.133  0.00  0.00     0.035 A 
ATOM      5  C   UNL d   1      57.519  -1.183  30.867  0.00  0.00     0.085 A 
ATOM      6  C   UNL d   1      58.248   0.675  30.003  0.00  0.00     0.018 A 
ATOM      7  N   UNL d   1      56.499   0.114  32.325  0.00  0.00    -0.242 NA
ATOM      8  C   UNL d   1      57.002  -0.103  31.633  0.00  0.00     0.006 A 
ATOM      9  C   UNL d   1      57.063  -0.902  31.500  0.00  0.00     0.037 A 
ATOM     10  C   UNL d   1      58.705   0.403  29.370  0.00  0.00     0.006 A 
ATOM     11  C   UNL d   1      58.765  -0.396  29.237  0.00  0.00     0.061 A 
ATOM     12  O   UNL d   1      58.428  -1.732  29.606  0.00  0.00    -0.267 OA
ATOM     13  C   UNL d   1      56.939   0.679  31.768  0.00  0.00     0.100 A 
ATOM     14  C   UNL d   1      56.597  -0.683  32.141  0.00  0.00     0.100 A 
ENDROOT
TORSDOF 0
ENDMDL
MODEL 7
REMARK VINA RESULT:      -3.2      1.596      2.587
REMARK  0 active torsions:
REMARK  status: ('A' for Active; 'I' for Inactive)
ROOT
ATOM      1  N   UNL d   1      57.902  -0.716  30.426  0.00  0.00    -0.273 N 
ATOM      2  C   UNL d   1      58.247  -0.017  30.198  0.00  0.00     0.068 A 
ATOM      3  C   UNL d   1      57.353  -0.723  31.050  0.00  0.00     0.265 A 
ATOM      4  C   UNL d   1      58.791  -0.016  29.579  0.00  0.00     0.035 A 
ATOM      5  C   UNL d   1      58.096  -1.420  30.036  0.00  0.00     0.085 A 
ATOM      6  C   UNL d   1      58.048   0.682  30.592  0.00  0.00     0.018 A 
ATOM      7  N   UNL d   1      59.560  -0.791  28.517  0.00  0.00    -0.242 NA
ATOM      8  C   UNL d   1      58.990  -0.714  29.186  0.00  0.00     0.006 A 
ATOM      9  C   UNL d   1      58.644  -1.413  29.413  0.00  0.00     0.037 A 
ATOM     10  C   UNL d   1      57.502   0.682  31.215  0.00  0.00     0.006 A 
ATOM     11  C   UNL d   1      57.157  -0.017  31.442  0.00  0.00     0.061 A 
ATOM     12  O   UNL d   1      57.008  -1.426  31.275  0.00  0.00    -0.267 OA
ATOM     13  C   UNL d   1      59.331  -0.032  28.959  0.00  0.00     0.100 A 
ATOM     14  C   UNL d   1      59.178  -1.467  28.791  0.00  0.00     0.100 A 
ENDROOT
TORSDOF 0
ENDMDL
MODEL 8
REMARK VINA RESULT:      -2.9      3.744      4.859
REMARK  0 active torsions:
REMARK  status: ('A' for Active; 'I' for Inactive)
ROOT
ATOM      1  N   UNL d   1      59.330  -2.355  29.050  0.00  0.00    -0.273 N 
ATOM      2  C   UNL d   1      60.070  -2.026  28.992  0.00  0.00     0.068 A 
ATOM      3  C   UNL d   1      59.234  -3.175  28.958  0.00  0.00     0.265 A 
ATOM      4  C   UNL d   1      60.161  -1.212  29.084  0.00  0.00     0.035 A 
ATOM      5  C   UNL d   1      58.674  -1.874  29.199  0.00  0.00     0.085 A 
ATOM      6  C   UNL d   1      60.721  -2.513  28.842  0.00  0.00     0.018 A 
ATOM      7  N   UNL d   1      59.529   0.150  29.342  0.00  0.00    -0.242 NA
ATOM      8  C   UNL d   1      59.511  -0.725  29.233  0.00  0.00     0.006 A 
ATOM      9  C   UNL d   1      58.771  -1.055  29.291  0.00  0.00     0.037 A 
ATOM     10  C   UNL d   1      60.632  -3.330  28.750  0.00  0.00     0.006 A 
ATOM     11  C   UNL d   1      59.892  -3.660  28.807  0.00  0.00     0.061 A 
ATOM     12  O   UNL d   1      58.490  -3.502  29.016  0.00  0.00    -0.267 OA
ATOM     13  C   UNL d   1      60.234  -0.397  29.178  0.00  0.00     0.100 A 
ATOM     14  C   UNL d   1      58.805  -0.240  29.390  0.00  0.00     0.100 A 
ENDROOT
TORSDOF 0
ENDMDL
