MODEL 1
REMARK VINA RESULT:       5.7      0.000      0.000
REMARK  5 active torsions:
REMARK  status: ('A' for Active; 'I' for Inactive)
REMARK    1  A    between atoms: C_7  and  C_1 
REMARK    2  A    between atoms: C_10  and  C_6 
REMARK    3  A    between atoms: O_18  and  C_7 
REMARK    4  A    between atoms: N_8  and  C_10 
REMARK    5  A    between atoms: C_23  and  O_18 
ROOT
ATOM      1  C   UNL d   1     -41.959-121.524 -53.838  0.00  0.00     0.081 A 
ATOM      2  C   UNL d   1     -42.028-121.580 -54.658  0.00  0.00     0.069 A 
ATOM      3  C   UNL d   1     -41.701-122.268 -53.555  0.00  0.00     0.027 A 
ATOM      4  N   UNL d   1     -41.819-122.341 -54.888  0.00  0.00    -0.304 N 
ATOM      5  C   UNL d   1     -41.615-122.771 -54.203  0.00  0.00     0.065 A 
ATOM      6  C   UNL d   1     -41.539-122.534 -52.801  0.00  0.00     0.058 A 
ATOM      7  C   UNL d   1     -41.367-123.544 -54.100  0.00  0.00     0.021 A 
ATOM      8  C   UNL d   1     -41.289-123.312 -52.690  0.00  0.00     0.197 A 
ATOM      9  C   UNL d   1     -41.203-123.817 -53.341  0.00  0.00     0.044 A 
ATOM     10  C   UNL d   1     -42.271-120.962 -55.160  0.00  0.00     0.019 C 
ATOM     11  C   UNL d   1     -41.811-122.634 -55.662  0.00  0.00     0.099 C 
ATOM     12  O   UNL d   1     -41.123-123.590 -51.925  0.00  0.00    -0.286 OA
ENDROOT
BRANCH   6  13
ATOM     13  C   UNL d   1     -41.626-122.028 -52.155  0.00  0.00     0.083 C 
BRANCH  13  14
ATOM     14  N   UNL d   1     -41.776-122.344 -51.406  0.00  0.00    -0.302 N 
ATOM     15  C   UNL d   1     -42.546-122.528 -51.186  0.00  0.00     0.080 A 
ATOM     16  C   UNL d   1     -42.695-122.845 -50.433  0.00  0.00     0.019 A 
ATOM     17  C   UNL d   1     -42.074-122.974 -49.909  0.00  0.00     0.003 A 
ATOM     18  C   UNL d   1     -41.301-122.788 -50.129  0.00  0.00     0.019 A 
ATOM     19  C   UNL d   1     -42.227-123.288 -49.162  0.00  0.00     0.000 C 
ATOM     20  C   UNL d   1     -41.152-122.472 -50.883  0.00  0.00     0.080 A 
ENDBRANCH  13  14
ENDBRANCH   6  13
BRANCH   1  21
ATOM     21  C   UNL d   1     -42.113-120.860 -53.372  0.00  0.00     0.302 C 
ATOM     22  O   UNL d   1     -42.884-120.708 -53.109  0.00  0.00    -0.259 OA
BRANCH  21  23
ATOM     23  O   UNL d   1     -41.496-120.354 -53.174  0.00  0.00    -0.271 OA
BRANCH  23  24
ATOM     24  C   UNL d   1     -41.641-119.544 -53.080  0.00  0.00     0.126 C 
ATOM     25  C   UNL d   1     -41.124-119.081 -52.640  0.00  0.00     0.029 C 
ENDBRANCH  23  24
ENDBRANCH  21  23
ENDBRANCH   1  21
TORSDOF 5
ENDMDL
MODEL 2
REMARK VINA RESULT:       8.7      1.143      2.351
REMARK  5 active torsions:
REMARK  status: ('A' for Active; 'I' for Inactive)
REMARK    1  A    between atoms: C_7  and  C_1 
REMARK    2  A    between atoms: C_10  and  C_6 
REMARK    3  A    between atoms: O_18  and  C_7 
REMARK    4  A    between atoms: N_8  and  C_10 
REMARK    5  A    between atoms: C_23  and  O_18 
ROOT
ATOM      1  C   UNL d   1     -41.929-122.033 -53.675  0.00  0.00     0.081 A 
ATOM      2  C   UNL d   1     -42.187-121.528 -54.275  0.00  0.00     0.069 A 
ATOM      3  C   UNL d   1     -41.769-121.563 -53.002  0.00  0.00     0.027 A 
ATOM      4  N   UNL d   1     -42.189-120.758 -53.987  0.00  0.00    -0.304 N 
ATOM      5  C   UNL d   1     -41.930-120.777 -53.195  0.00  0.00     0.065 A 
ATOM      6  C   UNL d   1     -41.503-121.759 -52.256  0.00  0.00     0.058 A 
ATOM      7  C   UNL d   1     -41.824-120.183 -52.642  0.00  0.00     0.021 A 
ATOM      8  C   UNL d   1     -41.394-121.166 -51.694  0.00  0.00     0.197 A 
ATOM      9  C   UNL d   1     -41.556-120.376 -51.888  0.00  0.00     0.044 A 
ATOM     10  C   UNL d   1     -42.405-121.769 -55.041  0.00  0.00     0.019 C 
ATOM     11  C   UNL d   1     -42.410-120.080 -54.407  0.00  0.00     0.099 C 
ATOM     12  O   UNL d   1     -41.123-121.357 -50.932  0.00  0.00    -0.286 OA
ENDROOT
BRANCH   6  13
ATOM     13  C   UNL d   1     -41.343-122.546 -52.067  0.00  0.00     0.083 C 
BRANCH  13  14
ATOM     14  N   UNL d   1     -41.630-122.862 -51.358  0.00  0.00    -0.302 N 
ATOM     15  C   UNL d   1     -41.159-123.369 -50.916  0.00  0.00     0.080 A 
ATOM     16  C   UNL d   1     -41.448-123.686 -50.204  0.00  0.00     0.019 A 
ATOM     17  C   UNL d   1     -42.204-123.493 -49.944  0.00  0.00     0.003 A 
ATOM     18  C   UNL d   1     -42.678-122.984 -50.389  0.00  0.00     0.019 A 
ATOM     19  C   UNL d   1     -42.487-123.809 -49.238  0.00  0.00     0.000 C 
ATOM     20  C   UNL d   1     -42.388-122.668 -51.100  0.00  0.00     0.080 A 
ENDBRANCH  13  14
ENDBRANCH   6  13
BRANCH   1  21
ATOM     21  C   UNL d   1     -41.842-122.852 -53.722  0.00  0.00     0.302 C 
ATOM     22  O   UNL d   1     -42.470-123.350 -53.507  0.00  0.00    -0.259 OA
BRANCH  21  23
ATOM     23  O   UNL d   1     -41.129-123.168 -53.983  0.00  0.00    -0.271 OA
BRANCH  23  24
ATOM     24  C   UNL d   1     -41.129-123.816 -54.499  0.00  0.00     0.126 C 
ATOM     25  C   UNL d   1     -41.144-123.697 -55.312  0.00  0.00     0.029 C 
ENDBRANCH  23  24
ENDBRANCH  21  23
ENDBRANCH   1  21
TORSDOF 5
ENDMDL
