MODEL 1
REMARK VINA RESULT:      -6.6      0.000      0.000
REMARK  5 active torsions:
REMARK  status: ('A' for Active; 'I' for Inactive)
REMARK    1  A    between atoms: C_3  and  C_1 
REMARK    2  A    between atoms: C_6  and  C_1 
REMARK    3  A    between atoms: C_2  and  C_3 
REMARK       I    between atoms: N_4  and  C_2 
REMARK    4  A    between atoms: C_12  and  N_4 
REMARK    5  A    between atoms: N_7  and  C_5 
ROOT
ATOM      1  C   UNL d   1     -47.449  14.469  22.760  0.00  0.00     0.328 C 
ATOM      2  N   UNL d   1     -47.033  13.771  22.897  0.00  0.00    -0.365 NA
ATOM      3  O   UNL d   1     -47.084  15.099  22.372  0.00  0.00    -0.251 OA
ENDROOT
BRANCH   1   4
ATOM      4  C   UNL d   1     -48.230  14.536  23.012  0.00  0.00     0.076 C 
BRANCH   4   5
ATOM      5  C   UNL d   1     -48.807  14.806  22.489  0.00  0.00     0.007 C 
BRANCH   5   6
ATOM      6  C   UNL d   1     -49.556  15.014  22.771  0.00  0.00     0.011 A 
ATOM      7  C   UNL d   1     -50.235  14.711  22.405  0.00  0.00     0.058 A 
ATOM      8 CL   UNL d   1     -50.165  14.203  21.760  0.00  0.00    -0.082 Cl
ATOM      9  C   UNL d   1     -50.986  14.920  22.690  0.00  0.00     0.011 A 
ATOM     10  C   UNL d   1     -51.053  15.430  23.336  0.00  0.00     0.001 A 
ATOM     11  C   UNL d   1     -50.372  15.727  23.695  0.00  0.00     0.000 A 
ATOM     12  C   UNL d   1     -49.626  15.522  23.416  0.00  0.00     0.001 A 
ENDBRANCH   5   6
ENDBRANCH   4   5
ENDBRANCH   1   4
BRANCH   2  13
ATOM     13  C   UNL d   1     -46.617  13.075  23.034  0.00  0.00     0.135 A 
ATOM     14  C   UNL d   1     -45.894  12.951  22.652  0.00  0.00     0.034 A 
ATOM     15  C   UNL d   1     -45.478  12.254  22.789  0.00  0.00     0.020 A 
ATOM     16  C   UNL d   1     -45.786  11.680  23.308  0.00  0.00     0.064 A 
ATOM     17  C   UNL d   1     -46.506  11.808  23.685  0.00  0.00     0.020 A 
ATOM     18  C   UNL d   1     -46.922  12.506  23.548  0.00  0.00     0.034 A 
BRANCH  16  19
ATOM     19  N   UNL d   1     -45.363  10.978  23.444  0.00  0.00    -0.301 N 
ATOM     20  C   UNL d   1     -45.766  10.300  23.698  0.00  0.00     0.100 C 
ATOM     21  C   UNL d   1     -44.547  10.960  23.324  0.00  0.00     0.100 C 
ENDBRANCH  16  19
ENDBRANCH   2  13
TORSDOF 5
ENDMDL
MODEL 2
REMARK VINA RESULT:      -6.2      1.548      1.799
REMARK  5 active torsions:
REMARK  status: ('A' for Active; 'I' for Inactive)
REMARK    1  A    between atoms: C_3  and  C_1 
REMARK    2  A    between atoms: C_6  and  C_1 
REMARK    3  A    between atoms: C_2  and  C_3 
REMARK       I    between atoms: N_4  and  C_2 
REMARK    4  A    between atoms: C_12  and  N_4 
REMARK    5  A    between atoms: N_7  and  C_5 
ROOT
ATOM      1  C   UNL d   1     -49.009  11.983  23.547  0.00  0.00     0.328 C 
ATOM      2  N   UNL d   1     -48.209  11.789  23.510  0.00  0.00    -0.365 NA
ATOM      3  O   UNL d   1     -49.570  11.398  23.698  0.00  0.00    -0.251 OA
ENDROOT
BRANCH   1   4
ATOM      4  C   UNL d   1     -49.247  12.763  23.433  0.00  0.00     0.076 C 
BRANCH   4   5
ATOM      5  C   UNL d   1     -49.948  12.923  23.031  0.00  0.00     0.007 C 
BRANCH   5   6
ATOM      6  C   UNL d   1     -50.191  13.706  22.919  0.00  0.00     0.011 A 
ATOM      7  C   UNL d   1     -50.698  13.897  22.292  0.00  0.00     0.058 A 
ATOM      8 CL   UNL d   1     -50.960  13.307  21.779  0.00  0.00    -0.082 Cl
ATOM      9  C   UNL d   1     -50.942  14.682  22.181  0.00  0.00     0.011 A 
ATOM     10  C   UNL d   1     -50.677  15.271  22.697  0.00  0.00     0.001 A 
ATOM     11  C   UNL d   1     -50.173  15.073  23.319  0.00  0.00     0.000 A 
ATOM     12  C   UNL d   1     -49.929  14.294  23.432  0.00  0.00     0.001 A 
ENDBRANCH   5   6
ENDBRANCH   4   5
ENDBRANCH   1   4
BRANCH   2  13
ATOM     13  C   UNL d   1     -47.411  11.595  23.474  0.00  0.00     0.135 A 
ATOM     14  C   UNL d   1     -46.866  12.160  23.211  0.00  0.00     0.034 A 
ATOM     15  C   UNL d   1     -46.068  11.966  23.175  0.00  0.00     0.020 A 
ATOM     16  C   UNL d   1     -45.813  11.206  23.401  0.00  0.00     0.064 A 
ATOM     17  C   UNL d   1     -46.358  10.647  23.661  0.00  0.00     0.020 A 
ATOM     18  C   UNL d   1     -47.158  10.842  23.698  0.00  0.00     0.034 A 
BRANCH  16  19
ATOM     19  N   UNL d   1     -45.005  11.013  23.363  0.00  0.00    -0.301 N 
ATOM     20  C   UNL d   1     -44.478  11.530  22.988  0.00  0.00     0.100 C 
ATOM     21  C   UNL d   1     -44.736  10.309  23.698  0.00  0.00     0.100 C 
ENDBRANCH  16  19
ENDBRANCH   2  13
TORSDOF 5
ENDMDL
MODEL 3
REMARK VINA RESULT:      -6.1      1.415      1.680
REMARK  5 active torsions:
REMARK  status: ('A' for Active; 'I' for Inactive)
REMARK    1  A    between atoms: C_3  and  C_1 
REMARK    2  A    between atoms: C_6  and  C_1 
REMARK    3  A    between atoms: C_2  and  C_3 
REMARK       I    between atoms: N_4  and  C_2 
REMARK    4  A    between atoms: C_12  and  N_4 
REMARK    5  A    between atoms: N_7  and  C_5 
ROOT
ATOM      1  C   UNL d   1     -47.340  13.468  22.946  0.00  0.00     0.328 C 
ATOM      2  N   UNL d   1     -46.768  12.883  23.042  0.00  0.00    -0.365 NA
ATOM      3  O   UNL d   1     -47.124  14.219  22.682  0.00  0.00    -0.251 OA
ENDROOT
BRANCH   1   4
ATOM      4  C   UNL d   1     -48.128  13.300  23.115  0.00  0.00     0.076 C 
BRANCH   4   5
ATOM      5  C   UNL d   1     -48.711  13.467  22.557  0.00  0.00     0.007 C 
BRANCH   5   6
ATOM      6  C   UNL d   1     -49.492  13.230  22.691  0.00  0.00     0.011 A 
ATOM      7  C   UNL d   1     -50.019  13.162  22.055  0.00  0.00     0.058 A 
ATOM      8 CL   UNL d   1     -49.766  13.330  21.289  0.00  0.00    -0.082 Cl
ATOM      9  C   UNL d   1     -50.803  12.924  22.191  0.00  0.00     0.011 A 
ATOM     10  C   UNL d   1     -51.053  12.756  22.960  0.00  0.00     0.001 A 
ATOM     11  C   UNL d   1     -50.522  12.826  23.588  0.00  0.00     0.000 A 
ATOM     12  C   UNL d   1     -49.745  13.062  23.456  0.00  0.00     0.001 A 
ENDBRANCH   5   6
ENDBRANCH   4   5
ENDBRANCH   1   4
BRANCH   2  13
ATOM     13  C   UNL d   1     -46.196  12.300  23.137  0.00  0.00     0.135 A 
ATOM     14  C   UNL d   1     -46.368  11.632  23.595  0.00  0.00     0.034 A 
ATOM     15  C   UNL d   1     -45.796  11.049  23.690  0.00  0.00     0.020 A 
ATOM     16  C   UNL d   1     -45.051  11.132  23.327  0.00  0.00     0.064 A 
ATOM     17  C   UNL d   1     -44.885  11.797  22.872  0.00  0.00     0.020 A 
ATOM     18  C   UNL d   1     -45.458  12.382  22.777  0.00  0.00     0.034 A 
BRANCH  16  19
ATOM     19  N   UNL d   1     -44.476  10.540  23.426  0.00  0.00    -0.301 N 
ATOM     20  C   UNL d   1     -43.682  10.709  23.258  0.00  0.00     0.100 C 
ATOM     21  C   UNL d   1     -44.699   9.791  23.689  0.00  0.00     0.100 C 
ENDBRANCH  16  19
ENDBRANCH   2  13
TORSDOF 5
ENDMDL
MODEL 4
REMARK VINA RESULT:      -6.0      8.187      9.581
REMARK  5 active torsions:
REMARK  status: ('A' for Active; 'I' for Inactive)
REMARK    1  A    between atoms: C_3  and  C_1 
REMARK    2  A    between atoms: C_6  and  C_1 
REMARK    3  A    between atoms: C_2  and  C_3 
REMARK       I    between atoms: N_4  and  C_2 
REMARK    4  A    between atoms: C_12  and  N_4 
REMARK    5  A    between atoms: N_7  and  C_5 
ROOT
ATOM      1  C   UNL d   1     -40.561  14.450  20.817  0.00  0.00     0.328 C 
ATOM      2  N   UNL d   1     -40.580  14.674  20.024  0.00  0.00    -0.365 NA
ATOM      3  O   UNL d   1     -41.101  13.896  21.103  0.00  0.00    -0.251 OA
ENDROOT
BRANCH   1   4
ATOM      4  C   UNL d   1     -40.001  14.780  21.322  0.00  0.00     0.076 C 
BRANCH   4   5
ATOM      5  C   UNL d   1     -39.616  14.304  21.874  0.00  0.00     0.007 C 
BRANCH   5   6
ATOM      6  C   UNL d   1     -39.084  14.641  22.410  0.00  0.00     0.011 A 
ATOM      7  C   UNL d   1     -38.566  14.156  22.839  0.00  0.00     0.058 A 
ATOM      8 CL   UNL d   1     -38.580  13.339  22.731  0.00  0.00    -0.082 Cl
ATOM      9  C   UNL d   1     -38.033  14.495  23.377  0.00  0.00     0.011 A 
ATOM     10  C   UNL d   1     -38.021  15.314  23.483  0.00  0.00     0.001 A 
ATOM     11  C   UNL d   1     -38.540  15.789  23.053  0.00  0.00     0.000 A 
ATOM     12  C   UNL d   1     -39.070  15.456  22.518  0.00  0.00     0.001 A 
ENDBRANCH   5   6
ENDBRANCH   4   5
ENDBRANCH   1   4
BRANCH   2  13
ATOM     13  C   UNL d   1     -40.600  14.898  19.233  0.00  0.00     0.135 A 
ATOM     14  C   UNL d   1     -40.568  14.317  18.645  0.00  0.00     0.034 A 
ATOM     15  C   UNL d   1     -40.587  14.541  17.853  0.00  0.00     0.020 A 
ATOM     16  C   UNL d   1     -40.639  15.347  17.649  0.00  0.00     0.064 A 
ATOM     17  C   UNL d   1     -40.671  15.921  18.238  0.00  0.00     0.020 A 
ATOM     18  C   UNL d   1     -40.651  15.696  19.030  0.00  0.00     0.034 A 
BRANCH  16  19
ATOM     19  N   UNL d   1     -40.659  15.570  16.849  0.00  0.00    -0.301 N 
ATOM     20  C   UNL d   1     -39.958  15.578  16.409  0.00  0.00     0.100 C 
ATOM     21  C   UNL d   1     -41.376  15.781  16.499  0.00  0.00     0.100 C 
ENDBRANCH  16  19
ENDBRANCH   2  13
TORSDOF 5
ENDMDL
MODEL 5
REMARK VINA RESULT:      -5.9      8.655     10.049
REMARK  5 active torsions:
REMARK  status: ('A' for Active; 'I' for Inactive)
REMARK    1  A    between atoms: C_3  and  C_1 
REMARK    2  A    between atoms: C_6  and  C_1 
REMARK    3  A    between atoms: C_2  and  C_3 
REMARK       I    between atoms: N_4  and  C_2 
REMARK    4  A    between atoms: C_12  and  N_4 
REMARK    5  A    between atoms: N_7  and  C_5 
ROOT
ATOM      1  C   UNL d   1     -40.415  14.233  19.163  0.00  0.00     0.328 C 
ATOM      2  N   UNL d   1     -39.972  14.261  18.469  0.00  0.00    -0.365 NA
ATOM      3  O   UNL d   1     -41.104  13.780  19.196  0.00  0.00    -0.251 OA
ENDROOT
BRANCH   1   4
ATOM      4  C   UNL d   1     -40.168  14.659  19.823  0.00  0.00     0.076 C 
BRANCH   4   5
ATOM      5  C   UNL d   1     -40.073  14.274  20.545  0.00  0.00     0.007 C 
BRANCH   5   6
ATOM      6  C   UNL d   1     -39.780  14.689  21.199  0.00  0.00     0.011 A 
ATOM      7  C   UNL d   1     -39.356  14.288  21.788  0.00  0.00     0.058 A 
ATOM      8 CL   UNL d   1     -39.226  13.477  21.723  0.00  0.00    -0.082 Cl
ATOM      9  C   UNL d   1     -39.064  14.705  22.443  0.00  0.00     0.011 A 
ATOM     10  C   UNL d   1     -39.196  15.518  22.505  0.00  0.00     0.001 A 
ATOM     11  C   UNL d   1     -39.619  15.909  21.914  0.00  0.00     0.000 A 
ATOM     12  C   UNL d   1     -39.911  15.499  21.263  0.00  0.00     0.001 A 
ENDBRANCH   5   6
ENDBRANCH   4   5
ENDBRANCH   1   4
BRANCH   2  13
ATOM     13  C   UNL d   1     -39.529  14.289  17.776  0.00  0.00     0.135 A 
ATOM     14  C   UNL d   1     -39.609  14.937  17.268  0.00  0.00     0.034 A 
ATOM     15  C   UNL d   1     -39.167  14.965  16.575  0.00  0.00     0.020 A 
ATOM     16  C   UNL d   1     -38.644  14.344  16.389  0.00  0.00     0.064 A 
ATOM     17  C   UNL d   1     -38.568  13.702  16.897  0.00  0.00     0.020 A 
ATOM     18  C   UNL d   1     -39.011  13.674  17.591  0.00  0.00     0.034 A 
BRANCH  16  19
ATOM     19  N   UNL d   1     -38.199  14.376  15.688  0.00  0.00    -0.301 N 
ATOM     20  C   UNL d   1     -37.942  15.108  15.398  0.00  0.00     0.100 C 
ATOM     21  C   UNL d   1     -38.016  13.678  15.286  0.00  0.00     0.100 C 
ENDBRANCH  16  19
ENDBRANCH   2  13
TORSDOF 5
ENDMDL
MODEL 6
REMARK VINA RESULT:      -5.0      1.780      5.252
REMARK  5 active torsions:
REMARK  status: ('A' for Active; 'I' for Inactive)
REMARK    1  A    between atoms: C_3  and  C_1 
REMARK    2  A    between atoms: C_6  and  C_1 
REMARK    3  A    between atoms: C_2  and  C_3 
REMARK       I    between atoms: N_4  and  C_2 
REMARK    4  A    between atoms: C_12  and  N_4 
REMARK    5  A    between atoms: N_7  and  C_5 
ROOT
ATOM      1  C   UNL d   1     -46.354  13.511  22.704  0.00  0.00     0.328 C 
ATOM      2  N   UNL d   1     -47.129  13.790  22.728  0.00  0.00    -0.365 NA
ATOM      3  O   UNL d   1     -45.734  14.028  22.536  0.00  0.00    -0.251 OA
ENDROOT
BRANCH   1   4
ATOM      4  C   UNL d   1     -46.201  12.716  22.850  0.00  0.00     0.076 C 
BRANCH   4   5
ATOM      5  C   UNL d   1     -45.448  12.411  22.709  0.00  0.00     0.007 C 
BRANCH   5   6
ATOM      6  C   UNL d   1     -45.236  11.675  23.020  0.00  0.00     0.011 A 
ATOM      7  C   UNL d   1     -44.452  11.410  22.960  0.00  0.00     0.058 A 
ATOM      8 CL   UNL d   1     -43.885  11.880  22.590  0.00  0.00    -0.082 Cl
ATOM      9  C   UNL d   1     -44.241  10.671  23.272  0.00  0.00     0.011 A 
ATOM     10  C   UNL d   1     -44.811  10.202  23.642  0.00  0.00     0.001 A 
ATOM     11  C   UNL d   1     -45.589  10.473  23.698  0.00  0.00     0.000 A 
ATOM     12  C   UNL d   1     -45.802  11.206  23.389  0.00  0.00     0.001 A 
ENDBRANCH   5   6
ENDBRANCH   4   5
ENDBRANCH   1   4
BRANCH   2  13
ATOM     13  C   UNL d   1     -47.903  14.069  22.751  0.00  0.00     0.135 A 
ATOM     14  C   UNL d   1     -48.519  13.545  22.925  0.00  0.00     0.034 A 
ATOM     15  C   UNL d   1     -49.293  13.823  22.948  0.00  0.00     0.020 A 
ATOM     16  C   UNL d   1     -49.451  14.627  22.797  0.00  0.00     0.064 A 
ATOM     17  C   UNL d   1     -48.835  15.144  22.624  0.00  0.00     0.020 A 
ATOM     18  C   UNL d   1     -48.060  14.865  22.601  0.00  0.00     0.034 A 
BRANCH  16  19
ATOM     19  N   UNL d   1     -50.234  14.905  22.821  0.00  0.00    -0.301 N 
ATOM     20  C   UNL d   1     -50.772  14.663  22.241  0.00  0.00     0.100 C 
ATOM     21  C   UNL d   1     -50.468  15.419  23.423  0.00  0.00     0.100 C 
ENDBRANCH  16  19
ENDBRANCH   2  13
TORSDOF 5
ENDMDL
MODEL 7
REMARK VINA RESULT:      -4.8      4.168      6.346
REMARK  5 active torsions:
REMARK  status: ('A' for Active; 'I' for Inactive)
REMARK    1  A    between atoms: C_3  and  C_1 
REMARK    2  A    between atoms: C_6  and  C_1 
REMARK    3  A    between atoms: C_2  and  C_3 
REMARK       I    between atoms: N_4  and  C_2 
REMARK    4  A    between atoms: C_12  and  N_4 
REMARK    5  A    between atoms: N_7  and  C_5 
ROOT
ATOM      1  C   UNL d   1     -43.106  12.937  21.392  0.00  0.00     0.328 C 
ATOM      2  N   UNL d   1     -43.858  12.947  21.731  0.00  0.00    -0.365 NA
ATOM      3  O   UNL d   1     -42.761  12.221  21.172  0.00  0.00    -0.251 OA
ENDROOT
BRANCH   1   4
ATOM      4  C   UNL d   1     -42.702  13.644  21.276  0.00  0.00     0.076 C 
BRANCH   4   5
ATOM      5  C   UNL d   1     -41.886  13.635  21.162  0.00  0.00     0.007 C 
BRANCH   5   6
ATOM      6  C   UNL d   1     -41.472  14.347  21.074  0.00  0.00     0.011 A 
ATOM      7  C   UNL d   1     -40.648  14.360  21.163  0.00  0.00     0.058 A 
ATOM      8 CL   UNL d   1     -40.240  13.666  21.338  0.00  0.00    -0.082 Cl
ATOM      9  C   UNL d   1     -40.235  15.075  21.074  0.00  0.00     0.011 A 
ATOM     10  C   UNL d   1     -40.647  15.769  20.898  0.00  0.00     0.001 A 
ATOM     11  C   UNL d   1     -41.467  15.746  20.811  0.00  0.00     0.000 A 
ATOM     12  C   UNL d   1     -41.880  15.040  20.898  0.00  0.00     0.001 A 
ENDBRANCH   5   6
ENDBRANCH   4   5
ENDBRANCH   1   4
BRANCH   2  13
ATOM     13  C   UNL d   1     -44.608  12.956  22.068  0.00  0.00     0.135 A 
ATOM     14  C   UNL d   1     -44.859  12.309  22.519  0.00  0.00     0.034 A 
ATOM     15  C   UNL d   1     -45.609  12.318  22.857  0.00  0.00     0.020 A 
ATOM     16  C   UNL d   1     -46.109  12.974  22.744  0.00  0.00     0.064 A 
ATOM     17  C   UNL d   1     -45.855  13.615  22.294  0.00  0.00     0.020 A 
ATOM     18  C   UNL d   1     -45.104  13.605  21.956  0.00  0.00     0.034 A 
BRANCH  16  19
ATOM     19  N   UNL d   1     -46.866  12.980  23.086  0.00  0.00    -0.301 N 
ATOM     20  C   UNL d   1     -47.150  12.299  23.463  0.00  0.00     0.100 C 
ATOM     21  C   UNL d   1     -47.328  13.662  23.048  0.00  0.00     0.100 C 
ENDBRANCH  16  19
ENDBRANCH   2  13
TORSDOF 5
ENDMDL
MODEL 8
REMARK VINA RESULT:      -4.5      4.157      5.452
REMARK  5 active torsions:
REMARK  status: ('A' for Active; 'I' for Inactive)
REMARK    1  A    between atoms: C_3  and  C_1 
REMARK    2  A    between atoms: C_6  and  C_1 
REMARK    3  A    between atoms: C_2  and  C_3 
REMARK       I    between atoms: N_4  and  C_2 
REMARK    4  A    between atoms: C_12  and  N_4 
REMARK    5  A    between atoms: N_7  and  C_5 
ROOT
ATOM      1  C   UNL d   1     -43.433  12.668  21.686  0.00  0.00     0.328 C 
ATOM      2  N   UNL d   1     -42.812  13.102  21.363  0.00  0.00    -0.365 NA
ATOM      3  O   UNL d   1     -43.323  11.875  21.885  0.00  0.00    -0.251 OA
ENDROOT
BRANCH   1   4
ATOM      4  C   UNL d   1     -44.162  13.028  21.811  0.00  0.00     0.076 C 
BRANCH   4   5
ATOM      5  C   UNL d   1     -44.757  12.621  22.211  0.00  0.00     0.007 C 
BRANCH   5   6
ATOM      6  C   UNL d   1     -45.429  13.025  22.474  0.00  0.00     0.011 A 
ATOM      7  C   UNL d   1     -45.983  12.638  22.954  0.00  0.00     0.058 A 
ATOM      8 CL   UNL d   1     -45.865  11.851  23.170  0.00  0.00    -0.082 Cl
ATOM      9  C   UNL d   1     -46.657  13.044  23.217  0.00  0.00     0.011 A 
ATOM     10  C   UNL d   1     -46.773  13.833  23.000  0.00  0.00     0.001 A 
ATOM     11  C   UNL d   1     -46.217  14.210  22.522  0.00  0.00     0.000 A 
ATOM     12  C   UNL d   1     -45.547  13.811  22.259  0.00  0.00     0.001 A 
ENDBRANCH   5   6
ENDBRANCH   4   5
ENDBRANCH   1   4
BRANCH   2  13
ATOM     13  C   UNL d   1     -42.191  13.536  21.040  0.00  0.00     0.135 A 
ATOM     14  C   UNL d   1     -41.652  13.911  21.544  0.00  0.00     0.034 A 
ATOM     15  C   UNL d   1     -41.032  14.344  21.221  0.00  0.00     0.020 A 
ATOM     16  C   UNL d   1     -40.950  14.403  20.394  0.00  0.00     0.064 A 
ATOM     17  C   UNL d   1     -41.489  14.028  19.898  0.00  0.00     0.020 A 
ATOM     18  C   UNL d   1     -42.110  13.594  20.221  0.00  0.00     0.034 A 
BRANCH  16  19
ATOM     19  N   UNL d   1     -40.322  14.842  20.071  0.00  0.00    -0.301 N 
ATOM     20  C   UNL d   1     -39.573  14.495  20.003  0.00  0.00     0.100 C 
ATOM     21  C   UNL d   1     -40.450  15.618  19.822  0.00  0.00     0.100 C 
ENDBRANCH  16  19
ENDBRANCH   2  13
TORSDOF 5
ENDMDL
MODEL 9
REMARK VINA RESULT:      -4.0      1.673      2.239
REMARK  5 active torsions:
REMARK  status: ('A' for Active; 'I' for Inactive)
REMARK    1  A    between atoms: C_3  and  C_1 
REMARK    2  A    between atoms: C_6  and  C_1 
REMARK    3  A    between atoms: C_2  and  C_3 
REMARK       I    between atoms: N_4  and  C_2 
REMARK    4  A    between atoms: C_12  and  N_4 
REMARK    5  A    between atoms: N_7  and  C_5 
ROOT
ATOM      1  C   UNL d   1     -47.489  12.857  22.915  0.00  0.00     0.328 C 
ATOM      2  N   UNL d   1     -46.706  12.850  22.658  0.00  0.00    -0.365 NA
ATOM      3  O   UNL d   1     -47.669  12.666  23.698  0.00  0.00    -0.251 OA
ENDROOT
BRANCH   1   4
ATOM      4  C   UNL d   1     -48.091  13.053  22.390  0.00  0.00     0.076 C 
BRANCH   4   5
ATOM      5  C   UNL d   1     -48.641  13.632  22.594  0.00  0.00     0.007 C 
BRANCH   5   6
ATOM      6  C   UNL d   1     -49.358  13.684  22.185  0.00  0.00     0.011 A 
ATOM      7  C   UNL d   1     -49.784  14.395  22.185  0.00  0.00     0.058 A 
ATOM      8 CL   UNL d   1     -49.494  15.050  22.592  0.00  0.00    -0.082 Cl
ATOM      9  C   UNL d   1     -50.504  14.445  21.775  0.00  0.00     0.011 A 
ATOM     10  C   UNL d   1     -50.792  13.786  21.369  0.00  0.00     0.001 A 
ATOM     11  C   UNL d   1     -50.362  13.082  21.374  0.00  0.00     0.000 A 
ATOM     12  C   UNL d   1     -49.648  13.029  21.780  0.00  0.00     0.001 A 
ENDBRANCH   5   6
ENDBRANCH   4   5
ENDBRANCH   1   4
BRANCH   2  13
ATOM     13  C   UNL d   1     -45.925  12.844  22.402  0.00  0.00     0.135 A 
ATOM     14  C   UNL d   1     -45.552  13.559  22.215  0.00  0.00     0.034 A 
ATOM     15  C   UNL d   1     -44.770  13.553  21.959  0.00  0.00     0.020 A 
ATOM     16  C   UNL d   1     -44.360  12.831  21.888  0.00  0.00     0.064 A 
ATOM     17  C   UNL d   1     -44.736  12.123  22.075  0.00  0.00     0.020 A 
ATOM     18  C   UNL d   1     -45.519  12.129  22.332  0.00  0.00     0.034 A 
BRANCH  16  19
ATOM     19  N   UNL d   1     -43.571  12.828  21.629  0.00  0.00    -0.301 N 
ATOM     20  C   UNL d   1     -43.057  12.234  21.889  0.00  0.00     0.100 C 
ATOM     21  C   UNL d   1     -43.306  13.417  21.115  0.00  0.00     0.100 C 
ENDBRANCH  16  19
ENDBRANCH   2  13
TORSDOF 5
ENDMDL
