MODEL 1
REMARK VINA RESULT:       0.5      0.000      0.000
REMARK  4 active torsions:
REMARK  status: ('A' for Active; 'I' for Inactive)
REMARK    1  A    between atoms: S_2  and  N_1 
REMARK    2  A    between atoms: N_6  and  S_2 
REMARK    3  A    between atoms: C_10  and  C_3 
REMARK    4  A    between atoms: C_14  and  C_10 
ROOT
ATOM      1  N   UNL d   1      32.792  20.945 -22.833  0.00  0.00    -0.201 N 
ATOM      2  C   UNL d   1      32.787  20.156 -23.115  0.00  0.00     0.158 A 
ATOM      3  N   UNL d   1      32.930  20.180 -23.932  0.00  0.00    -0.226 NA
ATOM      4  C   UNL d   1      32.938  21.437 -23.475  0.00  0.00     0.095 A 
ATOM      5  C   UNL d   1      33.023  20.969 -24.151  0.00  0.00     0.100 A 
ATOM      6  C   UNL d   1      33.003  22.257 -23.524  0.00  0.00     0.020 A 
ATOM      7  C   UNL d   1      33.174  21.330 -24.878  0.00  0.00     0.021 A 
ATOM      8  C   UNL d   1      33.154  22.617 -24.250  0.00  0.00     0.002 A 
ATOM      9  C   UNL d   1      33.240  22.152 -24.931  0.00  0.00     0.002 A 
ENDROOT
BRANCH   1  10
ATOM     10  S   UNL d   1      32.674  21.179 -22.060  0.00  0.00     0.338 S 
ATOM     11  O   UNL d   1      32.112  21.728 -22.303  0.00  0.00    -0.181 OA
ATOM     12  O   UNL d   1      33.237  20.630 -21.813  0.00  0.00    -0.181 OA
BRANCH  10  13
ATOM     13  N   UNL d   1      32.564  21.405 -21.276  0.00  0.00    -0.212 N 
ATOM     14  C   UNL d   1      31.854  21.749 -21.043  0.00  0.00     0.120 A 
ATOM     15  C   UNL d   1      31.747  21.977 -20.250  0.00  0.00     0.142 A 
ATOM     16  O   UNL d   1      32.355  21.856 -19.705  0.00  0.00    -0.300 OA
ATOM     17  C   UNL d   1      33.057  21.514 -19.945  0.00  0.00     0.142 A 
ATOM     18  C   UNL d   1      33.167  21.288 -20.725  0.00  0.00     0.120 A 
ENDBRANCH  10  13
ENDBRANCH   1  10
BRANCH   2  19
ATOM     19  C   UNL d   1      32.660  19.478 -22.658  0.00  0.00     0.038 C 
BRANCH  19  20
ATOM     20  C   UNL d   1      32.626  18.743 -23.025  0.00  0.00     0.003 A 
ATOM     21  C   UNL d   1      33.239  18.200 -22.907  0.00  0.00     0.000 A 
ATOM     22  C   UNL d   1      33.205  17.465 -23.274  0.00  0.00     0.000 A 
ATOM     23  C   UNL d   1      32.573  17.268 -23.753  0.00  0.00     0.000 A 
ATOM     24  C   UNL d   1      31.957  17.814 -23.871  0.00  0.00     0.000 A 
ATOM     25  C   UNL d   1      31.989  18.552 -23.504  0.00  0.00     0.000 A 
ENDBRANCH  19  20
ENDBRANCH   2  19
TORSDOF 4
ENDMDL
MODEL 2
REMARK VINA RESULT:       2.9      1.150      3.882
REMARK  4 active torsions:
REMARK  status: ('A' for Active; 'I' for Inactive)
REMARK    1  A    between atoms: S_2  and  N_1 
REMARK    2  A    between atoms: N_6  and  S_2 
REMARK    3  A    between atoms: C_10  and  C_3 
REMARK    4  A    between atoms: C_14  and  C_10 
ROOT
ATOM      1  N   UNL d   1      32.832  20.524 -22.214  0.00  0.00    -0.201 N 
ATOM      2  C   UNL d   1      33.077  21.192 -22.657  0.00  0.00     0.158 A 
ATOM      3  N   UNL d   1      33.126  21.835 -22.135  0.00  0.00    -0.226 NA
ATOM      4  C   UNL d   1      32.734  20.766 -21.435  0.00  0.00     0.095 A 
ATOM      5  C   UNL d   1      32.914  21.570 -21.384  0.00  0.00     0.100 A 
ATOM      6  C   UNL d   1      32.502  20.347 -20.764  0.00  0.00     0.020 A 
ATOM      7  C   UNL d   1      32.860  21.954 -20.655  0.00  0.00     0.021 A 
ATOM      8  C   UNL d   1      32.448  20.730 -20.036  0.00  0.00     0.002 A 
ATOM      9  C   UNL d   1      32.628  21.538 -19.980  0.00  0.00     0.002 A 
ENDROOT
BRANCH   1  10
ATOM     10  S   UNL d   1      32.712  19.772 -22.507  0.00  0.00     0.338 S 
ATOM     11  O   UNL d   1      32.186  20.065 -23.068  0.00  0.00    -0.181 OA
ATOM     12  O   UNL d   1      33.239  19.475 -21.947  0.00  0.00    -0.181 OA
BRANCH  10  13
ATOM     13  N   UNL d   1      32.600  19.009 -22.794  0.00  0.00    -0.212 N 
ATOM     14  C   UNL d   1      33.073  18.393 -22.522  0.00  0.00     0.120 A 
ATOM     15  C   UNL d   1      32.956  17.622 -22.814  0.00  0.00     0.142 A 
ATOM     16  O   UNL d   1      32.366  17.484 -23.375  0.00  0.00    -0.300 OA
ATOM     17  C   UNL d   1      31.901  18.102 -23.640  0.00  0.00     0.142 A 
ATOM     18  C   UNL d   1      32.013  18.861 -23.355  0.00  0.00     0.120 A 
ENDBRANCH  10  13
ENDBRANCH   1  10
BRANCH   2  19
ATOM     19  C   UNL d   1      33.241  21.203 -23.468  0.00  0.00     0.038 C 
BRANCH  19  20
ATOM     20  C   UNL d   1      33.233  21.919 -23.873  0.00  0.00     0.003 A 
ATOM     21  C   UNL d   1      33.234  22.628 -23.445  0.00  0.00     0.000 A 
ATOM     22  C   UNL d   1      33.227  23.343 -23.849  0.00  0.00     0.000 A 
ATOM     23  C   UNL d   1      33.218  23.360 -24.667  0.00  0.00     0.000 A 
ATOM     24  C   UNL d   1      33.217  22.648 -25.095  0.00  0.00     0.000 A 
ATOM     25  C   UNL d   1      33.224  21.928 -24.692  0.00  0.00     0.000 A 
ENDBRANCH  19  20
ENDBRANCH   2  19
TORSDOF 4
ENDMDL
MODEL 3
REMARK VINA RESULT:       3.3      1.888      3.835
REMARK  4 active torsions:
REMARK  status: ('A' for Active; 'I' for Inactive)
REMARK    1  A    between atoms: S_2  and  N_1 
REMARK    2  A    between atoms: N_6  and  S_2 
REMARK    3  A    between atoms: C_10  and  C_3 
REMARK    4  A    between atoms: C_14  and  C_10 
ROOT
ATOM      1  N   UNL d   1      32.660  18.985 -23.009  0.00  0.00    -0.201 N 
ATOM      2  C   UNL d   1      32.832  19.499 -22.369  0.00  0.00     0.158 A 
ATOM      3  N   UNL d   1      33.076  20.225 -22.689  0.00  0.00    -0.226 NA
ATOM      4  C   UNL d   1      32.799  19.400 -23.704  0.00  0.00     0.095 A 
ATOM      5  C   UNL d   1      33.055  20.161 -23.511  0.00  0.00     0.100 A 
ATOM      6  C   UNL d   1      32.723  19.174 -24.493  0.00  0.00     0.020 A 
ATOM      7  C   UNL d   1      33.234  20.696 -24.113  0.00  0.00     0.021 A 
ATOM      8  C   UNL d   1      32.902  19.707 -25.096  0.00  0.00     0.002 A 
ATOM      9  C   UNL d   1      33.159  20.473 -24.906  0.00  0.00     0.002 A 
ENDROOT
BRANCH   1  10
ATOM     10  S   UNL d   1      32.401  18.214 -22.948  0.00  0.00     0.338 S 
ATOM     11  O   UNL d   1      31.630  18.474 -22.822  0.00  0.00    -0.181 OA
ATOM     12  O   UNL d   1      33.172  17.951 -23.073  0.00  0.00    -0.181 OA
BRANCH  10  13
ATOM     13  N   UNL d   1      32.152  17.432 -22.888  0.00  0.00    -0.212 N 
ATOM     14  C   UNL d   1      32.564  16.903 -22.411  0.00  0.00     0.120 A 
ATOM     15  C   UNL d   1      32.310  16.113 -22.353  0.00  0.00     0.142 A 
ATOM     16  O   UNL d   1      31.645  15.868 -22.776  0.00  0.00    -0.300 OA
ATOM     17  C   UNL d   1      31.241  16.399 -23.248  0.00  0.00     0.142 A 
ATOM     18  C   UNL d   1      31.488  17.177 -23.307  0.00  0.00     0.120 A 
ENDBRANCH  10  13
ENDBRANCH   1  10
BRANCH   2  19
ATOM     19  C   UNL d   1      32.769  19.312 -21.566  0.00  0.00     0.038 C 
BRANCH  19  20
ATOM     20  C   UNL d   1      32.713  19.918 -21.013  0.00  0.00     0.003 A 
ATOM     21  C   UNL d   1      32.121  20.490 -21.095  0.00  0.00     0.000 A 
ATOM     22  C   UNL d   1      32.064  21.095 -20.542  0.00  0.00     0.000 A 
ATOM     23  C   UNL d   1      32.587  21.136 -19.914  0.00  0.00     0.000 A 
ATOM     24  C   UNL d   1      33.181  20.561 -19.832  0.00  0.00     0.000 A 
ATOM     25  C   UNL d   1      33.240  19.952 -20.386  0.00  0.00     0.000 A 
ENDBRANCH  19  20
ENDBRANCH   2  19
TORSDOF 4
ENDMDL
