MODEL 1
REMARK VINA RESULT:     110.9      0.000      0.000
REMARK  9 active torsions:
REMARK  status: ('A' for Active; 'I' for Inactive)
REMARK    1  A    between atoms: C_2  and  N_1 
REMARK    2  A    between atoms: C_4  and  C_2 
REMARK    3  A    between atoms: C_6  and  C_2 
REMARK    4  A    between atoms: C_8  and  N_3 
REMARK       I    between atoms: C_5  and  N_7 
REMARK    5  A    between atoms: O_17  and  C_5 
REMARK    6  A    between atoms: N_7  and  C_6 
REMARK    7  A    between atoms: C_22  and  O_17 
REMARK    8  A    between atoms: O_26  and  C_21 
REMARK    9  A    between atoms: C_25  and  C_22 
ROOT
ATOM      1  C   UNL d   1     -58.135 -99.336 -42.782  0.00  0.00     0.107 C 
ENDROOT
BRANCH   1   2
ATOM      2  N   UNL d   1     -58.394 -99.362 -43.573  0.00  0.00    -0.298 N 
ATOM      3  C   UNL d   1     -58.877 -99.970 -43.827  0.00  0.00     0.100 A 
ATOM      4  C   UNL d   1     -59.136 -99.997 -44.618  0.00  0.00     0.100 A 
ATOM      5  N   UNL d   1     -58.901 -99.406 -45.144  0.00  0.00    -0.301 N 
ATOM      6  C   UNL d   1     -58.409 -98.792 -44.875  0.00  0.00     0.100 A 
ATOM      7  C   UNL d   1     -58.159 -98.771 -44.099  0.00  0.00     0.100 A 
BRANCH   5   8
ATOM      8  C   UNL d   1     -59.147 -99.423 -45.913  0.00  0.00     0.064 A 
ATOM      9  C   UNL d   1     -59.602-100.052 -46.191  0.00  0.00     0.020 A 
ATOM     10  C   UNL d   1     -59.851-100.066 -46.978  0.00  0.00     0.026 A 
ATOM     11  C   UNL d   1     -59.644 -99.449 -47.487  0.00  0.00     0.094 A 
ATOM     12  C   UNL d   1     -59.189 -98.820 -47.209  0.00  0.00     0.026 A 
ATOM     13  C   UNL d   1     -58.943 -98.810 -46.423  0.00  0.00     0.020 A 
BRANCH  11  14
ATOM     14  O   UNL d   1     -59.898 -99.466 -48.285  0.00  0.00    -0.328 OA
ATOM     15  C   UNL d   1     -59.767 -98.805 -48.758  0.00  0.00     0.181 C 
ENDBRANCH  11  14
ENDBRANCH   5   8
ENDBRANCH   1   2
BRANCH   1  16
ATOM     16  C   UNL d   1     -58.669 -99.553 -42.172  0.00  0.00     0.118 A 
ATOM     17  O   UNL d   1     -59.000 -99.126 -41.544  0.00  0.00    -0.304 OA
ATOM     18  C   UNL d   1     -59.491 -99.648 -41.125  0.00  0.00     0.123 A 
ATOM     19  C   UNL d   1     -59.464-100.379 -41.486  0.00  0.00     0.029 A 
ATOM     20  C   UNL d   1     -58.953-100.323 -42.137  0.00  0.00     0.028 A 
ENDBRANCH   1  16
BRANCH   1  21
ATOM     21  C   UNL d   1     -57.371 -99.102 -42.588  0.00  0.00     0.124 C 
BRANCH  21  22
ATOM     22  N   UNL d   1     -56.717 -99.481 -42.954  0.00  0.00    -0.183 NA
ATOM     23  C   UNL d   1     -56.579 -99.386 -43.749  0.00  0.00     0.392 C 
ATOM     24  O   UNL d   1     -57.085 -98.913 -44.203  0.00  0.00    -0.236 OA
BRANCH  23  25
ATOM     25  O   UNL d   1     -55.935 -99.761 -44.101  0.00  0.00    -0.256 OA
BRANCH  25  26
ATOM     26  C   UNL d   1     -55.453-100.260 -43.653  0.00  0.00     0.128 C 
BRANCH  26  27
ATOM     27  C   UNL d   1     -55.376-101.055 -43.860  0.00  0.00     0.025 A 
ATOM     28  C   UNL d   1     -54.919-101.560 -43.394  0.00  0.00     0.002 A 
ATOM     29  C   UNL d   1     -54.842-102.354 -43.601  0.00  0.00     0.000 A 
ATOM     30  C   UNL d   1     -55.221-102.644 -44.275  0.00  0.00     0.000 A 
ATOM     31  C   UNL d   1     -55.675-102.139 -44.738  0.00  0.00     0.000 A 
ATOM     32  C   UNL d   1     -55.755-101.343 -44.534  0.00  0.00     0.002 A 
ENDBRANCH  26  27
ENDBRANCH  25  26
ENDBRANCH  23  25
ENDBRANCH  21  22
ENDBRANCH   1  21
TORSDOF 9
ENDMDL
