MODEL 1
REMARK VINA RESULT:      -3.3      0.000      0.000
REMARK  2 active torsions:
REMARK  status: ('A' for Active; 'I' for Inactive)
REMARK    1  A    between atoms: C_8  and  C_6 
REMARK    2  A    between atoms: C_9  and  C_8 
ROOT
ATOM      1  N   UNL d   1      30.572  17.633 -24.528  0.00  0.00    -0.207 NA
ATOM      2  N   UNL d   1      30.350  16.116 -23.858  0.00  0.00    -0.240 NA
ATOM      3  C   UNL d   1      29.904  17.165 -24.421  0.00  0.00     0.297 A 
ATOM      4  C   UNL d   1      31.354  17.474 -24.325  0.00  0.00     0.086 A 
ATOM      5  C   UNL d   1      31.163  16.175 -23.751  0.00  0.00     0.083 A 
ATOM      6  C   UNL d   1      29.840  16.662 -24.197  0.00  0.00     0.144 A 
ATOM      7  C   UNL d   1      31.665  16.798 -23.959  0.00  0.00     0.035 A 
ATOM      8  O   UNL d   1      29.255  17.501 -24.684  0.00  0.00    -0.264 OA
ATOM      9  C   UNL d   1      32.470  16.748 -23.803  0.00  0.00     0.003 A 
ATOM     10  C   UNL d   1      31.468  15.504 -23.389  0.00  0.00     0.019 A 
ATOM     11  C   UNL d   1      31.858  18.100 -24.533  0.00  0.00     0.019 A 
ATOM     12  C   UNL d   1      32.670  18.046 -24.374  0.00  0.00     0.002 A 
ATOM     13  C   UNL d   1      32.273  15.454 -23.232  0.00  0.00     0.002 A 
ATOM     14  C   UNL d   1      32.775  16.077 -23.440  0.00  0.00     0.000 A 
ATOM     15  C   UNL d   1      32.970  17.369 -24.009  0.00  0.00     0.000 A 
ENDROOT
BRANCH   6  16
ATOM     16  C   UNL d   1      29.032  16.714 -24.355  0.00  0.00     0.088 C 
BRANCH  16  17
ATOM     17  C   UNL d   1      28.511  16.103 -24.126  0.00  0.00     0.299 C 
ATOM     18  O   UNL d   1      28.414  15.454 -24.620  0.00  0.00    -0.264 OA
ATOM     19  N   UNL d   1      28.095  16.147 -23.411  0.00  0.00    -0.102 N 
ENDBRANCH  16  17
ENDBRANCH   6  16
TORSDOF 2
ENDMDL
MODEL 2
REMARK VINA RESULT:      -3.1      0.815      1.753
REMARK  2 active torsions:
REMARK  status: ('A' for Active; 'I' for Inactive)
REMARK    1  A    between atoms: C_8  and  C_6 
REMARK    2  A    between atoms: C_9  and  C_8 
ROOT
ATOM      1  N   UNL d   1      31.169  15.865 -23.242  0.00  0.00    -0.207 NA
ATOM      2  N   UNL d   1      30.307  16.954 -24.173  0.00  0.00    -0.240 NA
ATOM      3  C   UNL d   1      30.364  15.966 -23.376  0.00  0.00     0.297 A 
ATOM      4  C   UNL d   1      31.803  16.294 -23.545  0.00  0.00     0.086 A 
ATOM      5  C   UNL d   1      31.064  17.226 -24.343  0.00  0.00     0.083 A 
ATOM      6  C   UNL d   1      30.087  16.331 -23.687  0.00  0.00     0.144 A 
ATOM      7  C   UNL d   1      31.788  16.939 -24.065  0.00  0.00     0.035 A 
ATOM      8  O   UNL d   1      29.927  15.453 -22.991  0.00  0.00    -0.264 OA
ATOM      9  C   UNL d   1      32.490  17.293 -24.303  0.00  0.00     0.003 A 
ATOM     10  C   UNL d   1      31.046  17.865 -24.858  0.00  0.00     0.019 A 
ATOM     11  C   UNL d   1      32.531  16.005 -23.266  0.00  0.00     0.019 A 
ATOM     12  C   UNL d   1      33.237  16.365 -23.508  0.00  0.00     0.002 A 
ATOM     13  C   UNL d   1      31.748  18.219 -25.097  0.00  0.00     0.002 A 
ATOM     14  C   UNL d   1      32.472  17.932 -24.819  0.00  0.00     0.000 A 
ATOM     15  C   UNL d   1      33.211  17.007 -24.027  0.00  0.00     0.000 A 
ENDROOT
BRANCH   6  16
ATOM     16  C   UNL d   1      29.383  15.975 -23.447  0.00  0.00     0.088 C 
BRANCH  16  17
ATOM     17  C   UNL d   1      28.651  16.207 -23.776  0.00  0.00     0.299 C 
ATOM     18  O   UNL d   1      28.392  15.849 -24.469  0.00  0.00    -0.264 OA
ATOM     19  N   UNL d   1      28.190  16.791 -23.412  0.00  0.00    -0.102 N 
ENDBRANCH  16  17
ENDBRANCH   6  16
TORSDOF 2
ENDMDL
MODEL 3
REMARK VINA RESULT:      -2.0      1.565      3.127
REMARK  2 active torsions:
REMARK  status: ('A' for Active; 'I' for Inactive)
REMARK    1  A    between atoms: C_8  and  C_6 
REMARK    2  A    between atoms: C_9  and  C_8 
ROOT
ATOM      1  N   UNL d   1      30.180  17.969 -24.696  0.00  0.00    -0.207 NA
ATOM      2  N   UNL d   1      31.601  17.339 -24.079  0.00  0.00    -0.240 NA
ATOM      3  C   UNL d   1      30.959  18.232 -24.715  0.00  0.00     0.297 A 
ATOM      4  C   UNL d   1      29.871  17.289 -24.350  0.00  0.00     0.086 A 
ATOM      5  C   UNL d   1      31.088  16.750 -23.821  0.00  0.00     0.083 A 
ATOM      6  C   UNL d   1      31.424  18.015 -24.507  0.00  0.00     0.144 A 
ATOM      7  C   UNL d   1      30.271  16.696 -23.931  0.00  0.00     0.035 A 
ATOM      8  O   UNL d   1      31.041  18.903 -25.096  0.00  0.00    -0.264 OA
ATOM      9  C   UNL d   1      29.855  16.055 -23.627  0.00  0.00     0.003 A 
ATOM     10  C   UNL d   1      31.487  16.164 -23.407  0.00  0.00     0.019 A 
ATOM     11  C   UNL d   1      29.049  17.234 -24.460  0.00  0.00     0.019 A 
ATOM     12  C   UNL d   1      28.634  16.587 -24.152  0.00  0.00     0.002 A 
ATOM     13  C   UNL d   1      31.073  15.523 -23.102  0.00  0.00     0.002 A 
ATOM     14  C   UNL d   1      30.255  15.469 -23.212  0.00  0.00     0.000 A 
ATOM     15  C   UNL d   1      29.042  16.001 -23.736  0.00  0.00     0.000 A 
ENDROOT
BRANCH   6  16
ATOM     16  C   UNL d   1      31.840  18.659 -24.814  0.00  0.00     0.088 C 
BRANCH  16  17
ATOM     17  C   UNL d   1      32.645  18.777 -24.628  0.00  0.00     0.299 C 
ATOM     18  O   UNL d   1      32.843  19.231 -23.973  0.00  0.00    -0.264 OA
ATOM     19  N   UNL d   1      33.241  18.441 -25.097  0.00  0.00    -0.102 N 
ENDBRANCH  16  17
ENDBRANCH   6  16
TORSDOF 2
ENDMDL
MODEL 4
REMARK VINA RESULT:      -2.0      4.016      5.367
REMARK  2 active torsions:
REMARK  status: ('A' for Active; 'I' for Inactive)
REMARK    1  A    between atoms: C_8  and  C_6 
REMARK    2  A    between atoms: C_9  and  C_8 
ROOT
ATOM      1  N   UNL d   1      33.123  19.737 -21.811  0.00  0.00    -0.207 NA
ATOM      2  N   UNL d   1      33.141  21.091 -22.791  0.00  0.00    -0.240 NA
ATOM      3  C   UNL d   1      33.104  20.542 -21.646  0.00  0.00     0.297 A 
ATOM      4  C   UNL d   1      33.158  19.358 -22.541  0.00  0.00     0.086 A 
ATOM      5  C   UNL d   1      33.173  20.519 -23.380  0.00  0.00     0.083 A 
ATOM      6  C   UNL d   1      33.110  20.985 -21.979  0.00  0.00     0.144 A 
ATOM      7  C   UNL d   1      33.183  19.696 -23.297  0.00  0.00     0.035 A 
ATOM      8  O   UNL d   1      33.072  20.694 -20.885  0.00  0.00    -0.264 OA
ATOM      9  C   UNL d   1      33.217  19.215 -23.962  0.00  0.00     0.003 A 
ATOM     10  C   UNL d   1      33.197  20.857 -24.128  0.00  0.00     0.019 A 
ATOM     11  C   UNL d   1      33.168  18.531 -22.457  0.00  0.00     0.019 A 
ATOM     12  C   UNL d   1      33.202  18.050 -23.131  0.00  0.00     0.002 A 
ATOM     13  C   UNL d   1      33.231  20.377 -24.793  0.00  0.00     0.002 A 
ATOM     14  C   UNL d   1      33.241  19.554 -24.711  0.00  0.00     0.000 A 
ATOM     15  C   UNL d   1      33.226  18.396 -23.880  0.00  0.00     0.000 A 
ENDROOT
BRANCH   6  16
ATOM     16  C   UNL d   1      33.076  21.466 -21.309  0.00  0.00     0.088 C 
BRANCH  16  17
ATOM     17  C   UNL d   1      32.783  22.246 -21.357  0.00  0.00     0.299 C 
ATOM     18  O   UNL d   1      33.241  22.826 -21.717  0.00  0.00    -0.264 OA
ATOM     19  N   UNL d   1      32.038  22.438 -21.047  0.00  0.00    -0.102 N 
ENDBRANCH  16  17
ENDBRANCH   6  16
TORSDOF 2
ENDMDL
MODEL 5
REMARK VINA RESULT:      -1.7      5.045      6.133
REMARK  2 active torsions:
REMARK  status: ('A' for Active; 'I' for Inactive)
REMARK    1  A    between atoms: C_8  and  C_6 
REMARK    2  A    between atoms: C_9  and  C_8 
ROOT
ATOM      1  N   UNL d   1      32.919  22.122 -22.965  0.00  0.00    -0.207 NA
ATOM      2  N   UNL d   1      32.920  21.697 -21.348  0.00  0.00    -0.240 NA
ATOM      3  C   UNL d   1      32.840  22.562 -22.275  0.00  0.00     0.297 A 
ATOM      4  C   UNL d   1      33.025  21.311 -23.053  0.00  0.00     0.086 A 
ATOM      5  C   UNL d   1      33.026  20.947 -21.667  0.00  0.00     0.083 A 
ATOM      6  C   UNL d   1      32.842  22.412 -21.742  0.00  0.00     0.144 A 
ATOM      7  C   UNL d   1      33.080  20.731 -22.464  0.00  0.00     0.035 A 
ATOM      8  O   UNL d   1      32.748  23.321 -22.410  0.00  0.00    -0.264 OA
ATOM      9  C   UNL d   1      33.187  19.942 -22.670  0.00  0.00     0.003 A 
ATOM     10  C   UNL d   1      33.080  20.374 -21.081  0.00  0.00     0.019 A 
ATOM     11  C   UNL d   1      33.080  21.093 -23.853  0.00  0.00     0.019 A 
ATOM     12  C   UNL d   1      33.188  20.297 -24.057  0.00  0.00     0.002 A 
ATOM     13  C   UNL d   1      33.187  19.587 -21.286  0.00  0.00     0.002 A 
ATOM     14  C   UNL d   1      33.241  19.370 -22.083  0.00  0.00     0.000 A 
ATOM     15  C   UNL d   1      33.241  19.727 -23.462  0.00  0.00     0.000 A 
ENDROOT
BRANCH   6  16
ATOM     16  C   UNL d   1      32.734  23.204 -21.536  0.00  0.00     0.088 C 
BRANCH  16  17
ATOM     17  C   UNL d   1      32.604  23.426 -20.742  0.00  0.00     0.299 C 
ATOM     18  O   UNL d   1      31.842  23.394 -20.436  0.00  0.00    -0.264 OA
ATOM     19  N   UNL d   1      33.233  23.677 -20.264  0.00  0.00    -0.102 N 
ENDBRANCH  16  17
ENDBRANCH   6  16
TORSDOF 2
ENDMDL
MODEL 6
REMARK VINA RESULT:      -1.5      3.247      4.392
REMARK  2 active torsions:
REMARK  status: ('A' for Active; 'I' for Inactive)
REMARK    1  A    between atoms: C_8  and  C_6 
REMARK    2  A    between atoms: C_9  and  C_8 
ROOT
ATOM      1  N   UNL d   1      33.181  19.856 -23.898  0.00  0.00    -0.207 NA
ATOM      2  N   UNL d   1      33.184  18.921 -22.512  0.00  0.00    -0.240 NA
ATOM      3  C   UNL d   1      33.168  19.043 -23.776  0.00  0.00     0.297 A 
ATOM      4  C   UNL d   1      33.200  20.463 -23.342  0.00  0.00     0.086 A 
ATOM      5  C   UNL d   1      33.203  19.661 -22.155  0.00  0.00     0.083 A 
ATOM      6  C   UNL d   1      33.169  18.741 -23.311  0.00  0.00     0.144 A 
ATOM      7  C   UNL d   1      33.211  20.405 -22.515  0.00  0.00     0.035 A 
ATOM      8  O   UNL d   1      33.151  18.639 -24.439  0.00  0.00    -0.264 OA
ATOM      9  C   UNL d   1      33.230  21.086 -22.055  0.00  0.00     0.003 A 
ATOM     10  C   UNL d   1      33.213  19.601 -21.336  0.00  0.00     0.019 A 
ATOM     11  C   UNL d   1      33.208  21.211 -23.704  0.00  0.00     0.019 A 
ATOM     12  C   UNL d   1      33.227  21.895 -23.236  0.00  0.00     0.002 A 
ATOM     13  C   UNL d   1      33.232  20.280 -20.875  0.00  0.00     0.002 A 
ATOM     14  C   UNL d   1      33.240  21.025 -21.235  0.00  0.00     0.000 A 
ATOM     15  C   UNL d   1      33.238  21.826 -22.413  0.00  0.00     0.000 A 
ENDROOT
BRANCH   6  16
ATOM     16  C   UNL d   1      33.151  18.059 -23.775  0.00  0.00     0.088 C 
BRANCH  16  17
ATOM     17  C   UNL d   1      32.765  17.369 -23.506  0.00  0.00     0.299 C 
ATOM     18  O   UNL d   1      33.171  16.849 -23.016  0.00  0.00    -0.264 OA
ATOM     19  N   UNL d   1      31.984  17.207 -23.728  0.00  0.00    -0.102 N 
ENDBRANCH  16  17
ENDBRANCH   6  16
TORSDOF 2
ENDMDL
MODEL 7
REMARK VINA RESULT:      -1.5      2.628      3.782
REMARK  2 active torsions:
REMARK  status: ('A' for Active; 'I' for Inactive)
REMARK    1  A    between atoms: C_8  and  C_6 
REMARK    2  A    between atoms: C_9  and  C_8 
ROOT
ATOM      1  N   UNL d   1      32.976  18.162 -22.715  0.00  0.00    -0.207 NA
ATOM      2  N   UNL d   1      33.049  18.108 -24.385  0.00  0.00    -0.240 NA
ATOM      3  C   UNL d   1      32.952  17.540 -23.253  0.00  0.00     0.297 A 
ATOM      4  C   UNL d   1      33.047  18.969 -22.860  0.00  0.00     0.086 A 
ATOM      5  C   UNL d   1      33.109  18.922 -24.290  0.00  0.00     0.083 A 
ATOM      6  C   UNL d   1      32.976  17.532 -23.806  0.00  0.00     0.144 A 
ATOM      7  C   UNL d   1      33.111  19.359 -23.588  0.00  0.00     0.035 A 
ATOM      8  O   UNL d   1      32.881  16.847 -22.909  0.00  0.00    -0.264 OA
ATOM      9  C   UNL d   1      33.177  20.178 -23.613  0.00  0.00     0.003 A 
ATOM     10  C   UNL d   1      33.172  19.306 -25.014  0.00  0.00     0.019 A 
ATOM     11  C   UNL d   1      33.050  19.408 -22.155  0.00  0.00     0.019 A 
ATOM     12  C   UNL d   1      33.116  20.234 -22.183  0.00  0.00     0.002 A 
ATOM     13  C   UNL d   1      33.238  20.124 -25.039  0.00  0.00     0.002 A 
ATOM     14  C   UNL d   1      33.241  20.561 -24.337  0.00  0.00     0.000 A 
ATOM     15  C   UNL d   1      33.180  20.613 -22.914  0.00  0.00     0.000 A 
ENDROOT
BRANCH   6  16
ATOM     16  C   UNL d   1      32.910  16.710 -23.779  0.00  0.00     0.088 C 
BRANCH  16  17
ATOM     17  C   UNL d   1      32.707  16.274 -24.462  0.00  0.00     0.299 C 
ATOM     18  O   UNL d   1      32.033  16.481 -24.884  0.00  0.00    -0.264 OA
ATOM     19  N   UNL d   1      33.177  15.640 -24.715  0.00  0.00    -0.102 N 
ENDBRANCH  16  17
ENDBRANCH   6  16
TORSDOF 2
ENDMDL
MODEL 8
REMARK VINA RESULT:      -1.4      4.201      5.600
REMARK  2 active torsions:
REMARK  status: ('A' for Active; 'I' for Inactive)
REMARK    1  A    between atoms: C_8  and  C_6 
REMARK    2  A    between atoms: C_9  and  C_8 
ROOT
ATOM      1  N   UNL d   1      32.995  20.254 -21.634  0.00  0.00    -0.207 NA
ATOM      2  N   UNL d   1      33.224  20.704 -23.228  0.00  0.00    -0.240 NA
ATOM      3  C   UNL d   1      33.109  19.820 -22.323  0.00  0.00     0.297 A 
ATOM      4  C   UNL d   1      32.961  21.070 -21.535  0.00  0.00     0.086 A 
ATOM      5  C   UNL d   1      33.157  21.455 -22.901  0.00  0.00     0.083 A 
ATOM      6  C   UNL d   1      33.184  19.978 -22.848  0.00  0.00     0.144 A 
ATOM      7  C   UNL d   1      33.033  21.663 -22.110  0.00  0.00     0.035 A 
ATOM      8  O   UNL d   1      33.108  19.053 -22.200  0.00  0.00    -0.264 OA
ATOM      9  C   UNL d   1      32.982  22.454 -21.895  0.00  0.00     0.003 A 
ATOM     10  C   UNL d   1      33.229  22.040 -23.473  0.00  0.00     0.019 A 
ATOM     11  C   UNL d   1      32.836  21.279 -20.741  0.00  0.00     0.019 A 
ATOM     12  C   UNL d   1      32.785  22.078 -20.527  0.00  0.00     0.002 A 
ATOM     13  C   UNL d   1      33.178  22.831 -23.259  0.00  0.00     0.002 A 
ATOM     14  C   UNL d   1      33.054  23.039 -22.468  0.00  0.00     0.000 A 
ATOM     15  C   UNL d   1      32.859  22.661 -21.108  0.00  0.00     0.000 A 
ENDROOT
BRANCH   6  16
ATOM     16  C   UNL d   1      33.235  19.183 -23.062  0.00  0.00     0.088 C 
BRANCH  16  17
ATOM     17  C   UNL d   1      32.877  18.905 -23.764  0.00  0.00     0.299 C 
ATOM     18  O   UNL d   1      33.180  19.143 -24.490  0.00  0.00    -0.264 OA
ATOM     19  N   UNL d   1      32.225  18.394 -23.733  0.00  0.00    -0.102 N 
ENDBRANCH  16  17
ENDBRANCH   6  16
TORSDOF 2
ENDMDL
MODEL 9
REMARK VINA RESULT:      -0.8      2.573      3.756
REMARK  2 active torsions:
REMARK  status: ('A' for Active; 'I' for Inactive)
REMARK    1  A    between atoms: C_8  and  C_6 
REMARK    2  A    between atoms: C_9  and  C_8 
ROOT
ATOM      1  N   UNL d   1      32.840  17.573 -22.490  0.00  0.00    -0.207 NA
ATOM      2  N   UNL d   1      32.243  18.558 -23.702  0.00  0.00    -0.240 NA
ATOM      3  C   UNL d   1      32.864  18.387 -22.607  0.00  0.00     0.297 A 
ATOM      4  C   UNL d   1      32.497  16.992 -22.961  0.00  0.00     0.086 A 
ATOM      5  C   UNL d   1      31.986  17.836 -23.999  0.00  0.00     0.083 A 
ATOM      6  C   UNL d   1      32.663  18.705 -23.013  0.00  0.00     0.144 A 
ATOM      7  C   UNL d   1      32.088  17.082 -23.676  0.00  0.00     0.035 A 
ATOM      8  O   UNL d   1      33.240  18.762 -22.040  0.00  0.00    -0.264 OA
ATOM      9  C   UNL d   1      31.785  16.423 -24.063  0.00  0.00     0.003 A 
ATOM     10  C   UNL d   1      31.581  17.929 -24.708  0.00  0.00     0.019 A 
ATOM     11  C   UNL d   1      32.599  16.234 -22.636  0.00  0.00     0.019 A 
ATOM     12  C   UNL d   1      32.292  15.572 -23.030  0.00  0.00     0.002 A 
ATOM     13  C   UNL d   1      31.278  17.271 -25.095  0.00  0.00     0.002 A 
ATOM     14  C   UNL d   1      31.381  16.517 -24.772  0.00  0.00     0.000 A 
ATOM     15  C   UNL d   1      31.887  15.672 -23.742  0.00  0.00     0.000 A 
ENDROOT
BRANCH   6  16
ATOM     16  C   UNL d   1      32.968  19.365 -22.623  0.00  0.00     0.088 C 
BRANCH  16  17
ATOM     17  C   UNL d   1      32.894  20.129 -22.952  0.00  0.00     0.299 C 
ATOM     18  O   UNL d   1      33.181  20.269 -23.709  0.00  0.00    -0.264 OA
ATOM     19  N   UNL d   1      32.535  20.741 -22.523  0.00  0.00    -0.102 N 
ENDBRANCH  16  17
ENDBRANCH   6  16
TORSDOF 2
ENDMDL
