MODEL 1
REMARK VINA RESULT:      42.6      0.000      0.000
REMARK  3 active torsions:
REMARK  status: ('A' for Active; 'I' for Inactive)
REMARK    1  A    between atoms: C_13  and  C_5 
REMARK       I    between atoms: C_7  and  N_12 
REMARK    2  A    between atoms: C_10  and  C_7 
REMARK    3  A    between atoms: N_12  and  C_15 
ROOT
ATOM      1  C   UNL d   1     -54.782-101.918 -41.362  0.00  0.00     0.021 A 
ATOM      2  C   UNL d   1     -54.755-101.371 -42.690  0.00  0.00     0.085 A 
ATOM      3  C   UNL d   1     -54.739-101.264 -41.872  0.00  0.00     0.021 A 
ATOM      4  C   UNL d   1     -54.840-102.674 -41.680  0.00  0.00     0.002 A 
ATOM      5  C   UNL d   1     -54.857-102.791 -42.489  0.00  0.00     0.002 A 
ATOM      6  C   UNL d   1     -54.815-102.136 -42.999  0.00  0.00     0.019 A 
ENDROOT
BRANCH   1   7
ATOM      7  C   UNL d   1     -54.764-101.797 -40.547  0.00  0.00     0.102 A 
ATOM      8  N   UNL d   1     -54.757-102.462 -40.047  0.00  0.00    -0.162 NA
ATOM      9  N   UNL d   1     -54.739-102.347 -39.220  0.00  0.00    -0.189 N 
ATOM     10  C   UNL d   1     -54.729-101.578 -38.901  0.00  0.00     0.187 A 
ATOM     11  C   UNL d   1     -54.729-102.879 -38.602  0.00  0.00     0.224 A 
ATOM     12  N   UNL d   1     -54.712-101.661 -38.099  0.00  0.00    -0.127 NA
ATOM     13  C   UNL d   1     -54.737-100.925 -39.423  0.00  0.00     0.042 A 
ATOM     14  N   UNL d   1     -54.712-102.459 -37.906  0.00  0.00    -0.124 NA
ATOM     15  C   UNL d   1     -54.754-101.041 -40.244  0.00  0.00     0.024 A 
ENDBRANCH   1   7
BRANCH   2  16
ATOM     16  N   UNL d   1     -54.713-100.725 -43.193  0.00  0.00    -0.206 NA
ATOM     17  C   UNL d   1     -55.001-100.785 -43.959  0.00  0.00     0.302 C 
ATOM     18  O   UNL d   1     -55.333-101.492 -44.230  0.00  0.00    -0.263 OA
BRANCH  17  19
ATOM     19  C   UNL d   1     -54.959-100.137 -44.464  0.00  0.00     0.158 A 
ATOM     20  O   UNL d   1     -54.757-100.152 -45.260  0.00  0.00    -0.300 OA
ATOM     21  C   UNL d   1     -54.785 -99.383 -45.549  0.00  0.00     0.123 A 
ATOM     22  C   UNL d   1     -55.007 -98.881 -44.924  0.00  0.00     0.029 A 
ATOM     23  C   UNL d   1     -55.113 -99.347 -44.257  0.00  0.00     0.032 A 
ENDBRANCH  17  19
ENDBRANCH   2  16
TORSDOF 3
ENDMDL
