MODEL 1
REMARK VINA RESULT:      -8.1      0.000      0.000
REMARK  4 active torsions:
REMARK  status: ('A' for Active; 'I' for Inactive)
REMARK    1  A    between atoms: C_4  and  C_1 
REMARK       I    between atoms: N_9  and  C_4 
REMARK    2  A    between atoms: C_7  and  C_13 
REMARK    3  A    between atoms: C_12  and  N_9 
REMARK    4  A    between atoms: C_13  and  C_12 
ROOT
ATOM      1  C   UNL d   1      53.043  31.289  53.207  0.00  0.00     0.302 C 
ATOM      2  O   UNL d   1      52.677  31.496  52.513  0.00  0.00    -0.263 OA
ATOM      3  N   UNL d   1      53.399  31.882  53.682  0.00  0.00    -0.205 NA
ENDROOT
BRANCH   3   4
ATOM      4  C   UNL d   1      53.368  32.660  53.434  0.00  0.00     0.102 C 
BRANCH   4   5
ATOM      5  C   UNL d   1      53.831  33.237  53.807  0.00  0.00     0.021 C 
BRANCH   5   6
ATOM      6  C   UNL d   1      53.510  33.969  53.995  0.00  0.00     0.002 A 
ATOM      7  C   UNL d   1      53.575  34.258  54.775  0.00  0.00     0.000 A 
ATOM      8  C   UNL d   1      53.257  34.992  54.975  0.00  0.00     0.000 A 
ATOM      9  C   UNL d   1      52.870  35.449  54.405  0.00  0.00     0.000 A 
ATOM     10  C   UNL d   1      52.807  35.163  53.640  0.00  0.00     0.000 A 
ATOM     11  C   UNL d   1      53.128  34.423  53.438  0.00  0.00     0.000 A 
ENDBRANCH   5   6
ENDBRANCH   4   5
ENDBRANCH   3   4
BRANCH   1  12
ATOM     12  C   UNL d   1      53.071  30.503  53.452  0.00  0.00     0.158 A 
ATOM     13  O   UNL d   1      53.336  30.190  54.171  0.00  0.00    -0.296 OA
ATOM     14  C   UNL d   1      53.254  29.365  54.157  0.00  0.00     0.134 A 
ATOM     15 BR   UNL d   1      53.457  28.846  54.771  0.00  0.00    -0.022 Br
ATOM     16  C   UNL d   1      52.935  29.169  53.420  0.00  0.00     0.034 A 
ATOM     17  C   UNL d   1      52.822  29.857  52.990  0.00  0.00     0.032 A 
ENDBRANCH   1  12
TORSDOF 4
ENDMDL
MODEL 2
REMARK VINA RESULT:      -7.7      3.222      4.362
REMARK  4 active torsions:
REMARK  status: ('A' for Active; 'I' for Inactive)
REMARK    1  A    between atoms: C_4  and  C_1 
REMARK       I    between atoms: N_9  and  C_4 
REMARK    2  A    between atoms: C_7  and  C_13 
REMARK    3  A    between atoms: C_12  and  N_9 
REMARK    4  A    between atoms: C_13  and  C_12 
ROOT
ATOM      1  C   UNL d   1      50.769  33.929  53.088  0.00  0.00     0.302 C 
ATOM      2  O   UNL d   1      50.697  33.150  53.302  0.00  0.00    -0.263 OA
ATOM      3  N   UNL d   1      51.509  34.317  53.172  0.00  0.00    -0.205 NA
ENDROOT
BRANCH   3   4
ATOM      4  C   UNL d   1      52.144  33.898  53.470  0.00  0.00     0.102 C 
BRANCH   4   5
ATOM      5  C   UNL d   1      52.882  34.263  53.558  0.00  0.00     0.021 C 
BRANCH   5   6
ATOM      6  C   UNL d   1      53.492  33.877  53.947  0.00  0.00     0.002 A 
ATOM      7  C   UNL d   1      53.702  34.113  54.719  0.00  0.00     0.000 A 
ATOM      8  C   UNL d   1      54.313  33.733  55.121  0.00  0.00     0.000 A 
ATOM      9  C   UNL d   1      54.725  33.112  54.762  0.00  0.00     0.000 A 
ATOM     10  C   UNL d   1      54.518  32.881  54.004  0.00  0.00     0.000 A 
ATOM     11  C   UNL d   1      53.902  33.265  53.600  0.00  0.00     0.000 A 
ENDBRANCH   5   6
ENDBRANCH   4   5
ENDBRANCH   3   4
BRANCH   1  12
ATOM     12  C   UNL d   1      50.125  34.347  52.788  0.00  0.00     0.158 A 
ATOM     13  O   UNL d   1      49.615  34.869  53.178  0.00  0.00    -0.296 OA
ATOM     14  C   UNL d   1      49.050  35.152  52.641  0.00  0.00     0.134 A 
ATOM     15 BR   UNL d   1      48.440  35.687  52.813  0.00  0.00    -0.022 Br
ATOM     16  C   UNL d   1      49.215  34.799  51.912  0.00  0.00     0.034 A 
ATOM     17  C   UNL d   1      49.867  34.310  51.998  0.00  0.00     0.032 A 
ENDBRANCH   1  12
TORSDOF 4
ENDMDL
MODEL 3
REMARK VINA RESULT:      -7.5      2.055      4.479
REMARK  4 active torsions:
REMARK  status: ('A' for Active; 'I' for Inactive)
REMARK    1  A    between atoms: C_4  and  C_1 
REMARK       I    between atoms: N_9  and  C_4 
REMARK    2  A    between atoms: C_7  and  C_13 
REMARK    3  A    between atoms: C_12  and  N_9 
REMARK    4  A    between atoms: C_13  and  C_12 
ROOT
ATOM      1  C   UNL d   1      52.225  33.121  53.320  0.00  0.00     0.302 C 
ATOM      2  O   UNL d   1      51.448  32.914  53.212  0.00  0.00    -0.263 OA
ATOM      3  N   UNL d   1      52.823  32.535  53.266  0.00  0.00    -0.205 NA
ENDROOT
BRANCH   3   4
ATOM      4  C   UNL d   1      52.608  31.764  53.105  0.00  0.00     0.102 C 
BRANCH   4   5
ATOM      5  C   UNL d   1      53.188  31.188  52.967  0.00  0.00     0.021 C 
BRANCH   5   6
ATOM      6  C   UNL d   1      53.123  30.445  53.309  0.00  0.00     0.002 A 
ATOM      7  C   UNL d   1      53.626  30.239  53.943  0.00  0.00     0.000 A 
ATOM      8  C   UNL d   1      53.571  29.496  54.295  0.00  0.00     0.000 A 
ATOM      9  C   UNL d   1      53.016  28.946  54.024  0.00  0.00     0.000 A 
ATOM     10  C   UNL d   1      52.524  29.149  53.402  0.00  0.00     0.000 A 
ATOM     11  C   UNL d   1      52.579  29.898  53.047  0.00  0.00     0.000 A 
ENDBRANCH   5   6
ENDBRANCH   4   5
ENDBRANCH   3   4
BRANCH   1  12
ATOM     12  C   UNL d   1      52.436  33.901  53.482  0.00  0.00     0.158 A 
ATOM     13  O   UNL d   1      52.719  34.229  54.188  0.00  0.00    -0.296 OA
ATOM     14  C   UNL d   1      52.853  35.040  54.077  0.00  0.00     0.134 A 
ATOM     15 BR   UNL d   1      53.137  35.568  54.651  0.00  0.00    -0.022 Br
ATOM     16  C   UNL d   1      52.650  35.212  53.295  0.00  0.00     0.034 A 
ATOM     17  C   UNL d   1      52.397  34.524  52.931  0.00  0.00     0.032 A 
ENDBRANCH   1  12
TORSDOF 4
ENDMDL
MODEL 4
REMARK VINA RESULT:      -7.4      2.772      3.578
REMARK  4 active torsions:
REMARK  status: ('A' for Active; 'I' for Inactive)
REMARK    1  A    between atoms: C_4  and  C_1 
REMARK       I    between atoms: N_9  and  C_4 
REMARK    2  A    between atoms: C_7  and  C_13 
REMARK    3  A    between atoms: C_12  and  N_9 
REMARK    4  A    between atoms: C_13  and  C_12 
ROOT
ATOM      1  C   UNL d   1      52.609  32.966  53.350  0.00  0.00     0.302 C 
ATOM      2  O   UNL d   1      52.243  32.270  53.152  0.00  0.00    -0.263 OA
ATOM      3  N   UNL d   1      52.241  33.697  53.162  0.00  0.00    -0.205 NA
ENDROOT
BRANCH   3   4
ATOM      4  C   UNL d   1      51.519  33.691  52.780  0.00  0.00     0.102 C 
BRANCH   4   5
ATOM      5  C   UNL d   1      51.248  34.368  52.387  0.00  0.00     0.021 C 
BRANCH   5   6
ATOM      6  C   UNL d   1      50.448  34.463  52.229  0.00  0.00     0.002 A 
ATOM      7  C   UNL d   1      50.151  34.265  51.475  0.00  0.00     0.000 A 
ATOM      8  C   UNL d   1      49.350  34.357  51.305  0.00  0.00     0.000 A 
ATOM      9  C   UNL d   1      48.831  34.646  51.880  0.00  0.00     0.000 A 
ATOM     10  C   UNL d   1      49.124  34.839  52.620  0.00  0.00     0.000 A 
ATOM     11  C   UNL d   1      49.932  34.747  52.792  0.00  0.00     0.000 A 
ENDBRANCH   5   6
ENDBRANCH   4   5
ENDBRANCH   3   4
BRANCH   1  12
ATOM     12  C   UNL d   1      53.337  32.967  53.735  0.00  0.00     0.158 A 
ATOM     13  O   UNL d   1      53.565  33.371  54.421  0.00  0.00    -0.296 OA
ATOM     14  C   UNL d   1      54.357  33.194  54.591  0.00  0.00     0.134 A 
ATOM     15 BR   UNL d   1      54.793  33.488  55.233  0.00  0.00    -0.022 Br
ATOM     16  C   UNL d   1      54.619  32.676  54.003  0.00  0.00     0.034 A 
ATOM     17  C   UNL d   1      54.003  32.536  53.482  0.00  0.00     0.032 A 
ENDBRANCH   1  12
TORSDOF 4
ENDMDL
MODEL 5
REMARK VINA RESULT:      -7.4      2.443      4.554
REMARK  4 active torsions:
REMARK  status: ('A' for Active; 'I' for Inactive)
REMARK    1  A    between atoms: C_4  and  C_1 
REMARK       I    between atoms: N_9  and  C_4 
REMARK    2  A    between atoms: C_7  and  C_13 
REMARK    3  A    between atoms: C_12  and  N_9 
REMARK    4  A    between atoms: C_13  and  C_12 
ROOT
ATOM      1  C   UNL d   1      52.256  33.082  53.201  0.00  0.00     0.302 C 
ATOM      2  O   UNL d   1      52.762  33.294  53.798  0.00  0.00    -0.263 OA
ATOM      3  N   UNL d   1      52.307  32.314  52.866  0.00  0.00    -0.205 NA
ENDROOT
BRANCH   3   4
ATOM      4  C   UNL d   1      52.869  31.794  53.151  0.00  0.00     0.102 C 
BRANCH   4   5
ATOM      5  C   UNL d   1      52.966  31.050  52.800  0.00  0.00     0.021 C 
BRANCH   5   6
ATOM      6  C   UNL d   1      53.094  30.386  53.265  0.00  0.00     0.002 A 
ATOM      7  C   UNL d   1      52.517  29.784  53.290  0.00  0.00     0.000 A 
ATOM      8  C   UNL d   1      52.634  29.112  53.753  0.00  0.00     0.000 A 
ATOM      9  C   UNL d   1      53.325  29.028  54.200  0.00  0.00     0.000 A 
ATOM     10  C   UNL d   1      53.891  29.620  54.175  0.00  0.00     0.000 A 
ATOM     11  C   UNL d   1      53.773  30.297  53.707  0.00  0.00     0.000 A 
ENDBRANCH   5   6
ENDBRANCH   4   5
ENDBRANCH   3   4
BRANCH   1  12
ATOM     12  C   UNL d   1      51.691  33.610  52.917  0.00  0.00     0.158 A 
ATOM     13  O   UNL d   1      50.891  33.676  53.120  0.00  0.00    -0.296 OA
ATOM     14  C   UNL d   1      50.549  34.294  52.684  0.00  0.00     0.134 A 
ATOM     15 BR   UNL d   1      49.757  34.538  52.726  0.00  0.00    -0.022 Br
ATOM     16  C   UNL d   1      51.146  34.611  52.210  0.00  0.00     0.034 A 
ATOM     17  C   UNL d   1      51.840  34.199  52.348  0.00  0.00     0.032 A 
ENDBRANCH   1  12
TORSDOF 4
ENDMDL
MODEL 6
REMARK VINA RESULT:      -7.3      1.543      1.832
REMARK  4 active torsions:
REMARK  status: ('A' for Active; 'I' for Inactive)
REMARK    1  A    between atoms: C_4  and  C_1 
REMARK       I    between atoms: N_9  and  C_4 
REMARK    2  A    between atoms: C_7  and  C_13 
REMARK    3  A    between atoms: C_12  and  N_9 
REMARK    4  A    between atoms: C_13  and  C_12 
ROOT
ATOM      1  C   UNL d   1      53.319  31.474  53.378  0.00  0.00     0.302 C 
ATOM      2  O   UNL d   1      54.031  31.826  53.213  0.00  0.00    -0.263 OA
ATOM      3  N   UNL d   1      52.616  31.932  53.365  0.00  0.00    -0.205 NA
ENDROOT
BRANCH   3   4
ATOM      4  C   UNL d   1      52.665  32.728  53.184  0.00  0.00     0.102 C 
BRANCH   4   5
ATOM      5  C   UNL d   1      52.141  33.268  53.530  0.00  0.00     0.021 C 
BRANCH   5   6
ATOM      6  C   UNL d   1      51.595  33.670  53.068  0.00  0.00     0.002 A 
ATOM      7  C   UNL d   1      50.793  33.686  53.300  0.00  0.00     0.000 A 
ATOM      8  C   UNL d   1      50.235  34.086  52.844  0.00  0.00     0.000 A 
ATOM      9  C   UNL d   1      50.464  34.476  52.151  0.00  0.00     0.000 A 
ATOM     10  C   UNL d   1      51.251  34.459  51.925  0.00  0.00     0.000 A 
ATOM     11  C   UNL d   1      51.813  34.055  52.385  0.00  0.00     0.000 A 
ENDBRANCH   5   6
ENDBRANCH   4   5
ENDBRANCH   3   4
BRANCH   1  12
ATOM     12  C   UNL d   1      53.276  30.672  53.559  0.00  0.00     0.158 A 
ATOM     13  O   UNL d   1      53.460  30.287  54.269  0.00  0.00    -0.296 OA
ATOM     14  C   UNL d   1      53.327  29.473  54.180  0.00  0.00     0.134 A 
ATOM     15 BR   UNL d   1      53.444  28.895  54.764  0.00  0.00    -0.022 Br
ATOM     16  C   UNL d   1      53.059  29.357  53.408  0.00  0.00     0.034 A 
ATOM     17  C   UNL d   1      53.027  30.081  53.028  0.00  0.00     0.032 A 
ENDBRANCH   1  12
TORSDOF 4
ENDMDL
MODEL 7
REMARK VINA RESULT:      -6.7      5.084      6.293
REMARK  4 active torsions:
REMARK  status: ('A' for Active; 'I' for Inactive)
REMARK    1  A    between atoms: C_4  and  C_1 
REMARK       I    between atoms: N_9  and  C_4 
REMARK    2  A    between atoms: C_7  and  C_13 
REMARK    3  A    between atoms: C_12  and  N_9 
REMARK    4  A    between atoms: C_13  and  C_12 
ROOT
ATOM      1  C   UNL d   1      48.458  34.963  51.570  0.00  0.00     0.302 C 
ATOM      2  O   UNL d   1      48.743  34.631  50.887  0.00  0.00    -0.263 OA
ATOM      3  N   UNL d   1      48.918  34.932  52.271  0.00  0.00    -0.205 NA
ENDROOT
BRANCH   3   4
ATOM      4  C   UNL d   1      49.648  34.565  52.250  0.00  0.00     0.102 C 
BRANCH   4   5
ATOM      5  C   UNL d   1      50.126  34.548  52.926  0.00  0.00     0.021 C 
BRANCH   5   6
ATOM      6  C   UNL d   1      50.835  34.134  52.921  0.00  0.00     0.002 A 
ATOM      7  C   UNL d   1      50.858  33.354  53.215  0.00  0.00     0.000 A 
ATOM      8  C   UNL d   1      51.563  32.928  53.216  0.00  0.00     0.000 A 
ATOM      9  C   UNL d   1      52.258  33.270  52.924  0.00  0.00     0.000 A 
ATOM     10  C   UNL d   1      52.234  34.036  52.635  0.00  0.00     0.000 A 
ATOM     11  C   UNL d   1      51.522  34.465  52.635  0.00  0.00     0.000 A 
ENDBRANCH   5   6
ENDBRANCH   4   5
ENDBRANCH   3   4
BRANCH   1  12
ATOM     12  C   UNL d   1      47.721  35.332  51.585  0.00  0.00     0.158 A 
ATOM     13  O   UNL d   1      47.011  35.094  51.231  0.00  0.00    -0.296 OA
ATOM     14  C   UNL d   1      46.420  35.649  51.405  0.00  0.00     0.134 A 
ATOM     15 BR   UNL d   1      45.630  35.612  51.153  0.00  0.00    -0.022 Br
ATOM     16  C   UNL d   1      46.771  36.234  51.870  0.00  0.00     0.034 A 
ATOM     17  C   UNL d   1      47.559  36.046  51.982  0.00  0.00     0.032 A 
ENDBRANCH   1  12
TORSDOF 4
ENDMDL
MODEL 8
REMARK VINA RESULT:      -6.5      3.530      4.483
REMARK  4 active torsions:
REMARK  status: ('A' for Active; 'I' for Inactive)
REMARK    1  A    between atoms: C_4  and  C_1 
REMARK       I    between atoms: N_9  and  C_4 
REMARK    2  A    between atoms: C_7  and  C_13 
REMARK    3  A    between atoms: C_12  and  N_9 
REMARK    4  A    between atoms: C_13  and  C_12 
ROOT
ATOM      1  C   UNL d   1      51.456  34.135  52.503  0.00  0.00     0.302 C 
ATOM      2  O   UNL d   1      51.496  34.380  51.731  0.00  0.00    -0.263 OA
ATOM      3  N   UNL d   1      50.744  34.237  52.935  0.00  0.00    -0.205 NA
ENDROOT
BRANCH   3   4
ATOM      4  C   UNL d   1      50.102  34.583  52.566  0.00  0.00     0.102 C 
BRANCH   4   5
ATOM      5  C   UNL d   1      49.417  34.760  52.997  0.00  0.00     0.021 C 
BRANCH   5   6
ATOM      6  C   UNL d   1      48.791  35.151  52.638  0.00  0.00     0.002 A 
ATOM      7  C   UNL d   1      48.429  35.793  53.029  0.00  0.00     0.000 A 
ATOM      8  C   UNL d   1      47.800  36.193  52.679  0.00  0.00     0.000 A 
ATOM      9  C   UNL d   1      47.520  35.963  51.936  0.00  0.00     0.000 A 
ATOM     10  C   UNL d   1      47.877  35.333  51.553  0.00  0.00     0.000 A 
ATOM     11  C   UNL d   1      48.511  34.929  51.906  0.00  0.00     0.000 A 
ENDBRANCH   5   6
ENDBRANCH   4   5
ENDBRANCH   3   4
BRANCH   1  12
ATOM     12  C   UNL d   1      52.106  33.787  52.870  0.00  0.00     0.158 A 
ATOM     13  O   UNL d   1      52.312  32.986  52.916  0.00  0.00    -0.296 OA
ATOM     14  C   UNL d   1      53.018  32.911  53.345  0.00  0.00     0.134 A 
ATOM     15 BR   UNL d   1      53.410  32.199  53.515  0.00  0.00    -0.022 Br
ATOM     16  C   UNL d   1      53.248  33.673  53.565  0.00  0.00     0.034 A 
ATOM     17  C   UNL d   1      52.697  34.207  53.279  0.00  0.00     0.032 A 
ENDBRANCH   1  12
TORSDOF 4
ENDMDL
MODEL 9
REMARK VINA RESULT:      -5.5     10.592     10.996
REMARK  4 active torsions:
REMARK  status: ('A' for Active; 'I' for Inactive)
REMARK    1  A    between atoms: C_4  and  C_1 
REMARK       I    between atoms: N_9  and  C_4 
REMARK    2  A    between atoms: C_7  and  C_13 
REMARK    3  A    between atoms: C_12  and  N_9 
REMARK    4  A    between atoms: C_13  and  C_12 
ROOT
ATOM      1  C   UNL d   1      44.623  30.721  60.864  0.00  0.00     0.302 C 
ATOM      2  O   UNL d   1      44.460  31.515  60.891  0.00  0.00    -0.263 OA
ATOM      3  N   UNL d   1      44.797  30.358  60.128  0.00  0.00    -0.205 NA
ENDROOT
BRANCH   3   4
ATOM      4  C   UNL d   1      44.799  30.815  59.451  0.00  0.00     0.102 C 
BRANCH   4   5
ATOM      5  C   UNL d   1      45.188  30.551  58.769  0.00  0.00     0.021 C 
BRANCH   5   6
ATOM      6  C   UNL d   1      44.922  30.778  58.026  0.00  0.00     0.002 A 
ATOM      7  C   UNL d   1      44.634  30.200  57.498  0.00  0.00     0.000 A 
ATOM      8  C   UNL d   1      44.365  30.416  56.750  0.00  0.00     0.000 A 
ATOM      9  C   UNL d   1      44.377  31.208  56.513  0.00  0.00     0.000 A 
ATOM     10  C   UNL d   1      44.661  31.775  57.033  0.00  0.00     0.000 A 
ATOM     11  C   UNL d   1      44.933  31.557  57.787  0.00  0.00     0.000 A 
ENDBRANCH   5   6
ENDBRANCH   4   5
ENDBRANCH   3   4
BRANCH   1  12
ATOM     12  C   UNL d   1      44.620  30.265  61.550  0.00  0.00     0.158 A 
ATOM     13  O   UNL d   1      44.776  29.457  61.640  0.00  0.00    -0.296 OA
ATOM     14  C   UNL d   1      44.704  29.252  62.440  0.00  0.00     0.134 A 
ATOM     15 BR   UNL d   1      44.816  28.495  62.760  0.00  0.00    -0.022 Br
ATOM     16  C   UNL d   1      44.501  29.942  62.846  0.00  0.00     0.034 A 
ATOM     17  C   UNL d   1      44.449  30.559  62.310  0.00  0.00     0.032 A 
ENDBRANCH   1  12
TORSDOF 4
ENDMDL
