MODEL 1
REMARK VINA RESULT:      -9.9      0.000      0.000
REMARK  3 active torsions:
REMARK  status: ('A' for Active; 'I' for Inactive)
REMARK    1  A    between atoms: S_2  and  C_1 
REMARK    2  A    between atoms: C_8  and  S_2 
REMARK    3  A    between atoms: C_20  and  C_13 
ROOT
ATOM      1  C   UNL d   1      52.191  33.469  53.180  0.00  0.00     0.151 A 
ATOM      2  C   UNL d   1      52.472  32.747  52.872  0.00  0.00     0.311 A 
ATOM      3  C   UNL d   1      52.629  33.859  53.758  0.00  0.00     0.019 A 
ATOM      4  O   UNL d   1      53.185  32.430  53.147  0.00  0.00    -0.273 OA
ATOM      5  C   UNL d   1      53.335  33.549  54.034  0.00  0.00     0.024 A 
ATOM      6  C   UNL d   1      53.616  32.827  53.726  0.00  0.00     0.103 A 
ATOM      7  O   UNL d   1      52.036  32.346  52.288  0.00  0.00    -0.258 OA
ATOM      8  C   UNL d   1      53.769  33.938  54.609  0.00  0.00     0.009 A 
ATOM      9  C   UNL d   1      54.325  32.510  53.998  0.00  0.00     0.025 A 
ATOM     10  C   UNL d   1      54.482  33.629  54.890  0.00  0.00     0.035 A 
ATOM     11  C   UNL d   1      54.763  32.907  54.581  0.00  0.00     0.009 A 
ATOM     12 BR   UNL d   1      54.922  34.030  55.478  0.00  0.00    -0.049 Br
ENDROOT
BRANCH   1  13
ATOM     13  S   UNL d   1      51.479  33.778  52.900  0.00  0.00     0.215 S 
ATOM     14  O   UNL d   1      51.053  33.282  53.407  0.00  0.00    -0.217 OA
ATOM     15  O   UNL d   1      51.904  34.280  52.387  0.00  0.00    -0.217 OA
BRANCH  13  16
ATOM     16  C   UNL d   1      50.770  34.094  52.613  0.00  0.00     0.088 A 
ATOM     17  C   UNL d   1      50.224  34.438  53.135  0.00  0.00     0.011 A 
ATOM     18  C   UNL d   1      49.518  34.752  52.848  0.00  0.00     0.001 A 
ATOM     19  C   UNL d   1      49.349  34.728  52.041  0.00  0.00     0.000 A 
ATOM     20  C   UNL d   1      49.893  34.386  51.520  0.00  0.00     0.001 A 
ATOM     21  C   UNL d   1      50.598  34.072  51.806  0.00  0.00     0.011 A 
BRANCH  19  22
ATOM     22  C   UNL d   1      48.637  35.046  51.756  0.00  0.00     0.000 C 
ATOM     23  C   UNL d   1      48.363  34.832  51.017  0.00  0.00     0.000 C 
ATOM     24  C   UNL d   1      48.210  35.576  52.221  0.00  0.00     0.000 C 
ENDBRANCH  19  22
ENDBRANCH  13  16
ENDBRANCH   1  13
TORSDOF 3
ENDMDL
MODEL 2
REMARK VINA RESULT:      -9.3      1.824      4.799
REMARK  3 active torsions:
REMARK  status: ('A' for Active; 'I' for Inactive)
REMARK    1  A    between atoms: S_2  and  C_1 
REMARK    2  A    between atoms: C_8  and  S_2 
REMARK    3  A    between atoms: C_20  and  C_13 
ROOT
ATOM      1  C   UNL d   1      50.540  34.374  52.663  0.00  0.00     0.151 A 
ATOM      2  C   UNL d   1      50.370  34.226  51.860  0.00  0.00     0.311 A 
ATOM      3  C   UNL d   1      50.001  34.795  53.120  0.00  0.00     0.019 A 
ATOM      4  O   UNL d   1      49.664  34.504  51.531  0.00  0.00    -0.273 OA
ATOM      5  C   UNL d   1      49.300  35.072  52.798  0.00  0.00     0.024 A 
ATOM      6  C   UNL d   1      49.129  34.925  51.995  0.00  0.00     0.103 A 
ATOM      7  O   UNL d   1      50.910  33.801  51.392  0.00  0.00    -0.258 OA
ATOM      8  C   UNL d   1      48.764  35.492  53.254  0.00  0.00     0.009 A 
ATOM      9  C   UNL d   1      48.428  35.200  51.665  0.00  0.00     0.025 A 
ATOM     10  C   UNL d   1      48.057  35.772  52.933  0.00  0.00     0.035 A 
ATOM     11  C   UNL d   1      47.886  35.625  52.130  0.00  0.00     0.009 A 
ATOM     12 BR   UNL d   1      47.513  36.200  53.402  0.00  0.00    -0.049 Br
ENDROOT
BRANCH   1  13
ATOM     13  S   UNL d   1      51.247  34.093  52.984  0.00  0.00     0.215 S 
ATOM     14  O   UNL d   1      50.857  33.431  53.289  0.00  0.00    -0.217 OA
ATOM     15  O   UNL d   1      51.645  34.760  52.679  0.00  0.00    -0.217 OA
BRANCH  13  16
ATOM     16  C   UNL d   1      51.960  33.820  53.303  0.00  0.00     0.088 A 
ATOM     17  C   UNL d   1      52.537  34.359  53.562  0.00  0.00     0.011 A 
ATOM     18  C   UNL d   1      53.246  34.085  53.879  0.00  0.00     0.001 A 
ATOM     19  C   UNL d   1      53.390  33.275  53.941  0.00  0.00     0.000 A 
ATOM     20  C   UNL d   1      52.816  32.737  53.684  0.00  0.00     0.001 A 
ATOM     21  C   UNL d   1      52.107  33.011  53.367  0.00  0.00     0.011 A 
BRANCH  19  22
ATOM     22  C   UNL d   1      54.106  33.003  54.261  0.00  0.00     0.000 C 
ATOM     23  C   UNL d   1      54.723  32.803  53.766  0.00  0.00     0.000 C 
ATOM     24  C   UNL d   1      54.190  32.936  55.079  0.00  0.00     0.000 C 
ENDBRANCH  19  22
ENDBRANCH  13  16
ENDBRANCH   1  13
TORSDOF 3
ENDMDL
MODEL 3
REMARK VINA RESULT:      -7.6      2.667      3.673
REMARK  3 active torsions:
REMARK  status: ('A' for Active; 'I' for Inactive)
REMARK    1  A    between atoms: S_2  and  C_1 
REMARK    2  A    between atoms: C_8  and  S_2 
REMARK    3  A    between atoms: C_20  and  C_13 
ROOT
ATOM      1  C   UNL d   1      53.021  31.982  53.531  0.00  0.00     0.151 A 
ATOM      2  C   UNL d   1      52.815  31.766  52.752  0.00  0.00     0.311 A 
ATOM      3  C   UNL d   1      53.195  31.395  54.081  0.00  0.00     0.019 A 
ATOM      4  O   UNL d   1      52.788  30.967  52.540  0.00  0.00    -0.273 OA
ATOM      5  C   UNL d   1      53.169  30.603  53.875  0.00  0.00     0.024 A 
ATOM      6  C   UNL d   1      52.963  30.386  53.097  0.00  0.00     0.103 A 
ATOM      7  O   UNL d   1      52.638  32.353  52.190  0.00  0.00    -0.258 OA
ATOM      8  C   UNL d   1      53.342  30.020  54.424  0.00  0.00     0.009 A 
ATOM      9  C   UNL d   1      52.935  29.592  52.884  0.00  0.00     0.025 A 
ATOM     10  C   UNL d   1      53.316  29.220  54.221  0.00  0.00     0.035 A 
ATOM     11  C   UNL d   1      53.111  29.003  53.442  0.00  0.00     0.009 A 
ATOM     12 BR   UNL d   1      53.494  28.628  54.785  0.00  0.00    -0.049 Br
ENDROOT
BRANCH   1  13
ATOM     13  S   UNL d   1      53.047  32.782  53.734  0.00  0.00     0.215 S 
ATOM     14  O   UNL d   1      53.853  32.813  53.551  0.00  0.00    -0.217 OA
ATOM     15  O   UNL d   1      52.234  32.756  53.920  0.00  0.00    -0.217 OA
BRANCH  13  16
ATOM     16  C   UNL d   1      53.063  33.583  53.940  0.00  0.00     0.088 A 
ATOM     17  C   UNL d   1      53.540  33.844  54.568  0.00  0.00     0.011 A 
ATOM     18  C   UNL d   1      53.555  34.643  54.772  0.00  0.00     0.001 A 
ATOM     19  C   UNL d   1      53.098  35.188  54.356  0.00  0.00     0.000 A 
ATOM     20  C   UNL d   1      52.622  34.929  53.730  0.00  0.00     0.001 A 
ATOM     21  C   UNL d   1      52.607  34.132  53.526  0.00  0.00     0.011 A 
BRANCH  19  22
ATOM     22  C   UNL d   1      53.116  35.992  54.565  0.00  0.00     0.000 C 
ATOM     23  C   UNL d   1      53.786  36.434  54.421  0.00  0.00     0.000 C 
ATOM     24  C   UNL d   1      52.455  36.338  54.916  0.00  0.00     0.000 C 
ENDBRANCH  19  22
ENDBRANCH  13  16
ENDBRANCH   1  13
TORSDOF 3
ENDMDL
MODEL 4
REMARK VINA RESULT:      -7.0      2.541      4.969
REMARK  3 active torsions:
REMARK  status: ('A' for Active; 'I' for Inactive)
REMARK    1  A    between atoms: S_2  and  C_1 
REMARK    2  A    between atoms: C_8  and  S_2 
REMARK    3  A    between atoms: C_20  and  C_13 
ROOT
ATOM      1  C   UNL d   1      52.642  32.343  53.301  0.00  0.00     0.151 A 
ATOM      2  C   UNL d   1      53.253  32.858  53.061  0.00  0.00     0.311 A 
ATOM      3  C   UNL d   1      51.860  32.598  53.260  0.00  0.00     0.019 A 
ATOM      4  O   UNL d   1      53.068  33.616  52.785  0.00  0.00    -0.273 OA
ATOM      5  C   UNL d   1      51.673  33.347  52.988  0.00  0.00     0.024 A 
ATOM      6  C   UNL d   1      52.284  33.862  52.748  0.00  0.00     0.103 A 
ATOM      7  O   UNL d   1      54.045  32.609  53.098  0.00  0.00    -0.258 OA
ATOM      8  C   UNL d   1      50.894  33.598  52.949  0.00  0.00     0.009 A 
ATOM      9  C   UNL d   1      52.103  34.616  52.474  0.00  0.00     0.025 A 
ATOM     10  C   UNL d   1      50.702  34.353  52.675  0.00  0.00     0.035 A 
ATOM     11  C   UNL d   1      51.312  34.868  52.435  0.00  0.00     0.009 A 
ATOM     12 BR   UNL d   1      49.905  34.605  52.636  0.00  0.00    -0.049 Br
ENDROOT
BRANCH   1  13
ATOM     13  S   UNL d   1      52.834  31.589  53.574  0.00  0.00     0.215 S 
ATOM     14  O   UNL d   1      52.581  31.255  52.861  0.00  0.00    -0.217 OA
ATOM     15  O   UNL d   1      53.090  31.920  54.295  0.00  0.00    -0.217 OA
BRANCH  13  16
ATOM     16  C   UNL d   1      53.030  30.836  53.857  0.00  0.00     0.088 A 
ATOM     17  C   UNL d   1      53.199  30.722  54.662  0.00  0.00     0.011 A 
ATOM     18  C   UNL d   1      53.394  29.971  54.941  0.00  0.00     0.001 A 
ATOM     19  C   UNL d   1      53.421  29.329  54.425  0.00  0.00     0.000 A 
ATOM     20  C   UNL d   1      53.252  29.441  53.624  0.00  0.00     0.001 A 
ATOM     21  C   UNL d   1      53.058  30.191  53.344  0.00  0.00     0.011 A 
BRANCH  19  22
ATOM     22  C   UNL d   1      53.618  28.574  54.711  0.00  0.00     0.000 C 
ATOM     23  C   UNL d   1      54.065  28.069  54.253  0.00  0.00     0.000 C 
ATOM     24  C   UNL d   1      53.359  28.339  55.458  0.00  0.00     0.000 C 
ENDBRANCH  19  22
ENDBRANCH  13  16
ENDBRANCH   1  13
TORSDOF 3
ENDMDL
