MODEL 1
REMARK VINA RESULT:      -6.0      0.000      0.000
REMARK  0 active torsions:
REMARK  status: ('A' for Active; 'I' for Inactive)
ROOT
ATOM      1  C   UNL d   1     -47.213  12.665  23.325  0.00  0.00     0.116 A 
ATOM      2  C   UNL d   1     -46.417  12.885  23.321  0.00  0.00     0.192 A 
ATOM      3  N   UNL d   1     -46.060  11.561  23.696  0.00  0.00    -0.145 NA
ATOM      4  C   UNL d   1     -47.776  13.228  23.138  0.00  0.00     0.285 A 
ATOM      5  N   UNL d   1     -46.195  13.642  23.137  0.00  0.00    -0.203 NA
ATOM      6  N   UNL d   1     -45.844  12.334  23.506  0.00  0.00    -0.128 NA
ATOM      7  N   UNL d   1     -47.555  14.002  22.949  0.00  0.00    -0.185 NA
ATOM      8  C   UNL d   1     -46.763  14.203  22.950  0.00  0.00     0.203 A 
ATOM      9  C   UNL d   1     -46.849  11.348  23.698  0.00  0.00     0.130 A 
ATOM     10  O   UNL d   1     -48.576  13.023  23.137  0.00  0.00    -0.265 OA
ENDROOT
TORSDOF 0
ENDMDL
MODEL 2
REMARK VINA RESULT:      -5.9      0.756      1.838
REMARK  0 active torsions:
REMARK  status: ('A' for Active; 'I' for Inactive)
ROOT
ATOM      1  C   UNL d   1     -47.301  12.863  23.215  0.00  0.00     0.116 A 
ATOM      2  C   UNL d   1     -46.588  12.485  23.389  0.00  0.00     0.192 A 
ATOM      3  N   UNL d   1     -45.889  13.684  23.079  0.00  0.00    -0.145 NA
ATOM      4  C   UNL d   1     -47.997  12.440  23.288  0.00  0.00     0.285 A 
ATOM      5  N   UNL d   1     -46.574  11.710  23.626  0.00  0.00    -0.203 NA
ATOM      6  N   UNL d   1     -45.885  12.894  23.320  0.00  0.00    -0.128 NA
ATOM      7  N   UNL d   1     -47.989  11.649  23.530  0.00  0.00    -0.185 NA
ATOM      8  C   UNL d   1     -47.273  11.289  23.698  0.00  0.00     0.203 A 
ATOM      9  C   UNL d   1     -46.597  14.053  22.909  0.00  0.00     0.130 A 
ATOM     10  O   UNL d   1     -48.718  12.804  23.118  0.00  0.00    -0.265 OA
ENDROOT
TORSDOF 0
ENDMDL
MODEL 3
REMARK VINA RESULT:      -5.7      1.317      1.841
REMARK  0 active torsions:
REMARK  status: ('A' for Active; 'I' for Inactive)
ROOT
ATOM      1  C   UNL d   1     -47.104  12.565  23.310  0.00  0.00     0.116 A 
ATOM      2  C   UNL d   1     -47.647  13.157  23.119  0.00  0.00     0.192 A 
ATOM      3  N   UNL d   1     -48.708  12.233  23.319  0.00  0.00    -0.145 NA
ATOM      4  C   UNL d   1     -46.307  12.746  23.301  0.00  0.00     0.285 A 
ATOM      5  N   UNL d   1     -47.398  13.903  22.925  0.00  0.00    -0.203 NA
ATOM      6  N   UNL d   1     -48.446  12.990  23.124  0.00  0.00    -0.128 NA
ATOM      7  N   UNL d   1     -46.047  13.506  23.104  0.00  0.00    -0.185 NA
ATOM      8  C   UNL d   1     -46.598  14.081  22.917  0.00  0.00     0.203 A 
ATOM      9  C   UNL d   1     -48.168  11.651  23.508  0.00  0.00     0.130 A 
ATOM     10  O   UNL d   1     -45.751  12.165  23.490  0.00  0.00    -0.265 OA
ENDROOT
TORSDOF 0
ENDMDL
MODEL 4
REMARK VINA RESULT:      -5.4      1.846      2.510
REMARK  0 active torsions:
REMARK  status: ('A' for Active; 'I' for Inactive)
ROOT
ATOM      1  C   UNL d   1     -48.339  12.274  23.331  0.00  0.00     0.116 A 
ATOM      2  C   UNL d   1     -48.314  11.475  23.535  0.00  0.00     0.192 A 
ATOM      3  N   UNL d   1     -49.729  11.411  23.413  0.00  0.00    -0.145 NA
ATOM      4  C   UNL d   1     -47.637  12.692  23.294  0.00  0.00     0.285 A 
ATOM      5  N   UNL d   1     -47.610  11.108  23.697  0.00  0.00    -0.203 NA
ATOM      6  N   UNL d   1     -49.008  11.046  23.576  0.00  0.00    -0.128 NA
ATOM      7  N   UNL d   1     -46.915  12.322  23.458  0.00  0.00    -0.185 NA
ATOM      8  C   UNL d   1     -46.909  11.530  23.659  0.00  0.00     0.203 A 
ATOM      9  C   UNL d   1     -49.749  12.202  23.211  0.00  0.00     0.130 A 
ATOM     10  O   UNL d   1     -47.645  13.492  23.090  0.00  0.00    -0.265 OA
ENDROOT
TORSDOF 0
ENDMDL
MODEL 5
REMARK VINA RESULT:      -5.3      2.480      2.945
REMARK  0 active torsions:
REMARK  status: ('A' for Active; 'I' for Inactive)
ROOT
ATOM      1  C   UNL d   1     -48.762  12.202  22.428  0.00  0.00     0.116 A 
ATOM      2  C   UNL d   1     -49.500  11.891  22.627  0.00  0.00     0.192 A 
ATOM      3  N   UNL d   1     -48.896  11.176  23.698  0.00  0.00    -0.145 NA
ATOM      4  C   UNL d   1     -48.711  12.713  21.791  0.00  0.00     0.285 A 
ATOM      5  N   UNL d   1     -50.162  12.085  22.204  0.00  0.00    -0.203 NA
ATOM      6  N   UNL d   1     -49.566  11.379  23.261  0.00  0.00    -0.128 NA
ATOM      7  N   UNL d   1     -49.384  12.915  21.355  0.00  0.00    -0.185 NA
ATOM      8  C   UNL d   1     -50.108  12.597  21.567  0.00  0.00     0.203 A 
ATOM      9  C   UNL d   1     -48.168  11.486  23.496  0.00  0.00     0.130 A 
ATOM     10  O   UNL d   1     -47.980  13.033  21.579  0.00  0.00    -0.265 OA
ENDROOT
TORSDOF 0
ENDMDL
MODEL 6
REMARK VINA RESULT:      -5.2      2.093      2.888
REMARK  0 active torsions:
REMARK  status: ('A' for Active; 'I' for Inactive)
ROOT
ATOM      1  C   UNL d   1     -49.181  12.042  22.565  0.00  0.00     0.116 A 
ATOM      2  C   UNL d   1     -48.397  12.239  22.396  0.00  0.00     0.192 A 
ATOM      3  N   UNL d   1     -48.838  12.981  21.267  0.00  0.00    -0.145 NA
ATOM      4  C   UNL d   1     -49.336  11.573  23.216  0.00  0.00     0.285 A 
ATOM      5  N   UNL d   1     -47.791  11.974  22.864  0.00  0.00    -0.203 NA
ATOM      6  N   UNL d   1     -48.227  12.707  21.749  0.00  0.00    -0.128 NA
ATOM      7  N   UNL d   1     -48.721  11.299  23.698  0.00  0.00    -0.185 NA
ATOM      8  C   UNL d   1     -47.950  11.504  23.516  0.00  0.00     0.203 A 
ATOM      9  C   UNL d   1     -49.612  12.784  21.438  0.00  0.00     0.130 A 
ATOM     10  O   UNL d   1     -50.114  11.367  23.399  0.00  0.00    -0.265 OA
ENDROOT
TORSDOF 0
ENDMDL
MODEL 7
REMARK VINA RESULT:      -4.9      1.559      2.160
REMARK  0 active torsions:
REMARK  status: ('A' for Active; 'I' for Inactive)
ROOT
ATOM      1  C   UNL d   1     -47.839  14.083  22.519  0.00  0.00     0.116 A 
ATOM      2  C   UNL d   1     -47.737  13.342  22.172  0.00  0.00     0.192 A 
ATOM      3  N   UNL d   1     -46.453  13.248  22.774  0.00  0.00    -0.145 NA
ATOM      4  C   UNL d   1     -48.537  14.488  22.382  0.00  0.00     0.285 A 
ATOM      5  N   UNL d   1     -48.314  13.018  21.704  0.00  0.00    -0.203 NA
ATOM      6  N   UNL d   1     -47.046  12.926  22.300  0.00  0.00    -0.128 NA
ATOM      7  N   UNL d   1     -49.129  14.162  21.906  0.00  0.00    -0.185 NA
ATOM      8  C   UNL d   1     -49.012  13.426  21.570  0.00  0.00     0.203 A 
ATOM      9  C   UNL d   1     -46.559  13.982  23.116  0.00  0.00     0.130 A 
ATOM     10  O   UNL d   1     -48.654  15.231  22.723  0.00  0.00    -0.265 OA
ENDROOT
TORSDOF 0
ENDMDL
MODEL 8
REMARK VINA RESULT:      -4.8      2.763      3.135
REMARK  0 active torsions:
REMARK  status: ('A' for Active; 'I' for Inactive)
ROOT
ATOM      1  C   UNL d   1     -48.598  13.977  22.170  0.00  0.00     0.116 A 
ATOM      2  C   UNL d   1     -49.390  14.049  21.950  0.00  0.00     0.192 A 
ATOM      3  N   UNL d   1     -49.273  12.859  21.180  0.00  0.00    -0.145 NA
ATOM      4  C   UNL d   1     -48.275  14.542  22.664  0.00  0.00     0.285 A 
ATOM      5  N   UNL d   1     -49.842  14.666  22.217  0.00  0.00    -0.203 NA
ATOM      6  N   UNL d   1     -49.726  13.491  21.457  0.00  0.00    -0.128 NA
ATOM      7  N   UNL d   1     -48.731  15.175  22.940  0.00  0.00    -0.185 NA
ATOM      8  C   UNL d   1     -49.515  15.231  22.712  0.00  0.00     0.203 A 
ATOM      9  C   UNL d   1     -48.490  12.792  21.400  0.00  0.00     0.130 A 
ATOM     10  O   UNL d   1     -47.483  14.484  22.893  0.00  0.00    -0.265 OA
ENDROOT
TORSDOF 0
ENDMDL
MODEL 9
REMARK VINA RESULT:      -4.8      8.872      9.307
REMARK  0 active torsions:
REMARK  status: ('A' for Active; 'I' for Inactive)
ROOT
ATOM      1  C   UNL d   1     -39.890  14.849  17.269  0.00  0.00     0.116 A 
ATOM      2  C   UNL d   1     -40.651  14.634  17.505  0.00  0.00     0.192 A 
ATOM      3  N   UNL d   1     -40.101  13.564  18.263  0.00  0.00    -0.145 NA
ATOM      4  C   UNL d   1     -39.800  15.492  16.772  0.00  0.00     0.285 A 
ATOM      5  N   UNL d   1     -41.298  15.050  17.252  0.00  0.00    -0.203 NA
ATOM      6  N   UNL d   1     -40.755  13.993  18.000  0.00  0.00    -0.128 NA
ATOM      7  N   UNL d   1     -40.457  15.921  16.511  0.00  0.00    -0.185 NA
ATOM      8  C   UNL d   1     -41.205  15.694  16.754  0.00  0.00     0.203 A 
ATOM      9  C   UNL d   1     -39.351  13.780  18.026  0.00  0.00     0.130 A 
ATOM     10  O   UNL d   1     -39.045  15.720  16.527  0.00  0.00    -0.265 OA
ENDROOT
TORSDOF 0
ENDMDL
