MODEL 1
REMARK VINA RESULT:      -7.9      0.000      0.000
REMARK  3 active torsions:
REMARK  status: ('A' for Active; 'I' for Inactive)
REMARK    1  A    between atoms: N_6  and  C_1 
REMARK    2  A    between atoms: C_7  and  N_2 
REMARK    3  A    between atoms: C_8  and  N_6 
ROOT
ATOM      1  C   UNL d   1     -48.949  13.483  22.694  0.00  0.00     0.735 A 
ATOM      2  N   UNL d   1     -49.774  13.477  22.634  0.00  0.00    -0.139 N 
ATOM      3  N   UNL d   1     -48.711  14.216  22.996  0.00  0.00    -0.059 NA
ATOM      4  C   UNL d   1     -50.051  14.208  22.899  0.00  0.00     0.100 A 
ATOM      5  C   UNL d   1     -49.389  14.662  23.123  0.00  0.00     0.116 A 
ATOM      6  C   UNL d   1     -50.810  14.522  22.969  0.00  0.00     0.020 A 
ATOM      7  C   UNL d   1     -49.504  15.427  23.413  0.00  0.00     0.021 A 
ATOM      8  C   UNL d   1     -50.916  15.282  23.258  0.00  0.00     0.002 A 
ATOM      9  C   UNL d   1     -50.262  15.741  23.483  0.00  0.00     0.002 A 
ENDROOT
BRANCH   1  10
ATOM     10  N   UNL d   1     -48.444  12.864  22.487  0.00  0.00    -0.061 NA
BRANCH  10  11
ATOM     11  C   UNL d   1     -47.645  12.897  22.676  0.00  0.00     0.100 A 
ATOM     12  C   UNL d   1     -47.382  12.542  23.367  0.00  0.00     0.020 A 
ATOM     13  C   UNL d   1     -46.582  12.570  23.567  0.00  0.00     0.002 A 
ATOM     14  C   UNL d   1     -46.042  12.959  23.067  0.00  0.00     0.000 A 
ATOM     15  C   UNL d   1     -46.315  13.314  22.373  0.00  0.00     0.002 A 
ATOM     16  C   UNL d   1     -47.110  13.283  22.181  0.00  0.00     0.020 A 
ENDBRANCH  10  11
ENDBRANCH   1  10
BRANCH   2  17
ATOM     17  C   UNL d   1     -50.235  12.853  22.358  0.00  0.00     0.082 C 
ATOM     18  C   UNL d   1     -50.393  12.783  21.548  0.00  0.00     0.020 C 
ATOM     19  C   UNL d   1     -50.542  12.297  22.881  0.00  0.00     0.020 C 
ENDBRANCH   2  17
TORSDOF 3
ENDMDL
MODEL 2
REMARK VINA RESULT:      -7.7      0.865      3.426
REMARK  3 active torsions:
REMARK  status: ('A' for Active; 'I' for Inactive)
REMARK    1  A    between atoms: N_6  and  C_1 
REMARK    2  A    between atoms: C_7  and  N_2 
REMARK    3  A    between atoms: C_8  and  N_6 
ROOT
ATOM      1  C   UNL d   1     -48.792  13.274  22.950  0.00  0.00     0.735 A 
ATOM      2  N   UNL d   1     -48.245  12.653  22.942  0.00  0.00    -0.139 N 
ATOM      3  N   UNL d   1     -48.378  13.991  22.915  0.00  0.00    -0.059 NA
ATOM      4  C   UNL d   1     -47.490  12.983  22.902  0.00  0.00     0.100 A 
ATOM      5  C   UNL d   1     -47.577  13.812  22.885  0.00  0.00     0.116 A 
ATOM      6  C   UNL d   1     -46.738  12.647  22.878  0.00  0.00     0.020 A 
ATOM      7  C   UNL d   1     -46.903  14.288  22.844  0.00  0.00     0.021 A 
ATOM      8  C   UNL d   1     -46.073  13.126  22.838  0.00  0.00     0.002 A 
ATOM      9  C   UNL d   1     -46.151  13.952  22.820  0.00  0.00     0.002 A 
ENDROOT
BRANCH   1  10
ATOM     10  N   UNL d   1     -49.612  13.197  22.987  0.00  0.00    -0.061 NA
BRANCH  10  11
ATOM     11  C   UNL d   1     -50.093  13.862  22.991  0.00  0.00     0.100 A 
ATOM     12  C   UNL d   1     -50.399  14.140  22.283  0.00  0.00     0.020 A 
ATOM     13  C   UNL d   1     -50.884  14.807  22.274  0.00  0.00     0.002 A 
ATOM     14  C   UNL d   1     -51.062  15.200  22.987  0.00  0.00     0.000 A 
ATOM     15  C   UNL d   1     -50.750  14.915  23.696  0.00  0.00     0.002 A 
ATOM     16  C   UNL d   1     -50.270  14.252  23.697  0.00  0.00     0.020 A 
ENDBRANCH  10  11
ENDBRANCH   1  10
BRANCH   2  17
ATOM     17  C   UNL d   1     -48.424  11.850  22.970  0.00  0.00     0.082 C 
ATOM     18  C   UNL d   1     -48.525  11.425  22.267  0.00  0.00     0.020 C 
ATOM     19  C   UNL d   1     -48.503  11.464  23.692  0.00  0.00     0.020 C 
ENDBRANCH   2  17
TORSDOF 3
ENDMDL
MODEL 3
REMARK VINA RESULT:      -7.6      0.801      1.946
REMARK  3 active torsions:
REMARK  status: ('A' for Active; 'I' for Inactive)
REMARK    1  A    between atoms: N_6  and  C_1 
REMARK    2  A    between atoms: C_7  and  N_2 
REMARK    3  A    between atoms: C_8  and  N_6 
ROOT
ATOM      1  C   UNL d   1     -48.490  13.869  22.655  0.00  0.00     0.735 A 
ATOM      2  N   UNL d   1     -49.148  14.363  22.567  0.00  0.00    -0.139 N 
ATOM      3  N   UNL d   1     -48.660  13.137  22.307  0.00  0.00    -0.059 NA
ATOM      4  C   UNL d   1     -49.730  13.937  22.164  0.00  0.00     0.100 A 
ATOM      5  C   UNL d   1     -49.423  13.179  22.006  0.00  0.00     0.116 A 
ATOM      6  C   UNL d   1     -50.492  14.133  21.921  0.00  0.00     0.020 A 
ATOM      7  C   UNL d   1     -49.891  12.630  21.603  0.00  0.00     0.021 A 
ATOM      8  C   UNL d   1     -50.951  13.583  21.522  0.00  0.00     0.002 A 
ATOM      9  C   UNL d   1     -50.653  12.825  21.360  0.00  0.00     0.002 A 
ENDROOT
BRANCH   1  10
ATOM     10  N   UNL d   1     -47.781  14.070  23.026  0.00  0.00    -0.061 NA
BRANCH  10  11
ATOM     11  C   UNL d   1     -47.135  13.565  22.989  0.00  0.00     0.100 A 
ATOM     12  C   UNL d   1     -47.085  12.939  23.517  0.00  0.00     0.020 A 
ATOM     13  C   UNL d   1     -46.441  12.425  23.490  0.00  0.00     0.002 A 
ATOM     14  C   UNL d   1     -45.840  12.541  22.925  0.00  0.00     0.000 A 
ATOM     15  C   UNL d   1     -45.897  13.174  22.396  0.00  0.00     0.002 A 
ATOM     16  C   UNL d   1     -46.539  13.680  22.430  0.00  0.00     0.020 A 
ENDBRANCH  10  11
ENDBRANCH   1  10
BRANCH   2  17
ATOM     17  C   UNL d   1     -49.211  15.139  22.834  0.00  0.00     0.082 C 
ATOM     18  C   UNL d   1     -48.906  15.758  22.378  0.00  0.00     0.020 C 
ATOM     19  C   UNL d   1     -49.577  15.306  23.552  0.00  0.00     0.020 C 
ENDBRANCH   2  17
TORSDOF 3
ENDMDL
MODEL 4
REMARK VINA RESULT:      -5.9      8.766     10.623
REMARK  3 active torsions:
REMARK  status: ('A' for Active; 'I' for Inactive)
REMARK    1  A    between atoms: N_6  and  C_1 
REMARK    2  A    between atoms: C_7  and  N_2 
REMARK    3  A    between atoms: C_8  and  N_6 
ROOT
ATOM      1  C   UNL d   1     -39.901  14.828  18.575  0.00  0.00     0.735 A 
ATOM      2  N   UNL d   1     -39.803  14.785  17.755  0.00  0.00    -0.139 N 
ATOM      3  N   UNL d   1     -39.466  14.216  18.926  0.00  0.00    -0.059 NA
ATOM      4  C   UNL d   1     -39.307  14.145  17.593  0.00  0.00     0.100 A 
ATOM      5  C   UNL d   1     -39.101  13.796  18.321  0.00  0.00     0.116 A 
ATOM      6  C   UNL d   1     -39.015  13.833  16.889  0.00  0.00     0.020 A 
ATOM      7  C   UNL d   1     -38.603  13.137  18.327  0.00  0.00     0.021 A 
ATOM      8  C   UNL d   1     -38.521  13.178  16.902  0.00  0.00     0.002 A 
ATOM      9  C   UNL d   1     -38.311  12.824  17.623  0.00  0.00     0.002 A 
ENDROOT
BRANCH   1  10
ATOM     10  N   UNL d   1     -40.355  15.385  18.980  0.00  0.00    -0.061 NA
BRANCH  10  11
ATOM     11  C   UNL d   1     -40.321  15.434  19.799  0.00  0.00     0.100 A 
ATOM     12  C   UNL d   1     -40.881  15.036  20.248  0.00  0.00     0.020 A 
ATOM     13  C   UNL d   1     -40.857  15.078  21.071  0.00  0.00     0.002 A 
ATOM     14  C   UNL d   1     -40.262  15.524  21.447  0.00  0.00     0.000 A 
ATOM     15  C   UNL d   1     -39.702  15.922  20.988  0.00  0.00     0.002 A 
ATOM     16  C   UNL d   1     -39.732  15.876  20.172  0.00  0.00     0.020 A 
ENDBRANCH  10  11
ENDBRANCH   1  10
BRANCH   2  17
ATOM     17  C   UNL d   1     -40.141  15.289  17.199  0.00  0.00     0.082 C 
ATOM     18  C   UNL d   1     -39.702  15.922  16.895  0.00  0.00     0.020 C 
ATOM     19  C   UNL d   1     -40.914  15.171  16.942  0.00  0.00     0.020 C 
ENDBRANCH   2  17
TORSDOF 3
ENDMDL
MODEL 5
REMARK VINA RESULT:      -5.7      8.099     10.103
REMARK  3 active torsions:
REMARK  status: ('A' for Active; 'I' for Inactive)
REMARK    1  A    between atoms: N_6  and  C_1 
REMARK    2  A    between atoms: C_7  and  N_2 
REMARK    3  A    between atoms: C_8  and  N_6 
ROOT
ATOM      1  C   UNL d   1     -40.049  14.783  19.687  0.00  0.00     0.735 A 
ATOM      2  N   UNL d   1     -40.232  14.750  20.493  0.00  0.00    -0.139 N 
ATOM      3  N   UNL d   1     -39.315  14.418  19.566  0.00  0.00    -0.059 NA
ATOM      4  C   UNL d   1     -39.610  14.363  20.876  0.00  0.00     0.100 A 
ATOM      5  C   UNL d   1     -39.045  14.160  20.299  0.00  0.00     0.116 A 
ATOM      6  C   UNL d   1     -39.481  14.169  21.666  0.00  0.00     0.020 A 
ATOM      7  C   UNL d   1     -38.358  13.764  20.528  0.00  0.00     0.021 A 
ATOM      8  C   UNL d   1     -38.796  13.776  21.887  0.00  0.00     0.002 A 
ATOM      9  C   UNL d   1     -38.228  13.570  21.318  0.00  0.00     0.002 A 
ENDROOT
BRANCH   1  10
ATOM     10  N   UNL d   1     -40.517  15.122  19.098  0.00  0.00    -0.061 NA
BRANCH  10  11
ATOM     11  C   UNL d   1     -40.265  15.125  18.316  0.00  0.00     0.100 A 
ATOM     12  C   UNL d   1     -39.851  15.773  18.031  0.00  0.00     0.020 A 
ATOM     13  C   UNL d   1     -39.593  15.786  17.248  0.00  0.00     0.002 A 
ATOM     14  C   UNL d   1     -39.754  15.141  16.746  0.00  0.00     0.000 A 
ATOM     15  C   UNL d   1     -40.172  14.493  17.041  0.00  0.00     0.002 A 
ATOM     16  C   UNL d   1     -40.425  14.486  17.819  0.00  0.00     0.020 A 
ENDBRANCH  10  11
ENDBRANCH   1  10
BRANCH   2  17
ATOM     17  C   UNL d   1     -40.911  15.048  20.849  0.00  0.00     0.082 C 
ATOM     18  C   UNL d   1     -41.571  14.559  20.953  0.00  0.00     0.020 C 
ATOM     19  C   UNL d   1     -40.941  15.830  21.103  0.00  0.00     0.020 C 
ENDBRANCH   2  17
TORSDOF 3
ENDMDL
MODEL 6
REMARK VINA RESULT:      -5.6      9.472     10.372
REMARK  3 active torsions:
REMARK  status: ('A' for Active; 'I' for Inactive)
REMARK    1  A    between atoms: N_6  and  C_1 
REMARK    2  A    between atoms: C_7  and  N_2 
REMARK    3  A    between atoms: C_8  and  N_6 
ROOT
ATOM      1  C   UNL d   1     -39.556  14.822  18.872  0.00  0.00     0.735 A 
ATOM      2  N   UNL d   1     -39.472  14.605  18.078  0.00  0.00    -0.139 N 
ATOM      3  N   UNL d   1     -40.190  15.351  18.936  0.00  0.00    -0.059 NA
ATOM      4  C   UNL d   1     -40.056  14.999  17.646  0.00  0.00     0.100 A 
ATOM      5  C   UNL d   1     -40.497  15.460  18.182  0.00  0.00     0.116 A 
ATOM      6  C   UNL d   1     -40.245  15.003  16.844  0.00  0.00     0.020 A 
ATOM      7  C   UNL d   1     -41.125  15.917  17.899  0.00  0.00     0.021 A 
ATOM      8  C   UNL d   1     -40.869  15.461  16.571  0.00  0.00     0.002 A 
ATOM      9  C   UNL d   1     -41.315  15.922  17.098  0.00  0.00     0.002 A 
ENDROOT
BRANCH   1  10
ATOM     10  N   UNL d   1     -39.088  14.558  19.498  0.00  0.00    -0.061 NA
BRANCH  10  11
ATOM     11  C   UNL d   1     -39.205  14.849  20.257  0.00  0.00     0.100 A 
ATOM     12  C   UNL d   1     -39.700  14.442  20.769  0.00  0.00     0.020 A 
ATOM     13  C   UNL d   1     -39.826  14.725  21.534  0.00  0.00     0.002 A 
ATOM     14  C   UNL d   1     -39.449  15.424  21.785  0.00  0.00     0.000 A 
ATOM     15  C   UNL d   1     -38.951  15.827  21.264  0.00  0.00     0.002 A 
ATOM     16  C   UNL d   1     -38.832  15.541  20.506  0.00  0.00     0.020 A 
ENDBRANCH  10  11
ENDBRANCH   1  10
BRANCH   2  17
ATOM     17  C   UNL d   1     -38.908  14.089  17.773  0.00  0.00     0.082 C 
ATOM     18  C   UNL d   1     -38.178  14.381  17.514  0.00  0.00     0.020 C 
ATOM     19  C   UNL d   1     -39.063  13.282  17.723  0.00  0.00     0.020 C 
ENDBRANCH   2  17
TORSDOF 3
ENDMDL
