MODEL 1
REMARK VINA RESULT:      41.7      0.000      0.000
REMARK  6 active torsions:
REMARK  status: ('A' for Active; 'I' for Inactive)
REMARK    1  A    between atoms: N_2  and  S_1 
REMARK    2  A    between atoms: C_16  and  S_1 
REMARK    3  A    between atoms: C_4  and  C_3 
REMARK       I    between atoms: N_6  and  C_4 
REMARK    4  A    between atoms: C_15  and  N_6 
REMARK    5  A    between atoms: C_9  and  C_15 
REMARK    6  A    between atoms: C_20  and  C_16 
ROOT
ATOM      1  N   UNL d   1      59.329  49.570  51.204  0.00  0.00    -0.229 N 
ATOM      2  C   UNL d   1      60.674  49.304  50.813  0.00  0.00     0.076 A 
ATOM      3  C   UNL d   1      59.882  49.370  50.622  0.00  0.00     0.096 A 
ATOM      4  C   UNL d   1      59.571  49.703  51.974  0.00  0.00     0.092 A 
ATOM      5  C   UNL d   1      60.919  49.437  51.585  0.00  0.00     0.008 A 
ATOM      6  C   UNL d   1      60.367  49.637  52.167  0.00  0.00     0.020 A 
ENDROOT
BRANCH   2   7
ATOM      7  C   UNL d   1      61.233  49.105  50.238  0.00  0.00     0.281 C 
ATOM      8  N   UNL d   1      61.484  48.325  50.146  0.00  0.00    -0.204 NA
ATOM      9  O   UNL d   1      61.543  49.703  49.748  0.00  0.00    -0.265 OA
BRANCH   8  10
ATOM     10  C   UNL d   1      61.175  47.737  50.633  0.00  0.00     0.127 C 
BRANCH  10  11
ATOM     11  C   UNL d   1      61.267  46.942  50.426  0.00  0.00     0.119 A 
ATOM     12  O   UNL d   1      61.796  46.649  49.863  0.00  0.00    -0.304 OA
ATOM     13  C   UNL d   1      61.704  45.829  49.833  0.00  0.00     0.123 A 
ATOM     14  C   UNL d   1      61.118  45.620  50.377  0.00  0.00     0.029 A 
ATOM     15  C   UNL d   1      60.853  46.312  50.739  0.00  0.00     0.028 A 
ENDBRANCH  10  11
ENDBRANCH   8  10
ENDBRANCH   2   7
BRANCH   1  16
ATOM     16  S   UNL d   1      58.525  49.636  51.002  0.00  0.00     0.272 S 
ATOM     17  O   UNL d   1      58.721  49.707  50.222  0.00  0.00    -0.200 OA
ATOM     18  O   UNL d   1      58.330  49.562  51.806  0.00  0.00    -0.200 OA
BRANCH  16  19
ATOM     19  C   UNL d   1      57.725  49.702  50.794  0.00  0.00     0.116 C 
BRANCH  19  20
ATOM     20  C   UNL d   1      57.445  49.383  50.083  0.00  0.00     0.014 C 
ATOM     21  C   UNL d   1      56.635  49.346  49.945  0.00  0.00     0.001 C 
ENDBRANCH  19  20
ENDBRANCH  16  19
ENDBRANCH   1  16
TORSDOF 6
ENDMDL
