MODEL 1
REMARK VINA RESULT:      46.6      0.000      0.000
REMARK  13 active torsions:
REMARK  status: ('A' for Active; 'I' for Inactive)
REMARK    1  A    between atoms: C_21  and  N_1 
REMARK    2  A    between atoms: C_7  and  N_3 
REMARK    3  A    between atoms: C_8  and  C_7 
REMARK       I    between atoms: N_12  and  C_8 
REMARK    4  A    between atoms: C_11  and  C_22 
REMARK    5  A    between atoms: C_26  and  N_12 
REMARK    6  A    between atoms: C_27  and  N_12 
REMARK    7  A    between atoms: C_13  and  C_25 
REMARK       I    between atoms: N_15  and  C_13 
REMARK    8  A    between atoms: C_22  and  N_15 
REMARK    9  A    between atoms: C_28  and  C_21 
REMARK   10  A    between atoms: C_25  and  C_31 
REMARK   11  A    between atoms: C_29  and  C_26 
REMARK   12  A    between atoms: C_30  and  C_27 
REMARK   13  A    between atoms: C_31  and  C_28 
ROOT
ATOM      1  N   UNL d   1      45.149 -16.282  38.305  0.00  0.00    -0.226 N 
ATOM      2  C   UNL d   1      44.472 -16.098  37.872  0.00  0.00     0.342 A 
ATOM      3  N   UNL d   1      44.510 -15.530  37.267  0.00  0.00    -0.254 N 
ATOM      4  C   UNL d   1      45.865 -15.898  38.134  0.00  0.00     0.270 A 
ATOM      5  C   UNL d   1      45.900 -15.336  37.534  0.00  0.00     0.073 A 
ATOM      6  C   UNL d   1      45.222 -15.152  37.100  0.00  0.00     0.073 A 
ATOM      7  O   UNL d   1      43.754 -16.479  38.039  0.00  0.00    -0.245 OA
ATOM      8  O   UNL d   1      46.542 -16.082  38.567  0.00  0.00    -0.266 OA
ATOM      9  C   UNL d   1      46.611 -14.957  37.367  0.00  0.00     0.006 A 
ATOM     10  C   UNL d   1      45.256 -14.590  36.500  0.00  0.00     0.018 A 
ATOM     11  C   UNL d   1      46.646 -14.395  36.767  0.00  0.00     0.000 A 
ATOM     12  C   UNL d   1      45.968 -14.212  36.333  0.00  0.00     0.002 A 
ENDROOT
BRANCH   1  13
ATOM     13  C   UNL d   1      45.112 -16.847  38.908  0.00  0.00     0.087 C 
BRANCH  13  14
ATOM     14  C   UNL d   1      45.796 -17.232  39.163  0.00  0.00     0.019 C 
BRANCH  14  15
ATOM     15  C   UNL d   1      45.786 -17.701  39.841  0.00  0.00     0.006 C 
BRANCH  15  16
ATOM     16  C   UNL d   1      46.490 -18.051  40.116  0.00  0.00     0.063 C 
BRANCH  16  17
ATOM     17  C   UNL d   1      46.463 -18.763  40.529  0.00  0.00     0.279 C 
ATOM     18  N   UNL d   1      46.605 -18.776  41.341  0.00  0.00    -0.204 NA
ATOM     19  O   UNL d   1      46.292 -19.466  40.128  0.00  0.00    -0.265 OA
BRANCH  18  20
ATOM     20  C   UNL d   1      46.578 -19.488  41.753  0.00  0.00     0.127 C 
BRANCH  20  21
ATOM     21  C   UNL d   1      46.223 -19.521  42.502  0.00  0.00     0.119 A 
ATOM     22  O   UNL d   1      46.626 -19.519  43.229  0.00  0.00    -0.304 OA
ATOM     23  C   UNL d   1      46.053 -19.559  43.833  0.00  0.00     0.123 A 
ATOM     24  C   UNL d   1      45.305 -19.585  43.476  0.00  0.00     0.029 A 
ATOM     25  C   UNL d   1      45.409 -19.561  42.654  0.00  0.00     0.028 A 
ENDBRANCH  20  21
ENDBRANCH  18  20
ENDBRANCH  16  17
ENDBRANCH  15  16
ENDBRANCH  14  15
ENDBRANCH  13  14
ENDBRANCH   1  13
BRANCH   3  26
ATOM     26  C   UNL d   1      43.833 -15.347  36.833  0.00  0.00     0.146 C 
BRANCH  26  27
ATOM     27  C   UNL d   1      43.307 -15.943  36.617  0.00  0.00     0.283 C 
ATOM     28  N   UNL d   1      42.497 -15.779  36.556  0.00  0.00    -0.271 N 
ATOM     29  O   UNL d   1      43.588 -16.700  36.462  0.00  0.00    -0.265 OA
BRANCH  28  30
ATOM     30  C   UNL d   1      41.971 -16.375  36.341  0.00  0.00     0.083 C 
BRANCH  30  31
ATOM     31  C   UNL d   1      41.499 -16.737  36.912  0.00  0.00     0.019 C 
ATOM     32  C   UNL d   1      40.714 -16.920  36.743  0.00  0.00     0.002 C 
ENDBRANCH  30  31
ENDBRANCH  28  30
BRANCH  28  33
ATOM     33  C   UNL d   1      42.216 -15.021  36.712  0.00  0.00     0.083 C 
BRANCH  33  34
ATOM     34  C   UNL d   1      41.463 -14.804  36.460  0.00  0.00     0.019 C 
ATOM     35  C   UNL d   1      41.012 -14.277  36.911  0.00  0.00     0.002 C 
ENDBRANCH  33  34
ENDBRANCH  28  33
ENDBRANCH  26  27
ENDBRANCH   3  26
TORSDOF 13
ENDMDL
