MODEL 1
REMARK VINA RESULT:      57.7      0.000      0.000
REMARK  6 active torsions:
REMARK  status: ('A' for Active; 'I' for Inactive)
REMARK    1  A    between atoms: C_9  and  N_1 
REMARK    2  A    between atoms: S_14  and  C_3 
REMARK    3  A    between atoms: N_8  and  C_10 
REMARK    4  A    between atoms: C_18  and  C_9 
REMARK    5  A    between atoms: C_19  and  S_14 
REMARK    6  A    between atoms: C_20  and  C_18 
ROOT
ATOM      1  N   UNL d   1      13.374  11.803  -5.890  0.00  0.00    -0.195 NA
ATOM      2  C   UNL d   1      13.305  11.789  -5.055  0.00  0.00     0.086 C 
ATOM      3  C   UNL d   1      13.234  11.784  -4.243  0.00  0.00     0.170 C 
ENDROOT
BRANCH   3   4
ATOM      4  S   UNL d   1      12.881  12.420  -3.852  0.00  0.00    -0.060 SA
BRANCH   4   5
ATOM      5  C   UNL d   1      13.211  13.180  -3.905  0.00  0.00     0.178 A 
ATOM      6  N   UNL d   1      13.584  13.519  -3.252  0.00  0.00    -0.253 N 
ATOM      7  C   UNL d   1      13.912  14.277  -3.307  0.00  0.00     0.268 A 
ATOM      8  C   UNL d   1      13.860  14.684  -4.022  0.00  0.00     0.076 A 
ATOM      9  O   UNL d   1      14.283  14.613  -2.657  0.00  0.00    -0.267 OA
ATOM     10  C   UNL d   1      14.186  15.432  -4.072  0.00  0.00     0.024 A 
ATOM     11  C   UNL d   1      13.491  14.349  -4.670  0.00  0.00     0.088 A 
ATOM     12  C   UNL d   1      14.143  15.856  -4.781  0.00  0.00     0.065 A 
ATOM     13  C   UNL d   1      13.766  15.506  -5.432  0.00  0.00     0.019 A 
ATOM     14  C   UNL d   1      13.442  14.760  -5.379  0.00  0.00     0.021 A 
ATOM     15  N   UNL d   1      13.164  13.598  -4.618  0.00  0.00    -0.222 NA
BRANCH   6  16
ATOM     16  C   UNL d   1      13.627  13.098  -2.544  0.00  0.00     0.085 C 
BRANCH  16  17
ATOM     17  C   UNL d   1      14.337  12.738  -2.327  0.00  0.00     0.019 C 
BRANCH  17  18
ATOM     18  C   UNL d   1      14.441  12.458  -1.554  0.00  0.00     0.002 A 
ATOM     19  C   UNL d   1      15.155  12.574  -1.167  0.00  0.00     0.000 A 
ATOM     20  C   UNL d   1      15.261  12.295  -0.399  0.00  0.00     0.000 A 
ATOM     21  C   UNL d   1      14.641  11.895  -0.014  0.00  0.00     0.000 A 
ATOM     22  C   UNL d   1      13.921  11.781  -0.409  0.00  0.00     0.000 A 
ATOM     23  C   UNL d   1      13.815  12.059  -1.178  0.00  0.00     0.000 A 
ENDBRANCH  17  18
ENDBRANCH  16  17
ENDBRANCH   6  16
BRANCH  12  24
ATOM     24  N   UNL d   1      14.467  16.607  -4.841  0.00  0.00    -0.300 N 
ATOM     25  C   UNL d   1      14.994  16.881  -4.264  0.00  0.00     0.107 A 
ATOM     26  C   UNL d   1      15.314  17.634  -4.331  0.00  0.00     0.142 A 
ATOM     27  O   UNL d   1      15.112  18.119  -4.972  0.00  0.00    -0.300 OA
ATOM     28  C   UNL d   1      14.585  17.846  -5.549  0.00  0.00     0.142 A 
ATOM     29  C   UNL d   1      14.260  17.087  -5.485  0.00  0.00     0.107 A 
ENDBRANCH  12  24
ENDBRANCH   4   5
ENDBRANCH   3   4
TORSDOF 6
ENDMDL
