MODEL 1
REMARK VINA RESULT:      -8.3      0.000      0.000
REMARK  3 active torsions:
REMARK  status: ('A' for Active; 'I' for Inactive)
REMARK    1  A    between atoms: C_4  and  S_1 
REMARK    2  A    between atoms: N_7  and  S_1 
REMARK    3  A    between atoms: C_14  and  N_7 
ROOT
ATOM      1  S   UNL d   1     -48.215  13.920  22.791  0.00  0.00     0.285 S 
ATOM      2  O   UNL d   1     -47.860  14.299  22.167  0.00  0.00    -0.198 OA
ATOM      3  O   UNL d   1     -48.577  13.523  23.454  0.00  0.00    -0.198 OA
ENDROOT
BRANCH   1   4
ATOM      4  C   UNL d   1     -48.926  13.841  22.355  0.00  0.00     0.105 A 
ATOM      5  C   UNL d   1     -49.500  14.404  22.420  0.00  0.00     0.012 A 
ATOM      6  C   UNL d   1     -50.218  14.316  21.974  0.00  0.00     0.001 A 
ATOM      7  C   UNL d   1     -49.401  15.082  22.925  0.00  0.00     0.001 C 
ATOM      8  C   UNL d   1     -50.343  13.693  21.493  0.00  0.00     0.000 A 
ATOM      9  C   UNL d   1     -49.721  13.084  21.422  0.00  0.00     0.001 A 
ATOM     10  C   UNL d   1     -51.064  13.680  21.095  0.00  0.00     0.000 C 
ATOM     11  C   UNL d   1     -49.054  13.175  21.842  0.00  0.00     0.013 A 
ENDBRANCH   1   4
BRANCH   1  12
ATOM     12  N   UNL d   1     -47.532  13.986  23.238  0.00  0.00    -0.158 NA
BRANCH  12  13
ATOM     13  C   UNL d   1     -46.882  13.433  23.147  0.00  0.00     0.094 A 
ATOM     14  C   UNL d   1     -46.901  12.689  23.490  0.00  0.00     0.029 A 
ATOM     15  C   UNL d   1     -46.289  12.169  23.405  0.00  0.00     0.059 A 
ATOM     16  S   UNL d   1     -46.182  11.389  23.698  0.00  0.00    -0.018 SA
ATOM     17  C   UNL d   1     -45.631  12.370  22.974  0.00  0.00     0.110 A 
ATOM     18  C   UNL d   1     -45.436  11.175  23.407  0.00  0.00     0.332 A 
ATOM     19  O   UNL d   1     -45.107  10.404  23.581  0.00  0.00    -0.251 OA
ATOM     20  O   UNL d   1     -45.105  11.733  22.987  0.00  0.00    -0.268 OA
ATOM     21  C   UNL d   1     -45.579  13.086  22.628  0.00  0.00     0.027 A 
ATOM     22  C   UNL d   1     -46.195  13.649  22.695  0.00  0.00     0.022 A 
ENDBRANCH  12  13
ENDBRANCH   1  12
TORSDOF 3
ENDMDL
MODEL 2
REMARK VINA RESULT:      -8.0      1.437      4.429
REMARK  3 active torsions:
REMARK  status: ('A' for Active; 'I' for Inactive)
REMARK    1  A    between atoms: C_4  and  S_1 
REMARK    2  A    between atoms: N_7  and  S_1 
REMARK    3  A    between atoms: C_14  and  N_7 
ROOT
ATOM      1  S   UNL d   1     -46.897  13.420  22.701  0.00  0.00     0.285 S 
ATOM      2  O   UNL d   1     -46.767  13.748  23.432  0.00  0.00    -0.198 OA
ATOM      3  O   UNL d   1     -47.039  13.088  21.928  0.00  0.00    -0.198 OA
ENDROOT
BRANCH   1   4
ATOM      4  C   UNL d   1     -46.593  12.685  22.962  0.00  0.00     0.105 A 
ATOM      5  C   UNL d   1     -45.841  12.469  22.764  0.00  0.00     0.012 A 
ATOM      6  C   UNL d   1     -45.541  11.721  23.033  0.00  0.00     0.001 A 
ATOM      7  C   UNL d   1     -45.345  12.975  22.292  0.00  0.00     0.001 C 
ATOM      8  C   UNL d   1     -45.979  11.225  23.476  0.00  0.00     0.000 A 
ATOM      9  C   UNL d   1     -46.793  11.458  23.691  0.00  0.00     0.001 A 
ATOM     10  C   UNL d   1     -45.617  10.518  23.698  0.00  0.00     0.000 C 
ATOM     11  C   UNL d   1     -47.065  12.158  23.435  0.00  0.00     0.013 A 
ENDBRANCH   1   4
BRANCH   1  12
ATOM     12  N   UNL d   1     -47.198  14.129  22.422  0.00  0.00    -0.158 NA
BRANCH  12  13
ATOM     13  C   UNL d   1     -48.041  14.286  22.412  0.00  0.00     0.094 A 
ATOM     14  C   UNL d   1     -48.377  14.858  22.894  0.00  0.00     0.029 A 
ATOM     15  C   UNL d   1     -49.170  15.006  22.885  0.00  0.00     0.059 A 
ATOM     16  S   UNL d   1     -49.635  15.555  23.319  0.00  0.00    -0.018 SA
ATOM     17  C   UNL d   1     -49.664  14.588  22.394  0.00  0.00     0.110 A 
ATOM     18  C   UNL d   1     -50.404  15.416  23.043  0.00  0.00     0.332 A 
ATOM     19  O   UNL d   1     -51.063  15.868  23.349  0.00  0.00    -0.251 OA
ATOM     20  O   UNL d   1     -50.436  14.860  22.507  0.00  0.00    -0.268 OA
ATOM     21  C   UNL d   1     -49.371  14.024  21.912  0.00  0.00     0.027 A 
ATOM     22  C   UNL d   1     -48.554  13.846  21.896  0.00  0.00     0.022 A 
ENDBRANCH  12  13
ENDBRANCH   1  12
TORSDOF 3
ENDMDL
MODEL 3
REMARK VINA RESULT:      -6.5      7.847      9.656
REMARK  3 active torsions:
REMARK  status: ('A' for Active; 'I' for Inactive)
REMARK    1  A    between atoms: C_4  and  S_1 
REMARK    2  A    between atoms: N_7  and  S_1 
REMARK    3  A    between atoms: C_14  and  N_7 
ROOT
ATOM      1  S   UNL d   1     -40.306  14.631  19.496  0.00  0.00     0.285 S 
ATOM      2  O   UNL d   1     -40.783  15.272  19.350  0.00  0.00    -0.198 OA
ATOM      3  O   UNL d   1     -39.810  13.951  19.635  0.00  0.00    -0.198 OA
ENDROOT
BRANCH   1   4
ATOM      4  C   UNL d   1     -40.057  14.964  20.222  0.00  0.00     0.105 A 
ATOM      5  C   UNL d   1     -40.493  14.840  20.890  0.00  0.00     0.012 A 
ATOM      6  C   UNL d   1     -40.233  15.182  21.623  0.00  0.00     0.001 A 
ATOM      7  C   UNL d   1     -41.206  14.376  20.874  0.00  0.00     0.001 C 
ATOM      8  C   UNL d   1     -39.570  15.621  21.672  0.00  0.00     0.000 A 
ATOM      9  C   UNL d   1     -39.098  15.755  20.950  0.00  0.00     0.001 A 
ATOM     10  C   UNL d   1     -39.384  15.918  22.419  0.00  0.00     0.000 C 
ATOM     11  C   UNL d   1     -39.349  15.432  20.270  0.00  0.00     0.013 A 
ENDBRANCH   1   4
BRANCH   1  12
ATOM     12  N   UNL d   1     -40.535  14.284  18.790  0.00  0.00    -0.158 NA
BRANCH  12  13
ATOM     13  C   UNL d   1     -40.178  14.508  18.043  0.00  0.00     0.094 A 
ATOM     14  C   UNL d   1     -39.559  14.081  17.717  0.00  0.00     0.029 A 
ATOM     15  C   UNL d   1     -39.224  14.292  17.015  0.00  0.00     0.059 A 
ATOM     16  S   UNL d   1     -38.594  13.947  16.577  0.00  0.00    -0.018 SA
ATOM     17  C   UNL d   1     -39.491  14.940  16.605  0.00  0.00     0.110 A 
ATOM     18  C   UNL d   1     -38.532  14.437  15.911  0.00  0.00     0.332 A 
ATOM     19  O   UNL d   1     -37.945  14.279  15.309  0.00  0.00    -0.251 OA
ATOM     20  O   UNL d   1     -39.045  15.015  15.914  0.00  0.00    -0.268 OA
ATOM     21  C   UNL d   1     -40.092  15.378  16.892  0.00  0.00     0.027 A 
ATOM     22  C   UNL d   1     -40.463  15.188  17.618  0.00  0.00     0.022 A 
ENDBRANCH  12  13
ENDBRANCH   1  12
TORSDOF 3
ENDMDL
MODEL 4
REMARK VINA RESULT:      -6.5      8.051      9.411
REMARK  3 active torsions:
REMARK  status: ('A' for Active; 'I' for Inactive)
REMARK    1  A    between atoms: C_4  and  S_1 
REMARK    2  A    between atoms: N_7  and  S_1 
REMARK    3  A    between atoms: C_14  and  N_7 
ROOT
ATOM      1  S   UNL d   1     -40.182  14.764  18.360  0.00  0.00     0.285 S 
ATOM      2  O   UNL d   1     -39.729  15.434  18.420  0.00  0.00    -0.198 OA
ATOM      3  O   UNL d   1     -40.667  14.063  18.307  0.00  0.00    -0.198 OA
ENDROOT
BRANCH   1   4
ATOM      4  C   UNL d   1     -39.693  14.473  17.745  0.00  0.00     0.105 A 
ATOM      5  C   UNL d   1     -39.747  14.791  17.006  0.00  0.00     0.012 A 
ATOM      6  C   UNL d   1     -39.248  14.490  16.388  0.00  0.00     0.001 A 
ATOM      7  C   UNL d   1     -40.294  15.421  16.834  0.00  0.00     0.001 C 
ATOM      8  C   UNL d   1     -38.726  13.902  16.516  0.00  0.00     0.000 A 
ATOM      9  C   UNL d   1     -38.667  13.557  17.316  0.00  0.00     0.001 A 
ATOM     10  C   UNL d   1     -38.277  13.665  15.866  0.00  0.00     0.000 C 
ATOM     11  C   UNL d   1     -39.138  13.844  17.887  0.00  0.00     0.013 A 
ENDBRANCH   1   4
BRANCH   1  12
ATOM     12  N   UNL d   1     -40.675  15.027  18.959  0.00  0.00    -0.158 NA
BRANCH  12  13
ATOM     13  C   UNL d   1     -40.465  14.938  19.786  0.00  0.00     0.094 A 
ATOM     14  C   UNL d   1     -40.027  15.507  20.181  0.00  0.00     0.029 A 
ATOM     15  C   UNL d   1     -39.829  15.423  20.958  0.00  0.00     0.059 A 
ATOM     16  S   UNL d   1     -39.392  15.922  21.475  0.00  0.00    -0.018 SA
ATOM     17  C   UNL d   1     -40.059  14.766  21.377  0.00  0.00     0.110 A 
ATOM     18  C   UNL d   1     -39.396  15.506  22.192  0.00  0.00     0.332 A 
ATOM     19  O   UNL d   1     -39.002  15.827  22.881  0.00  0.00    -0.251 OA
ATOM     20  O   UNL d   1     -39.778  14.836  22.150  0.00  0.00    -0.268 OA
ATOM     21  C   UNL d   1     -40.486  14.193  21.023  0.00  0.00     0.027 A 
ATOM     22  C   UNL d   1     -40.708  14.248  20.219  0.00  0.00     0.022 A 
ENDBRANCH  12  13
ENDBRANCH   1  12
TORSDOF 3
ENDMDL
MODEL 5
REMARK VINA RESULT:      -5.9      8.729      9.308
REMARK  3 active torsions:
REMARK  status: ('A' for Active; 'I' for Inactive)
REMARK    1  A    between atoms: C_4  and  S_1 
REMARK    2  A    between atoms: N_7  and  S_1 
REMARK    3  A    between atoms: C_14  and  N_7 
ROOT
ATOM      1  S   UNL d   1     -39.561  14.651  18.753  0.00  0.00     0.285 S 
ATOM      2  O   UNL d   1     -38.962  15.138  18.504  0.00  0.00    -0.198 OA
ATOM      3  O   UNL d   1     -40.182  14.132  19.025  0.00  0.00    -0.198 OA
ENDROOT
BRANCH   1   4
ATOM      4  C   UNL d   1     -40.083  14.981  18.187  0.00  0.00     0.105 A 
ATOM      5  C   UNL d   1     -40.071  14.713  17.427  0.00  0.00     0.012 A 
ATOM      6  C   UNL d   1     -40.604  15.053  16.859  0.00  0.00     0.001 A 
ATOM      7  C   UNL d   1     -39.536  14.097  17.183  0.00  0.00     0.001 C 
ATOM      8  C   UNL d   1     -41.116  15.631  17.055  0.00  0.00     0.000 A 
ATOM      9  C   UNL d   1     -41.130  15.921  17.878  0.00  0.00     0.001 A 
ATOM     10  C   UNL d   1     -41.600  15.909  16.448  0.00  0.00     0.000 C 
ATOM     11  C   UNL d   1     -40.628  15.598  18.401  0.00  0.00     0.013 A 
ENDBRANCH   1   4
BRANCH   1  12
ATOM     12  N   UNL d   1     -39.070  14.312  19.314  0.00  0.00    -0.158 NA
BRANCH  12  13
ATOM     13  C   UNL d   1     -38.838  14.736  20.023  0.00  0.00     0.094 A 
ATOM     14  C   UNL d   1     -39.195  14.590  20.746  0.00  0.00     0.029 A 
ATOM     15  C   UNL d   1     -38.977  14.988  21.413  0.00  0.00     0.059 A 
ATOM     16  S   UNL d   1     -39.257  14.937  22.204  0.00  0.00    -0.018 SA
ATOM     17  C   UNL d   1     -38.393  15.551  21.388  0.00  0.00     0.110 A 
ATOM     18  C   UNL d   1     -38.797  15.497  22.607  0.00  0.00     0.332 A 
ATOM     19  O   UNL d   1     -38.906  15.625  23.446  0.00  0.00    -0.251 OA
ATOM     20  O   UNL d   1     -38.293  15.860  22.147  0.00  0.00    -0.268 OA
ATOM     21  C   UNL d   1     -38.024  15.718  20.700  0.00  0.00     0.027 A 
ATOM     22  C   UNL d   1     -38.225  15.324  19.990  0.00  0.00     0.022 A 
ENDBRANCH  12  13
ENDBRANCH   1  12
TORSDOF 3
ENDMDL
