MODEL 1
REMARK VINA RESULT:      -2.6      0.000      0.000
REMARK  6 active torsions:
REMARK  status: ('A' for Active; 'I' for Inactive)
REMARK    1  A    between atoms: C_7  and  C_1 
REMARK       I    between atoms: C_2  and  N_4 
REMARK    2  A    between atoms: C_10  and  C_2 
REMARK    3  A    between atoms: N_4  and  C_3 
REMARK    4  A    between atoms: O_20  and  C_5 
REMARK    5  A    between atoms: O_21  and  C_7 
REMARK    6  A    between atoms: C_11  and  C_12 
ROOT
ATOM      1  C   UNL d   1      57.151   0.013  32.505  0.00  0.00     0.086 A 
ATOM      2  C   UNL d   1      57.598  -0.451  30.977  0.00  0.00     0.148 A 
ATOM      3  C   UNL d   1      56.821  -0.661  32.143  0.00  0.00     0.102 A 
ATOM      4  C   UNL d   1      57.718   0.460  32.086  0.00  0.00     0.021 A 
ATOM      5  C   UNL d   1      57.043  -0.889  31.387  0.00  0.00     0.057 A 
ATOM      6  C   UNL d   1      57.944   0.227  31.316  0.00  0.00     0.088 A 
ATOM      7 CL   UNL d   1      58.501   0.671  30.910  0.00  0.00    -0.080 Cl
ENDROOT
BRANCH   2   8
ATOM      8  N   UNL d   1      57.837  -0.666  30.210  0.00  0.00    -0.364 NA
ATOM      9  C   UNL d   1      58.094  -0.905  29.458  0.00  0.00     0.328 C 
ATOM     10  O   UNL d   1      57.808  -0.506  28.806  0.00  0.00    -0.251 OA
BRANCH   9  11
ATOM     11  C   UNL d   1      58.613  -1.516  29.386  0.00  0.00     0.070 A 
ATOM     12  C   UNL d   1      58.332  -2.292  29.402  0.00  0.00     0.006 A 
ATOM     13  C   UNL d   1      58.851  -2.930  29.329  0.00  0.00    -0.004 A 
ATOM     14  C   UNL d   1      59.668  -2.792  29.238  0.00  0.00    -0.023 A 
ATOM     15  C   UNL d   1      59.953  -2.022  29.221  0.00  0.00    -0.004 A 
ATOM     16  C   UNL d   1      59.418  -1.389  29.296  0.00  0.00     0.006 A 
BRANCH  14  17
ATOM     17  C   UNL d   1      60.181  -3.444  29.165  0.00  0.00     0.019 C 
ATOM     18  C   UNL d   1      60.133  -3.937  28.518  0.00  0.00     0.004 C 
ATOM     19  C   UNL d   1      60.738  -3.574  29.766  0.00  0.00     0.004 C 
ATOM     20  C   UNL d   1      59.711  -3.477  28.489  0.00  0.00     0.004 C 
ENDBRANCH  14  17
ENDBRANCH   9  11
ENDBRANCH   2   8
BRANCH   3  21
ATOM     21  O   UNL d   1      56.266  -1.105  32.545  0.00  0.00    -0.328 OA
ATOM     22  C   UNL d   1      56.132  -1.905  32.322  0.00  0.00     0.181 C 
ENDBRANCH   3  21
BRANCH   1  23
ATOM     23  C   UNL d   1      56.923   0.231  33.256  0.00  0.00     0.298 C 
ATOM     24  O   UNL d   1      56.138   0.108  33.504  0.00  0.00    -0.259 OA
BRANCH  23  25
ATOM     25  O   UNL d   1      57.467   0.572  33.767  0.00  0.00    -0.296 OA
ATOM     26  C   UNL d   1      57.316   0.621  34.581  0.00  0.00     0.185 C 
ENDBRANCH  23  25
ENDBRANCH   1  23
TORSDOF 6
ENDMDL
