MODEL 1
REMARK VINA RESULT:       0.7      0.000      0.000
REMARK  6 active torsions:
REMARK  status: ('A' for Active; 'I' for Inactive)
REMARK    1  A    between atoms: C_9  and  C_1 
REMARK    2  A    between atoms: N_4  and  C_2 
REMARK       I    between atoms: C_5  and  N_4 
REMARK    3  A    between atoms: C_7  and  C_5 
REMARK    4  A    between atoms: O_13  and  C_9 
REMARK    5  A    between atoms: O_16  and  C_11 
REMARK    6  A    between atoms: C_19  and  O_13 
ROOT
ATOM      1  C   UNL d   1     -41.244-121.415 -52.109  0.00  0.00     0.181 A 
ATOM      2  C   UNL d   1     -41.223-122.213 -51.876  0.00  0.00     0.115 A 
ATOM      3  O   UNL d   1     -41.256-121.406 -52.938  0.00  0.00    -0.300 OA
ATOM      4  C   UNL d   1     -41.222-122.676 -52.550  0.00  0.00     0.043 A 
ATOM      5  C   UNL d   1     -41.243-122.179 -53.210  0.00  0.00     0.102 A 
ATOM      6  C   UNL d   1     -41.205-123.494 -52.653  0.00  0.00     0.004 A 
ATOM      7  C   UNL d   1     -41.247-122.498 -53.964  0.00  0.00     0.025 A 
ATOM      8  C   UNL d   1     -41.210-123.816 -53.417  0.00  0.00     0.000 A 
ATOM      9  C   UNL d   1     -41.231-123.310 -54.072  0.00  0.00     0.002 A 
ENDROOT
BRANCH   2  10
ATOM     10  N   UNL d   1     -41.205-122.487 -51.090  0.00  0.00    -0.206 NA
ATOM     11  C   UNL d   1     -41.883-122.812 -50.755  0.00  0.00     0.281 C 
ATOM     12  O   UNL d   1     -42.579-122.866 -51.193  0.00  0.00    -0.265 OA
BRANCH  11  13
ATOM     13  C   UNL d   1     -41.865-123.083 -49.980  0.00  0.00     0.080 A 
ATOM     14  C   UNL d   1     -42.561-123.077 -49.517  0.00  0.00     0.099 A 
ATOM     15  C   UNL d   1     -42.530-123.349 -48.746  0.00  0.00     0.024 A 
ATOM     16  C   UNL d   1     -41.813-123.627 -48.430  0.00  0.00     0.002 A 
ATOM     17  C   UNL d   1     -41.137-123.628 -48.890  0.00  0.00     0.000 A 
ATOM     18  C   UNL d   1     -41.159-123.358 -49.663  0.00  0.00     0.007 A 
BRANCH  14  19
ATOM     19  O   UNL d   1     -43.259-122.800 -49.844  0.00  0.00    -0.328 OA
ATOM     20  C   UNL d   1     -43.963-122.933 -49.435  0.00  0.00     0.181 C 
ENDBRANCH  14  19
ENDBRANCH  11  13
ENDBRANCH   2  10
BRANCH   1  21
ATOM     21  C   UNL d   1     -41.251-120.758 -51.609  0.00  0.00     0.325 C 
ATOM     22  O   UNL d   1     -41.387-120.859 -50.798  0.00  0.00    -0.257 OA
BRANCH  21  23
ATOM     23  O   UNL d   1     -41.124-120.011 -51.918  0.00  0.00    -0.269 OA
BRANCH  23  24
ATOM     24  C   UNL d   1     -41.201-119.342 -51.430  0.00  0.00     0.126 C 
ATOM     25  C   UNL d   1     -41.270-118.590 -51.775  0.00  0.00     0.029 C 
ENDBRANCH  23  24
ENDBRANCH  21  23
ENDBRANCH   1  21
TORSDOF 6
ENDMDL
