MODEL 1
REMARK VINA RESULT:      24.2      0.000      0.000
REMARK  0 active torsions:
REMARK  status: ('A' for Active; 'I' for Inactive)
ROOT
ATOM      1  C   UNL d   1      58.680  49.691  51.073  0.00  0.00     0.150 A 
ATOM      2  N   UNL d   1      58.496  49.687  50.262  0.00  0.00    -0.275 N 
ATOM      3  N   UNL d   1      57.989  49.688  51.503  0.00  0.00    -0.227 NA
ATOM      4  C   UNL d   1      59.044  49.688  49.666  0.00  0.00     0.149 A 
ATOM      5  N   UNL d   1      59.840  49.694  49.869  0.00  0.00    -0.228 NA
ATOM      6  C   UNL d   1      59.485  49.697  51.259  0.00  0.00     0.052 A 
ATOM      7  C   UNL d   1      57.660  49.682  50.237  0.00  0.00     0.084 A 
ATOM      8  C   UNL d   1      60.072  49.698  50.650  0.00  0.00     0.086 A 
ATOM      9  C   UNL d   1      57.359  49.683  50.960  0.00  0.00     0.099 A 
ATOM     10  C   UNL d   1      58.842  49.684  48.868  0.00  0.00     0.041 C 
ATOM     11  C   UNL d   1      59.710  49.701  52.063  0.00  0.00     0.004 A 
ATOM     12  C   UNL d   1      57.141  49.676  49.572  0.00  0.00     0.019 A 
ATOM     13  C   UNL d   1      60.864  49.704  50.862  0.00  0.00     0.019 A 
ATOM     14  C   UNL d   1      56.537  49.678  51.070  0.00  0.00     0.021 A 
ATOM     15  C   UNL d   1      60.515  49.707  52.250  0.00  0.00     0.000 A 
ATOM     16  C   UNL d   1      56.310  49.672  49.703  0.00  0.00     0.002 A 
ATOM     17  C   UNL d   1      56.035  49.672  50.417  0.00  0.00     0.002 A 
ATOM     18  C   UNL d   1      61.083  49.708  51.657  0.00  0.00     0.002 A 
ENDROOT
TORSDOF 0
ENDMDL
MODEL 2
REMARK VINA RESULT:      25.0      0.619      3.540
REMARK  0 active torsions:
REMARK  status: ('A' for Active; 'I' for Inactive)
ROOT
ATOM      1  C   UNL d   1      58.587  49.695  50.077  0.00  0.00     0.150 A 
ATOM      2  N   UNL d   1      58.739  49.695  50.895  0.00  0.00    -0.275 N 
ATOM      3  N   UNL d   1      59.294  49.695  49.675  0.00  0.00    -0.227 NA
ATOM      4  C   UNL d   1      58.168  49.695  51.468  0.00  0.00     0.149 A 
ATOM      5  N   UNL d   1      57.380  49.694  51.234  0.00  0.00    -0.228 NA
ATOM      6  C   UNL d   1      57.790  49.694  49.859  0.00  0.00     0.052 A 
ATOM      7  C   UNL d   1      59.574  49.696  50.953  0.00  0.00     0.084 A 
ATOM      8  C   UNL d   1      57.180  49.694  50.445  0.00  0.00     0.086 A 
ATOM      9  C   UNL d   1      59.903  49.696  50.242  0.00  0.00     0.099 A 
ATOM     10  C   UNL d   1      58.338  49.695  52.274  0.00  0.00     0.041 C 
ATOM     11  C   UNL d   1      57.597  49.694  49.047  0.00  0.00     0.004 A 
ATOM     12  C   UNL d   1      60.066  49.696  51.638  0.00  0.00     0.019 A 
ATOM     13  C   UNL d   1      56.396  49.694  50.202  0.00  0.00     0.019 A 
ATOM     14  C   UNL d   1      60.729  49.696  50.165  0.00  0.00     0.021 A 
ATOM     15  C   UNL d   1      56.800  49.694  48.829  0.00  0.00     0.000 A 
ATOM     16  C   UNL d   1      60.902  49.696  51.539  0.00  0.00     0.002 A 
ATOM     17  C   UNL d   1      61.205  49.696  50.836  0.00  0.00     0.002 A 
ATOM     18  C   UNL d   1      56.209  49.694  49.398  0.00  0.00     0.002 A 
ENDROOT
TORSDOF 0
ENDMDL
