MODEL 1
REMARK VINA RESULT:      -2.7      0.000      0.000
REMARK  5 active torsions:
REMARK  status: ('A' for Active; 'I' for Inactive)
REMARK    1  A    between atoms: C_5  and  C_1 
REMARK    2  A    between atoms: C_2  and  C_5 
REMARK    3  A    between atoms: C_7  and  C_2 
REMARK    4  A    between atoms: N_4  and  C_11 
REMARK       I    between atoms: N_12  and  C_7 
REMARK    5  A    between atoms: C_17  and  N_12 
ROOT
ATOM      1  C   UNL d   1      32.226  17.291 -24.082  0.00  0.00     0.126 C 
ATOM      2  C   UNL d   1      32.575  16.781 -23.546  0.00  0.00     0.106 C 
ATOM      3  N   UNL d   1      32.926  16.263 -23.003  0.00  0.00    -0.191 NA
ENDROOT
BRANCH   1   4
ATOM      4  C   UNL d   1      32.644  17.952 -24.356  0.00  0.00     0.017 C 
BRANCH   4   5
ATOM      5  C   UNL d   1      32.806  18.580 -23.848  0.00  0.00     0.020 A 
ATOM      6  C   UNL d   1      32.865  18.529 -23.023  0.00  0.00     0.080 A 
ATOM      7  N   UNL d   1      33.035  19.291 -22.733  0.00  0.00    -0.303 N 
ATOM      8  C   UNL d   1      33.139  19.496 -21.945  0.00  0.00     0.100 C 
ATOM      9  C   UNL d   1      33.081  19.809 -23.383  0.00  0.00     0.064 A 
ATOM     10  C   UNL d   1      32.938  19.364 -24.074  0.00  0.00     0.018 A 
ATOM     11  C   UNL d   1      33.231  20.618 -23.439  0.00  0.00     0.018 A 
ATOM     12  C   UNL d   1      32.949  19.737 -24.808  0.00  0.00     0.002 A 
ATOM     13  C   UNL d   1      33.100  20.543 -24.857  0.00  0.00     0.000 A 
ATOM     14  C   UNL d   1      33.241  20.983 -24.178  0.00  0.00     0.002 A 
ENDBRANCH   4   5
ENDBRANCH   1   4
BRANCH   1  15
ATOM     15  C   UNL d   1      31.456  17.150 -24.354  0.00  0.00     0.289 C 
ATOM     16  N   UNL d   1      30.974  16.616 -23.947  0.00  0.00    -0.207 NA
ATOM     17  O   UNL d   1      31.178  17.537 -25.020  0.00  0.00    -0.264 OA
BRANCH  16  18
ATOM     18  C   UNL d   1      30.197  16.377 -24.096  0.00  0.00     0.086 A 
ATOM     19  C   UNL d   1      29.573  16.755 -23.725  0.00  0.00     0.043 A 
ATOM     20  C   UNL d   1      28.798  16.517 -23.874  0.00  0.00     0.128 A 
ATOM     21  C   UNL d   1      28.656  15.890 -24.405  0.00  0.00     0.024 A 
ATOM     22  C   UNL d   1      29.294  15.515 -24.775  0.00  0.00     0.003 A 
ATOM     23  C   UNL d   1      30.059  15.760 -24.619  0.00  0.00     0.019 A 
BRANCH  20  24
ATOM     24  N   UNL d   1      28.165  16.896 -23.501  0.00  0.00    -0.114 N 
ATOM     25  O   UNL d   1      28.091  17.715 -23.557  0.00  0.00    -0.532 OA
ATOM     26  O   UNL d   1      27.610  16.450 -23.075  0.00  0.00    -0.532 OA
ENDBRANCH  20  24
ENDBRANCH  16  18
ENDBRANCH   1  15
TORSDOF 5
ENDMDL
MODEL 2
REMARK VINA RESULT:      -1.8      1.725      2.835
REMARK  5 active torsions:
REMARK  status: ('A' for Active; 'I' for Inactive)
REMARK    1  A    between atoms: C_5  and  C_1 
REMARK    2  A    between atoms: C_2  and  C_5 
REMARK    3  A    between atoms: C_7  and  C_2 
REMARK    4  A    between atoms: N_4  and  C_11 
REMARK       I    between atoms: N_12  and  C_7 
REMARK    5  A    between atoms: C_17  and  N_12 
ROOT
ATOM      1  C   UNL d   1      33.084  19.608 -22.734  0.00  0.00     0.126 C 
ATOM      2  C   UNL d   1      33.161  19.263 -21.996  0.00  0.00     0.106 C 
ATOM      3  N   UNL d   1      33.239  18.911 -21.250  0.00  0.00    -0.191 NA
ENDROOT
BRANCH   1   4
ATOM      4  C   UNL d   1      33.241  20.415 -22.831  0.00  0.00     0.017 C 
BRANCH   4   5
ATOM      5  C   UNL d   1      32.930  20.965 -22.302  0.00  0.00     0.020 A 
ATOM      6  C   UNL d   1      32.553  20.785 -21.587  0.00  0.00     0.080 A 
ATOM      7  N   UNL d   1      32.328  21.503 -21.230  0.00  0.00    -0.303 N 
ATOM      8  C   UNL d   1      31.937  21.585 -20.513  0.00  0.00     0.100 C 
ATOM      9  C   UNL d   1      32.568  22.124 -21.729  0.00  0.00     0.064 A 
ATOM     10  C   UNL d   1      32.942  21.787 -22.394  0.00  0.00     0.018 A 
ATOM     11  C   UNL d   1      32.498  22.944 -21.670  0.00  0.00     0.018 A 
ATOM     12  C   UNL d   1      33.238  22.276 -22.987  0.00  0.00     0.002 A 
ATOM     13  C   UNL d   1      33.165  23.091 -22.921  0.00  0.00     0.000 A 
ATOM     14  C   UNL d   1      32.797  23.426 -22.268  0.00  0.00     0.002 A 
ENDBRANCH   4   5
ENDBRANCH   1   4
BRANCH   1  15
ATOM     15  C   UNL d   1      32.848  19.153 -23.386  0.00  0.00     0.289 C 
ATOM     16  N   UNL d   1      32.413  18.462 -23.262  0.00  0.00    -0.207 NA
ATOM     17  O   UNL d   1      33.047  19.390 -24.145  0.00  0.00    -0.264 OA
BRANCH  16  18
ATOM     18  C   UNL d   1      32.114  17.916 -23.805  0.00  0.00     0.086 A 
ATOM     19  C   UNL d   1      31.305  17.808 -23.875  0.00  0.00     0.043 A 
ATOM     20  C   UNL d   1      31.006  17.262 -24.416  0.00  0.00     0.128 A 
ATOM     21  C   UNL d   1      31.532  16.824 -24.890  0.00  0.00     0.024 A 
ATOM     22  C   UNL d   1      32.349  16.941 -24.813  0.00  0.00     0.003 A 
ATOM     23  C   UNL d   1      32.633  17.485 -24.271  0.00  0.00     0.019 A 
BRANCH  20  24
ATOM     24  N   UNL d   1      30.190  17.150 -24.490  0.00  0.00    -0.114 N 
ATOM     25  O   UNL d   1      29.803  16.635 -23.975  0.00  0.00    -0.532 OA
ATOM     26  O   UNL d   1      29.769  17.553 -25.079  0.00  0.00    -0.532 OA
ENDBRANCH  20  24
ENDBRANCH  16  18
ENDBRANCH   1  15
TORSDOF 5
ENDMDL
MODEL 3
REMARK VINA RESULT:      -1.7      2.376      4.900
REMARK  5 active torsions:
REMARK  status: ('A' for Active; 'I' for Inactive)
REMARK    1  A    between atoms: C_5  and  C_1 
REMARK    2  A    between atoms: C_2  and  C_5 
REMARK    3  A    between atoms: C_7  and  C_2 
REMARK    4  A    between atoms: N_4  and  C_11 
REMARK       I    between atoms: N_12  and  C_7 
REMARK    5  A    between atoms: C_17  and  N_12 
ROOT
ATOM      1  C   UNL d   1      33.074  18.752 -23.277  0.00  0.00     0.126 C 
ATOM      2  C   UNL d   1      33.156  18.293 -22.605  0.00  0.00     0.106 C 
ATOM      3  N   UNL d   1      33.240  17.829 -21.924  0.00  0.00    -0.191 NA
ENDROOT
BRANCH   1   4
ATOM      4  C   UNL d   1      33.020  18.391 -24.020  0.00  0.00     0.017 C 
BRANCH   4   5
ATOM      5  C   UNL d   1      32.398  17.878 -24.189  0.00  0.00     0.020 A 
ATOM      6  C   UNL d   1      31.594  18.044 -24.075  0.00  0.00     0.080 A 
ATOM      7  N   UNL d   1      31.160  17.375 -24.317  0.00  0.00    -0.303 N 
ATOM      8  C   UNL d   1      30.343  17.297 -24.301  0.00  0.00     0.100 C 
ATOM      9  C   UNL d   1      31.700  16.800 -24.580  0.00  0.00     0.064 A 
ATOM     10  C   UNL d   1      32.469  17.115 -24.499  0.00  0.00     0.018 A 
ATOM     11  C   UNL d   1      31.599  16.037 -24.879  0.00  0.00     0.018 A 
ATOM     12  C   UNL d   1      33.120  16.662 -24.719  0.00  0.00     0.002 A 
ATOM     13  C   UNL d   1      33.012  15.904 -25.016  0.00  0.00     0.000 A 
ATOM     14  C   UNL d   1      32.257  15.591 -25.097  0.00  0.00     0.002 A 
ENDBRANCH   4   5
ENDBRANCH   1   4
BRANCH   1  15
ATOM     15  C   UNL d   1      33.045  19.578 -23.218  0.00  0.00     0.289 C 
ATOM     16  N   UNL d   1      32.972  19.929 -22.473  0.00  0.00    -0.207 NA
ATOM     17  O   UNL d   1      33.088  20.040 -23.893  0.00  0.00    -0.264 OA
BRANCH  16  18
ATOM     18  C   UNL d   1      32.930  20.726 -22.261  0.00  0.00     0.086 A 
ATOM     19  C   UNL d   1      32.586  20.945 -21.551  0.00  0.00     0.043 A 
ATOM     20  C   UNL d   1      32.544  21.740 -21.339  0.00  0.00     0.128 A 
ATOM     21  C   UNL d   1      32.855  22.318 -21.852  0.00  0.00     0.024 A 
ATOM     22  C   UNL d   1      33.202  22.088 -22.568  0.00  0.00     0.003 A 
ATOM     23  C   UNL d   1      33.237  21.294 -22.767  0.00  0.00     0.019 A 
BRANCH  20  24
ATOM     24  N   UNL d   1      32.197  21.965 -20.623  0.00  0.00    -0.114 N 
ATOM     25  O   UNL d   1      31.375  21.990 -20.560  0.00  0.00    -0.532 OA
ATOM     26  O   UNL d   1      32.675  22.164 -19.976  0.00  0.00    -0.532 OA
ENDBRANCH  20  24
ENDBRANCH  16  18
ENDBRANCH   1  15
TORSDOF 5
ENDMDL
MODEL 4
REMARK VINA RESULT:      -1.2      2.038      4.664
REMARK  5 active torsions:
REMARK  status: ('A' for Active; 'I' for Inactive)
REMARK    1  A    between atoms: C_5  and  C_1 
REMARK    2  A    between atoms: C_2  and  C_5 
REMARK    3  A    between atoms: C_7  and  C_2 
REMARK    4  A    between atoms: N_4  and  C_11 
REMARK       I    between atoms: N_12  and  C_7 
REMARK    5  A    between atoms: C_17  and  N_12 
ROOT
ATOM      1  C   UNL d   1      32.527  18.065 -23.806  0.00  0.00     0.126 C 
ATOM      2  C   UNL d   1      32.868  17.362 -23.561  0.00  0.00     0.106 C 
ATOM      3  N   UNL d   1      33.214  16.652 -23.313  0.00  0.00    -0.191 NA
ENDROOT
BRANCH   1   4
ATOM      4  C   UNL d   1      31.921  18.056 -24.371  0.00  0.00     0.017 C 
BRANCH   4   5
ATOM      5  C   UNL d   1      31.286  17.537 -24.290  0.00  0.00     0.020 A 
ATOM      6  C   UNL d   1      31.321  16.785 -23.944  0.00  0.00     0.080 A 
ATOM      7  N   UNL d   1      30.557  16.453 -23.979  0.00  0.00    -0.303 N 
ATOM      8  C   UNL d   1      30.337  15.714 -23.700  0.00  0.00     0.100 C 
ATOM      9  C   UNL d   1      30.055  17.005 -24.348  0.00  0.00     0.064 A 
ATOM     10  C   UNL d   1      30.511  17.677 -24.540  0.00  0.00     0.018 A 
ATOM     11  C   UNL d   1      29.251  16.988 -24.534  0.00  0.00     0.018 A 
ATOM     12  C   UNL d   1      30.154  18.318 -24.915  0.00  0.00     0.002 A 
ATOM     13  C   UNL d   1      29.354  18.294 -25.097  0.00  0.00     0.000 A 
ATOM     14  C   UNL d   1      28.903  17.634 -24.909  0.00  0.00     0.002 A 
ENDBRANCH   4   5
ENDBRANCH   1   4
BRANCH   1  15
ATOM     15  C   UNL d   1      32.785  18.787 -23.491  0.00  0.00     0.289 C 
ATOM     16  N   UNL d   1      32.580  18.988 -22.716  0.00  0.00    -0.207 NA
ATOM     17  O   UNL d   1      33.240  19.294 -23.947  0.00  0.00    -0.264 OA
BRANCH  16  18
ATOM     18  C   UNL d   1      32.762  19.662 -22.275  0.00  0.00     0.086 A 
ATOM     19  C   UNL d   1      32.652  20.406 -22.597  0.00  0.00     0.043 A 
ATOM     20  C   UNL d   1      32.834  21.079 -22.156  0.00  0.00     0.128 A 
ATOM     21  C   UNL d   1      33.129  20.995 -21.381  0.00  0.00     0.024 A 
ATOM     22  C   UNL d   1      33.237  20.237 -21.064  0.00  0.00     0.003 A 
ATOM     23  C   UNL d   1      33.053  19.577 -21.512  0.00  0.00     0.019 A 
BRANCH  20  24
ATOM     24  N   UNL d   1      32.724  21.833 -22.477  0.00  0.00    -0.114 N 
ATOM     25  O   UNL d   1      33.102  22.033 -23.183  0.00  0.00    -0.532 OA
ATOM     26  O   UNL d   1      32.237  22.381 -22.090  0.00  0.00    -0.532 OA
ENDBRANCH  20  24
ENDBRANCH  16  18
ENDBRANCH   1  15
TORSDOF 5
ENDMDL
