MODEL 1
REMARK VINA RESULT:      -3.2      0.000      0.000
REMARK  3 active torsions:
REMARK  status: ('A' for Active; 'I' for Inactive)
REMARK    1  A    between atoms: C_4  and  N_1 
REMARK    2  A    between atoms: C_6  and  C_4 
REMARK       I    between atoms: N_8  and  C_6 
REMARK    3  A    between atoms: C_10  and  N_8 
ROOT
ATOM      1  C   UNL d   1      31.773  16.646 -23.879  0.00  0.00     0.165 C 
ENDROOT
BRANCH   1   2
ATOM      2  N   UNL d   1      31.011  16.370 -23.703  0.00  0.00    -0.204 N 
ATOM      3  N   UNL d   1      30.828  15.755 -23.173  0.00  0.00    -0.059 NA
ATOM      4  N   UNL d   1      30.008  15.662 -23.165  0.00  0.00    -0.129 NA
ATOM      5  C   UNL d   1      29.679  16.214 -23.686  0.00  0.00     0.122 A 
ATOM      6  C   UNL d   1      30.302  16.654 -24.020  0.00  0.00     0.104 A 
ATOM      7  C   UNL d   1      28.901  16.374 -23.900  0.00  0.00     0.022 A 
ATOM      8  C   UNL d   1      30.141  17.249 -24.564  0.00  0.00     0.021 A 
ATOM      9  C   UNL d   1      29.363  17.410 -24.778  0.00  0.00     0.002 A 
ATOM     10  C   UNL d   1      28.746  16.975 -24.448  0.00  0.00     0.002 A 
ENDBRANCH   1   2
BRANCH   1  11
ATOM     11  C   UNL d   1      32.471  16.244 -24.056  0.00  0.00     0.299 C 
ATOM     12  N   UNL d   1      33.069  16.796 -23.942  0.00  0.00    -0.207 NA
ATOM     13  O   UNL d   1      32.443  15.453 -24.289  0.00  0.00    -0.263 OA
BRANCH  12  14
ATOM     14  C   UNL d   1      33.092  17.586 -23.709  0.00  0.00     0.085 A 
ATOM     15  C   UNL d   1      33.128  18.183 -24.280  0.00  0.00     0.019 A 
ATOM     16  C   UNL d   1      33.152  18.974 -24.047  0.00  0.00     0.002 A 
ATOM     17  C   UNL d   1      33.187  19.569 -24.613  0.00  0.00     0.000 C 
ATOM     18  C   UNL d   1      33.140  19.167 -23.243  0.00  0.00     0.000 A 
ATOM     19  C   UNL d   1      33.104  18.565 -22.670  0.00  0.00     0.002 A 
ATOM     20  C   UNL d   1      33.081  17.778 -22.902  0.00  0.00     0.019 A 
ENDBRANCH  12  14
ENDBRANCH   1  11
TORSDOF 3
ENDMDL
MODEL 2
REMARK VINA RESULT:      -2.0      1.713      2.479
REMARK  3 active torsions:
REMARK  status: ('A' for Active; 'I' for Inactive)
REMARK    1  A    between atoms: C_4  and  N_1 
REMARK    2  A    between atoms: C_6  and  C_4 
REMARK       I    between atoms: N_8  and  C_6 
REMARK    3  A    between atoms: C_10  and  N_8 
ROOT
ATOM      1  C   UNL d   1      30.729  17.028 -24.365  0.00  0.00     0.165 C 
ENDROOT
BRANCH   1   2
ATOM      2  N   UNL d   1      29.929  16.836 -24.468  0.00  0.00    -0.204 N 
ATOM      3  N   UNL d   1      29.442  17.101 -25.087  0.00  0.00    -0.059 NA
ATOM      4  N   UNL d   1      28.690  16.778 -24.976  0.00  0.00    -0.129 NA
ATOM      5  C   UNL d   1      28.705  16.314 -24.292  0.00  0.00     0.122 A 
ATOM      6  C   UNL d   1      29.475  16.350 -23.976  0.00  0.00     0.104 A 
ATOM      7  C   UNL d   1      28.126  15.866 -23.917  0.00  0.00     0.022 A 
ATOM      8  C   UNL d   1      29.657  15.937 -23.288  0.00  0.00     0.021 A 
ATOM      9  C   UNL d   1      29.078  15.489 -22.912  0.00  0.00     0.002 A 
ATOM     10  C   UNL d   1      28.316  15.454 -23.225  0.00  0.00     0.002 A 
ENDBRANCH   1   2
BRANCH   1  11
ATOM     11  C   UNL d   1      31.119  17.754 -24.363  0.00  0.00     0.299 C 
ATOM     12  N   UNL d   1      31.919  17.566 -24.352  0.00  0.00    -0.207 NA
ATOM     13  O   UNL d   1      30.684  18.456 -24.372  0.00  0.00    -0.263 OA
BRANCH  12  14
ATOM     14  C   UNL d   1      32.349  16.863 -24.342  0.00  0.00     0.085 A 
ATOM     15  C   UNL d   1      32.569  16.524 -23.621  0.00  0.00     0.019 A 
ATOM     16  C   UNL d   1      33.000  15.821 -23.612  0.00  0.00     0.002 A 
ATOM     17  C   UNL d   1      33.220  15.482 -22.895  0.00  0.00     0.000 C 
ATOM     18  C   UNL d   1      33.211  15.457 -24.324  0.00  0.00     0.000 A 
ATOM     19  C   UNL d   1      32.989  15.800 -25.048  0.00  0.00     0.002 A 
ATOM     20  C   UNL d   1      32.560  16.500 -25.058  0.00  0.00     0.019 A 
ENDBRANCH  12  14
ENDBRANCH   1  11
TORSDOF 3
ENDMDL
MODEL 3
REMARK VINA RESULT:      -1.6      3.264      4.926
REMARK  3 active torsions:
REMARK  status: ('A' for Active; 'I' for Inactive)
REMARK    1  A    between atoms: C_4  and  N_1 
REMARK    2  A    between atoms: C_6  and  C_4 
REMARK       I    between atoms: N_8  and  C_6 
REMARK    3  A    between atoms: C_10  and  N_8 
ROOT
ATOM      1  C   UNL d   1      32.686  20.212 -22.051  0.00  0.00     0.165 C 
ENDROOT
BRANCH   1   2
ATOM      2  N   UNL d   1      32.392  20.917 -21.726  0.00  0.00    -0.204 N 
ATOM      3  N   UNL d   1      31.826  20.972 -21.120  0.00  0.00    -0.059 NA
ATOM      4  N   UNL d   1      31.694  21.773 -20.966  0.00  0.00    -0.129 NA
ATOM      5  C   UNL d   1      32.174  22.216 -21.472  0.00  0.00     0.122 A 
ATOM      6  C   UNL d   1      32.608  21.684 -21.944  0.00  0.00     0.104 A 
ATOM      7  C   UNL d   1      32.274  23.027 -21.567  0.00  0.00     0.022 A 
ATOM      8  C   UNL d   1      33.137  21.969 -22.506  0.00  0.00     0.021 A 
ATOM      9  C   UNL d   1      33.238  22.781 -22.601  0.00  0.00     0.002 A 
ATOM     10  C   UNL d   1      32.809  23.307 -22.134  0.00  0.00     0.002 A 
ENDBRANCH   1   2
BRANCH   1  11
ATOM     11  C   UNL d   1      33.007  19.541 -21.696  0.00  0.00     0.299 C 
ATOM     12  N   UNL d   1      33.012  18.971 -22.287  0.00  0.00    -0.207 NA
ATOM     13  O   UNL d   1      33.239  19.564 -20.904  0.00  0.00    -0.263 OA
BRANCH  12  14
ATOM     14  C   UNL d   1      32.780  18.952 -23.077  0.00  0.00     0.085 A 
ATOM     15  C   UNL d   1      32.089  18.552 -23.294  0.00  0.00     0.019 A 
ATOM     16  C   UNL d   1      31.857  18.533 -24.086  0.00  0.00     0.002 A 
ATOM     17  C   UNL d   1      31.170  18.136 -24.304  0.00  0.00     0.000 C 
ATOM     18  C   UNL d   1      32.315  18.913 -24.659  0.00  0.00     0.000 A 
ATOM     19  C   UNL d   1      33.009  19.315 -24.439  0.00  0.00     0.002 A 
ATOM     20  C   UNL d   1      33.241  19.334 -23.651  0.00  0.00     0.019 A 
ENDBRANCH  12  14
ENDBRANCH   1  11
TORSDOF 3
ENDMDL
MODEL 4
REMARK VINA RESULT:      -1.1      1.161      3.841
REMARK  3 active torsions:
REMARK  status: ('A' for Active; 'I' for Inactive)
REMARK    1  A    between atoms: C_4  and  N_1 
REMARK    2  A    between atoms: C_6  and  C_4 
REMARK       I    between atoms: N_8  and  C_6 
REMARK    3  A    between atoms: C_10  and  N_8 
ROOT
ATOM      1  C   UNL d   1      30.887  16.331 -23.612  0.00  0.00     0.165 C 
ENDROOT
BRANCH   1   2
ATOM      2  N   UNL d   1      31.510  16.466 -24.142  0.00  0.00    -0.204 N 
ATOM      3  N   UNL d   1      31.826  15.909 -24.672  0.00  0.00    -0.059 NA
ATOM      4  N   UNL d   1      32.436  16.273 -25.094  0.00  0.00    -0.129 NA
ATOM      5  C   UNL d   1      32.502  17.054 -24.830  0.00  0.00     0.122 A 
ATOM      6  C   UNL d   1      31.927  17.174 -24.239  0.00  0.00     0.104 A 
ATOM      7  C   UNL d   1      33.004  17.669 -25.046  0.00  0.00     0.022 A 
ATOM      8  C   UNL d   1      31.861  17.907 -23.871  0.00  0.00     0.021 A 
ATOM      9  C   UNL d   1      32.364  18.522 -24.087  0.00  0.00     0.002 A 
ATOM     10  C   UNL d   1      32.932  18.403 -24.672  0.00  0.00     0.002 A 
ENDBRANCH   1   2
BRANCH   1  11
ATOM     11  C   UNL d   1      30.795  15.775 -23.011  0.00  0.00     0.299 C 
ATOM     12  N   UNL d   1      29.983  15.674 -22.938  0.00  0.00    -0.207 NA
ATOM     13  O   UNL d   1      31.458  15.458 -22.637  0.00  0.00    -0.263 OA
BRANCH  12  14
ATOM     14  C   UNL d   1      29.322  15.993 -23.314  0.00  0.00     0.085 A 
ATOM     15  C   UNL d   1      28.990  15.603 -23.963  0.00  0.00     0.019 A 
ATOM     16  C   UNL d   1      28.329  15.923 -24.340  0.00  0.00     0.002 A 
ATOM     17  C   UNL d   1      27.996  15.537 -24.986  0.00  0.00     0.000 C 
ATOM     18  C   UNL d   1      28.001  16.631 -24.067  0.00  0.00     0.000 A 
ATOM     19  C   UNL d   1      28.337  17.022 -23.414  0.00  0.00     0.002 A 
ATOM     20  C   UNL d   1      28.995  16.704 -23.040  0.00  0.00     0.019 A 
ENDBRANCH  12  14
ENDBRANCH   1  11
TORSDOF 3
ENDMDL
MODEL 5
REMARK VINA RESULT:      -1.0      1.021      3.832
REMARK  3 active torsions:
REMARK  status: ('A' for Active; 'I' for Inactive)
REMARK    1  A    between atoms: C_4  and  N_1 
REMARK    2  A    between atoms: C_6  and  C_4 
REMARK       I    between atoms: N_8  and  C_6 
REMARK    3  A    between atoms: C_10  and  N_8 
ROOT
ATOM      1  C   UNL d   1      31.974  16.890 -24.324  0.00  0.00     0.165 C 
ENDROOT
BRANCH   1   2
ATOM      2  N   UNL d   1      32.317  17.642 -24.389  0.00  0.00    -0.204 N 
ATOM      3  N   UNL d   1      32.436  18.063 -25.097  0.00  0.00    -0.059 NA
ATOM      4  N   UNL d   1      32.791  18.784 -24.909  0.00  0.00    -0.129 NA
ATOM      5  C   UNL d   1      32.894  18.816 -24.089  0.00  0.00     0.122 A 
ATOM      6  C   UNL d   1      32.600  18.107 -23.766  0.00  0.00     0.104 A 
ATOM      7  C   UNL d   1      33.215  19.392 -23.596  0.00  0.00     0.022 A 
ATOM      8  C   UNL d   1      32.629  17.981 -22.954  0.00  0.00     0.021 A 
ATOM      9  C   UNL d   1      32.950  18.557 -22.460  0.00  0.00     0.002 A 
ATOM     10  C   UNL d   1      33.241  19.258 -22.780  0.00  0.00     0.002 A 
ENDBRANCH   1   2
BRANCH   1  11
ATOM     11  C   UNL d   1      32.206  16.159 -24.627  0.00  0.00     0.299 C 
ATOM     12  N   UNL d   1      31.536  15.687 -24.576  0.00  0.00    -0.207 NA
ATOM     13  O   UNL d   1      32.979  16.049 -24.894  0.00  0.00    -0.263 OA
BRANCH  12  14
ATOM     14  C   UNL d   1      30.765  15.800 -24.308  0.00  0.00     0.085 A 
ATOM     15  C   UNL d   1      30.556  15.569 -23.542  0.00  0.00     0.019 A 
ATOM     16  C   UNL d   1      29.784  15.683 -23.274  0.00  0.00     0.002 A 
ATOM     17  C   UNL d   1      29.575  15.454 -22.512  0.00  0.00     0.000 C 
ATOM     18  C   UNL d   1      29.222  16.028 -23.772  0.00  0.00     0.000 A 
ATOM     19  C   UNL d   1      29.433  16.259 -24.543  0.00  0.00     0.002 A 
ATOM     20  C   UNL d   1      30.201  16.146 -24.809  0.00  0.00     0.019 A 
ENDBRANCH  12  14
ENDBRANCH   1  11
TORSDOF 3
ENDMDL
MODEL 6
REMARK VINA RESULT:      -0.4      1.930      4.057
REMARK  3 active torsions:
REMARK  status: ('A' for Active; 'I' for Inactive)
REMARK    1  A    between atoms: C_4  and  N_1 
REMARK    2  A    between atoms: C_6  and  C_4 
REMARK       I    between atoms: N_8  and  C_6 
REMARK    3  A    between atoms: C_10  and  N_8 
ROOT
ATOM      1  C   UNL d   1      32.739  18.718 -23.797  0.00  0.00     0.165 C 
ENDROOT
BRANCH   1   2
ATOM      2  N   UNL d   1      32.757  19.427 -23.368  0.00  0.00    -0.204 N 
ATOM      3  N   UNL d   1      32.613  20.186 -23.676  0.00  0.00    -0.059 NA
ATOM      4  N   UNL d   1      32.688  20.730 -23.060  0.00  0.00    -0.129 NA
ATOM      5  C   UNL d   1      32.878  20.316 -22.370  0.00  0.00     0.122 A 
ATOM      6  C   UNL d   1      32.921  19.507 -22.561  0.00  0.00     0.104 A 
ATOM      7  C   UNL d   1      33.017  20.565 -21.598  0.00  0.00     0.022 A 
ATOM      8  C   UNL d   1      33.102  18.955 -21.978  0.00  0.00     0.021 A 
ATOM      9  C   UNL d   1      33.241  19.204 -21.206  0.00  0.00     0.002 A 
ATOM     10  C   UNL d   1      33.198  20.005 -21.017  0.00  0.00     0.002 A 
ENDBRANCH   1   2
BRANCH   1  11
ATOM     11  C   UNL d   1      32.900  18.557 -24.590  0.00  0.00     0.299 C 
ATOM     12  N   UNL d   1      32.652  17.782 -24.703  0.00  0.00    -0.207 NA
ATOM     13  O   UNL d   1      33.241  19.138 -25.067  0.00  0.00    -0.263 OA
BRANCH  12  14
ATOM     14  C   UNL d   1      32.312  17.205 -24.223  0.00  0.00     0.085 A 
ATOM     15  C   UNL d   1      32.789  16.628 -23.872  0.00  0.00     0.019 A 
ATOM     16  C   UNL d   1      32.448  16.051 -23.391  0.00  0.00     0.002 A 
ATOM     17  C   UNL d   1      32.920  15.476 -23.040  0.00  0.00     0.000 C 
ATOM     18  C   UNL d   1      31.631  16.051 -23.263  0.00  0.00     0.000 A 
ATOM     19  C   UNL d   1      31.153  16.632 -23.618  0.00  0.00     0.002 A 
ATOM     20  C   UNL d   1      31.492  17.207 -24.096  0.00  0.00     0.019 A 
ENDBRANCH  12  14
ENDBRANCH   1  11
TORSDOF 3
ENDMDL
