MODEL 1
REMARK VINA RESULT:      69.5      0.000      0.000
REMARK  4 active torsions:
REMARK  status: ('A' for Active; 'I' for Inactive)
REMARK    1  A    between atoms: C_11  and  C_4 
REMARK    2  A    between atoms: N_10  and  C_7 
REMARK    3  A    between atoms: C_14  and  N_10 
REMARK    4  A    between atoms: C_21  and  C_14 
ROOT
ATOM      1  C   UNL d   1     -57.343 -98.938 -44.326  0.00  0.00     0.186 A 
ATOM      2  N   UNL d   1     -57.128 -98.874 -45.126  0.00  0.00    -0.193 N 
ATOM      3  N   UNL d   1     -56.747 -99.056 -43.750  0.00  0.00    -0.206 NA
ATOM      4  C   UNL d   1     -58.161 -98.867 -44.272  0.00  0.00     0.140 A 
ATOM      5  N   UNL d   1     -57.824 -98.761 -45.565  0.00  0.00    -0.058 NA
ATOM      6  N   UNL d   1     -58.465 -98.757 -45.039  0.00  0.00    -0.127 NA
ATOM      7  C   UNL d   1     -55.952 -99.107 -43.974  0.00  0.00     0.166 A 
ATOM      8  C   UNL d   1     -55.751 -99.041 -44.776  0.00  0.00     0.054 A 
ATOM      9  C   UNL d   1     -56.336 -98.925 -45.347  0.00  0.00     0.089 A 
ATOM     10  C   UNL d   1     -54.960 -99.092 -44.997  0.00  0.00     0.005 A 
ATOM     11  C   UNL d   1     -56.124 -98.861 -46.143  0.00  0.00     0.019 A 
ATOM     12  C   UNL d   1     -54.750 -99.028 -45.791  0.00  0.00     0.000 A 
ATOM     13  C   UNL d   1     -55.332 -98.912 -46.364  0.00  0.00     0.002 A 
ENDROOT
BRANCH   7  14
ATOM     14  N   UNL d   1     -55.363 -99.223 -43.407  0.00  0.00    -0.225 NA
BRANCH  14  15
ATOM     15  C   UNL d   1     -54.775 -99.778 -43.543  0.00  0.00     0.101 C 
BRANCH  15  16
ATOM     16  C   UNL d   1     -54.799-100.509 -43.161  0.00  0.00     0.019 A 
ATOM     17  C   UNL d   1     -54.750-101.209 -43.596  0.00  0.00     0.002 A 
ATOM     18  C   UNL d   1     -54.774-101.939 -43.214  0.00  0.00     0.000 A 
ATOM     19  C   UNL d   1     -54.847-101.967 -42.389  0.00  0.00     0.000 A 
ATOM     20  C   UNL d   1     -54.895-101.262 -41.952  0.00  0.00     0.000 A 
ATOM     21  C   UNL d   1     -54.871-100.537 -42.345  0.00  0.00     0.002 A 
ENDBRANCH  15  16
ENDBRANCH  14  15
ENDBRANCH   7  14
BRANCH   4  22
ATOM     22  C   UNL d   1     -58.599 -98.899 -43.582  0.00  0.00     0.023 A 
ATOM     23  C   UNL d   1     -59.422 -98.887 -43.621  0.00  0.00     0.004 A 
ATOM     24  C   UNL d   1     -59.869 -98.919 -42.921  0.00  0.00     0.030 A 
ATOM     25  C   UNL d   1     -59.491 -98.963 -42.196  0.00  0.00     0.140 A 
ATOM     26  C   UNL d   1     -58.660 -98.974 -42.166  0.00  0.00     0.030 A 
ATOM     27  F   UNL d   1     -59.929 -98.995 -41.505  0.00  0.00    -0.204 F 
ATOM     28  C   UNL d   1     -58.222 -98.942 -42.857  0.00  0.00     0.004 A 
ENDBRANCH   4  22
TORSDOF 4
ENDMDL
