MODEL 1
REMARK VINA RESULT:      74.0      0.000      0.000
REMARK  5 active torsions:
REMARK  status: ('A' for Active; 'I' for Inactive)
REMARK    1  A    between atoms: S_6  and  C_2 
REMARK    2  A    between atoms: C_8  and  C_4 
REMARK    3  A    between atoms: C_11  and  S_6 
REMARK    4  A    between atoms: C_7  and  C_11 
REMARK       I    between atoms: N_9  and  C_7 
REMARK    5  A    between atoms: C_15  and  N_9 
ROOT
ATOM      1  N   UNL d   1      59.844  49.285  51.502  0.00  0.00    -0.244 NA
ATOM      2  C   UNL d   1      60.001  48.830  50.828  0.00  0.00     0.125 A 
ATOM      3  N   UNL d   1      60.913  48.529  51.752  0.00  0.00    -0.250 NA
ATOM      4  C   UNL d   1      60.646  48.375  50.979  0.00  0.00     0.101 A 
ATOM      5  C   UNL d   1      60.387  49.146  52.137  0.00  0.00     0.168 A 
ATOM      6  C   UNL d   1      60.944  48.979  52.736  0.00  0.00     0.050 C 
ATOM      7  C   UNL d   1      59.785  49.706  52.275  0.00  0.00     0.050 C 
ENDROOT
BRANCH   2   8
ATOM      8  S   UNL d   1      59.568  48.842  50.118  0.00  0.00    -0.061 SA
BRANCH   8   9
ATOM      9  C   UNL d   1      58.790  49.115  50.113  0.00  0.00     0.099 C 
BRANCH   9  10
ATOM     10  C   UNL d   1      58.484  49.467  49.442  0.00  0.00     0.286 C 
ATOM     11  N   UNL d   1      57.680  49.583  49.369  0.00  0.00    -0.208 NA
ATOM     12  O   UNL d   1      58.990  49.703  48.843  0.00  0.00    -0.265 OA
BRANCH  11  13
ATOM     13  C   UNL d   1      57.178  49.350  49.962  0.00  0.00     0.085 A 
ATOM     14  C   UNL d   1      56.638  48.755  49.824  0.00  0.00     0.019 A 
ATOM     15  C   UNL d   1      56.121  48.508  50.421  0.00  0.00     0.002 A 
ATOM     16  C   UNL d   1      56.157  48.869  51.157  0.00  0.00     0.000 A 
ATOM     17  C   UNL d   1      56.701  49.469  51.300  0.00  0.00     0.002 A 
ATOM     18  C   UNL d   1      57.208  49.707  50.705  0.00  0.00     0.019 A 
ENDBRANCH  11  13
ENDBRANCH   9  10
ENDBRANCH   8   9
ENDBRANCH   2   8
BRANCH   4  19
ATOM     19  C   UNL d   1      61.023  47.828  50.487  0.00  0.00     0.019 A 
ATOM     20  C   UNL d   1      61.344  48.072  49.763  0.00  0.00     0.002 A 
ATOM     21  C   UNL d   1      61.715  47.534  49.278  0.00  0.00     0.011 A 
ATOM     22  C   UNL d   1      61.778  46.726  49.506  0.00  0.00     0.058 A 
ATOM     23  C   UNL d   1      61.467  46.496  50.206  0.00  0.00     0.011 A 
ATOM     24 CL   UNL d   1      62.159  46.174  49.008  0.00  0.00    -0.082 Cl
ATOM     25  C   UNL d   1      61.083  47.036  50.713  0.00  0.00     0.002 A 
ENDBRANCH   4  19
TORSDOF 5
ENDMDL
