MODEL 1
REMARK VINA RESULT:      -5.2      0.000      0.000
REMARK  3 active torsions:
REMARK  status: ('A' for Active; 'I' for Inactive)
REMARK    1  A    between atoms: N_2  and  C_1 
REMARK    2  A    between atoms: C_6  and  C_5 
REMARK       I    between atoms: N_13  and  C_6 
REMARK    3  A    between atoms: C_17  and  N_13 
ROOT
ATOM      1  C   UNL d   1      57.902  -0.104  30.427  0.00  0.00     0.285 C 
ATOM      2  N   UNL d   1      57.849   0.287  31.190  0.00  0.00    -0.208 NA
ATOM      3  O   UNL d   1      57.403  -0.688  30.197  0.00  0.00    -0.265 OA
ENDROOT
BRANCH   2   4
ATOM      4  C   UNL d   1      57.213   0.012  31.710  0.00  0.00     0.086 A 
ATOM      5  C   UNL d   1      56.815   0.556  32.196  0.00  0.00     0.039 A 
ATOM      6  C   UNL d   1      56.209   0.294  32.691  0.00  0.00     0.089 A 
ATOM      7  N   UNL d   1      55.725   0.682  33.221  0.00  0.00    -0.238 NA
ATOM      8  C   UNL d   1      56.002  -0.511  32.700  0.00  0.00     0.049 A 
ATOM      9  C   UNL d   1      55.226   0.142  33.556  0.00  0.00     0.111 A 
ATOM     10  C   UNL d   1      54.645   0.301  34.122  0.00  0.00     0.028 C 
ATOM     11  S   UNL d   1      55.386  -0.578  33.248  0.00  0.00    -0.066 SA
ATOM     12  C   UNL d   1      56.400  -1.044  32.217  0.00  0.00     0.010 A 
ATOM     13  C   UNL d   1      57.005  -0.782  31.722  0.00  0.00     0.020 A 
ENDBRANCH   2   4
BRANCH   1  14
ATOM     14  C   UNL d   1      58.474   0.097  29.880  0.00  0.00     0.089 A 
ATOM     15  S   UNL d   1      59.203  -0.254  29.839  0.00  0.00    -0.059 SA
ATOM     16  C   UNL d   1      59.599   0.128  29.197  0.00  0.00     0.156 A 
ATOM     17  C   UNL d   1      59.131   0.674  28.877  0.00  0.00     0.031 A 
ATOM     18  C   UNL d   1      58.413   0.675  29.290  0.00  0.00     0.014 A 
BRANCH  16  19
ATOM     19  N   UNL d   1      60.350  -0.021  28.926  0.00  0.00    -0.107 N 
ATOM     20  O   UNL d   1      60.673  -0.764  28.734  0.00  0.00    -0.531 OA
ATOM     21  O   UNL d   1      60.915   0.562  28.798  0.00  0.00    -0.531 OA
ENDBRANCH  16  19
ENDBRANCH   1  14
TORSDOF 3
ENDMDL
MODEL 2
REMARK VINA RESULT:      -4.8      1.139      1.353
REMARK  3 active torsions:
REMARK  status: ('A' for Active; 'I' for Inactive)
REMARK    1  A    between atoms: N_2  and  C_1 
REMARK    2  A    between atoms: C_6  and  C_5 
REMARK       I    between atoms: N_13  and  C_6 
REMARK    3  A    between atoms: C_17  and  N_13 
ROOT
ATOM      1  C   UNL d   1      57.774  -0.109  30.716  0.00  0.00     0.285 C 
ATOM      2  N   UNL d   1      57.376  -0.641  31.260  0.00  0.00    -0.208 NA
ATOM      3  O   UNL d   1      57.837   0.681  30.840  0.00  0.00    -0.265 OA
ENDROOT
BRANCH   2   4
ATOM      4  C   UNL d   1      57.038  -0.272  31.966  0.00  0.00     0.086 A 
ATOM      5  C   UNL d   1      56.247  -0.426  32.173  0.00  0.00     0.039 A 
ATOM      6  C   UNL d   1      55.925  -0.074  32.846  0.00  0.00     0.089 A 
ATOM      7  N   UNL d   1      55.185  -0.114  33.187  0.00  0.00    -0.238 NA
ATOM      8  C   UNL d   1      56.393   0.432  33.312  0.00  0.00     0.049 A 
ATOM      9  C   UNL d   1      55.181   0.350  33.848  0.00  0.00     0.111 A 
ATOM     10  C   UNL d   1      54.541   0.467  34.358  0.00  0.00     0.028 C 
ATOM     11  S   UNL d   1      55.904   0.682  33.930  0.00  0.00    -0.066 SA
ATOM     12  C   UNL d   1      57.173   0.580  33.103  0.00  0.00     0.010 A 
ATOM     13  C   UNL d   1      57.495   0.228  32.430  0.00  0.00     0.020 A 
ENDBRANCH   2   4
BRANCH   1  14
ATOM     14  C   UNL d   1      58.120  -0.378  30.026  0.00  0.00     0.089 A 
ATOM     15  S   UNL d   1      58.507  -1.086  29.963  0.00  0.00    -0.059 SA
ATOM     16  C   UNL d   1      58.768  -1.127  29.160  0.00  0.00     0.156 A 
ATOM     17  C   UNL d   1      58.547  -0.480  28.771  0.00  0.00     0.031 A 
ATOM     18  C   UNL d   1      58.135   0.010  29.295  0.00  0.00     0.014 A 
BRANCH  16  19
ATOM     19  N   UNL d   1      59.185  -1.730  28.810  0.00  0.00    -0.107 N 
ATOM     20  O   UNL d   1      58.887  -2.467  28.564  0.00  0.00    -0.531 OA
ATOM     21  O   UNL d   1      59.990  -1.694  28.644  0.00  0.00    -0.531 OA
ENDBRANCH  16  19
ENDBRANCH   1  14
TORSDOF 3
ENDMDL
MODEL 3
REMARK VINA RESULT:      -2.9      2.857      5.141
REMARK  3 active torsions:
REMARK  status: ('A' for Active; 'I' for Inactive)
REMARK    1  A    between atoms: N_2  and  C_1 
REMARK    2  A    between atoms: C_6  and  C_5 
REMARK       I    between atoms: N_13  and  C_6 
REMARK    3  A    between atoms: C_17  and  N_13 
ROOT
ATOM      1  C   UNL d   1      58.079  -1.395  30.176  0.00  0.00     0.285 C 
ATOM      2  N   UNL d   1      58.619  -1.383  29.508  0.00  0.00    -0.208 NA
ATOM      3  O   UNL d   1      57.827  -2.070  30.526  0.00  0.00    -0.265 OA
ENDROOT
BRANCH   2   4
ATOM      4  C   UNL d   1      58.884  -2.158  29.226  0.00  0.00     0.086 A 
ATOM      5  C   UNL d   1      59.653  -2.419  29.402  0.00  0.00     0.039 A 
ATOM      6  C   UNL d   1      59.905  -3.157  29.133  0.00  0.00     0.089 A 
ATOM      7  N   UNL d   1      60.610  -3.560  29.213  0.00  0.00    -0.238 NA
ATOM      8  C   UNL d   1      59.389  -3.634  28.689  0.00  0.00     0.049 A 
ATOM      9  C   UNL d   1      60.545  -4.270  28.832  0.00  0.00     0.111 A 
ATOM     10  C   UNL d   1      61.132  -4.849  28.776  0.00  0.00     0.028 C 
ATOM     11  S   UNL d   1      59.813  -4.322  28.514  0.00  0.00    -0.066 SA
ATOM     12  C   UNL d   1      58.630  -3.370  28.518  0.00  0.00     0.010 A 
ATOM     13  C   UNL d   1      58.378  -2.632  28.787  0.00  0.00     0.020 A 
ENDBRANCH   2   4
BRANCH   1  14
ATOM     14  C   UNL d   1      57.783  -0.706  30.501  0.00  0.00     0.089 A 
ATOM     15  S   UNL d   1      57.361  -0.678  31.191  0.00  0.00    -0.059 SA
ATOM     16  C   UNL d   1      57.174   0.138  31.306  0.00  0.00     0.156 A 
ATOM     17  C   UNL d   1      57.469   0.569  30.717  0.00  0.00     0.031 A 
ATOM     18  C   UNL d   1      57.859   0.059  30.194  0.00  0.00     0.014 A 
BRANCH  16  19
ATOM     19  N   UNL d   1      56.755   0.464  31.921  0.00  0.00    -0.107 N 
ATOM     20  O   UNL d   1      57.040   0.632  32.685  0.00  0.00    -0.531 OA
ATOM     21  O   UNL d   1      55.963   0.679  31.873  0.00  0.00    -0.531 OA
ENDBRANCH  16  19
ENDBRANCH   1  14
TORSDOF 3
ENDMDL
