MODEL 1
REMARK VINA RESULT:      -2.1      0.000      0.000
REMARK  5 active torsions:
REMARK  status: ('A' for Active; 'I' for Inactive)
REMARK    1  A    between atoms: S_13  and  C_7 
REMARK    2  A    between atoms: C_22  and  C_10 
REMARK    3  A    between atoms: C_11  and  C_16 
REMARK       I    between atoms: N_12  and  C_11 
REMARK    4  A    between atoms: C_16  and  S_13 
REMARK    5  A    between atoms: C_23  and  C_22 
ROOT
ATOM      1  N   UNL d   1      58.570  -3.487  29.017  0.00  0.00    -0.224 N 
ATOM      2  N   UNL d   1      59.952  -3.194  28.759  0.00  0.00    -0.241 N 
ATOM      3  C   UNL d   1      59.325  -3.728  28.755  0.00  0.00     0.343 A 
ATOM      4  C   UNL d   1      59.825  -2.421  29.024  0.00  0.00     0.160 A 
ATOM      5  C   UNL d   1      58.452  -2.716  29.280  0.00  0.00     0.273 A 
ATOM      6  C   UNL d   1      59.079  -2.183  29.283  0.00  0.00     0.115 A 
ATOM      7  C   UNL d   1      58.960  -1.412  29.546  0.00  0.00     0.120 A 
ATOM      8  N   UNL d   1      60.456  -1.880  29.029  0.00  0.00    -0.209 NA
ATOM      9  N   UNL d   1      59.584  -0.878  29.551  0.00  0.00    -0.220 NA
ATOM     10  C   UNL d   1      60.336  -1.109  29.292  0.00  0.00     0.165 A 
ATOM     11  O   UNL d   1      59.442  -4.502  28.491  0.00  0.00    -0.245 OA
ATOM     12  O   UNL d   1      57.704  -2.482  29.538  0.00  0.00    -0.266 OA
ATOM     13  C   UNL d   1      57.951  -4.022  29.011  0.00  0.00     0.107 C 
ATOM     14  C   UNL d   1      60.698  -3.432  28.499  0.00  0.00     0.105 C 
ENDROOT
BRANCH   7  15
ATOM     15  S   UNL d   1      58.213  -1.177  29.804  0.00  0.00    -0.062 SA
BRANCH  15  16
ATOM     16  C   UNL d   1      58.098  -0.953  30.590  0.00  0.00     0.098 C 
BRANCH  16  17
ATOM     17  C   UNL d   1      57.648  -0.289  30.771  0.00  0.00     0.271 C 
ATOM     18  N   UNL d   1      57.118  -0.311  31.408  0.00  0.00    -0.272 N 
ATOM     19  C   UNL d   1      56.690   0.433  31.520  0.00  0.00     0.083 A 
ATOM     20  C   UNL d   1      57.107  -0.958  31.763  0.00  0.00     0.083 A 
ATOM     21  C   UNL d   1      56.190   0.662  31.990  0.00  0.00     0.019 A 
ATOM     22  C   UNL d   1      55.850   0.225  32.622  0.00  0.00     0.002 A 
ATOM     23  C   UNL d   1      56.045  -0.611  32.833  0.00  0.00     0.002 A 
ATOM     24  C   UNL d   1      56.626  -1.159  32.437  0.00  0.00     0.019 A 
ATOM     25  O   UNL d   1      57.723   0.398  30.320  0.00  0.00    -0.266 OA
ENDBRANCH  16  17
ENDBRANCH  15  16
ENDBRANCH   7  15
BRANCH  10  26
ATOM     26  C   UNL d   1      60.962  -0.571  29.297  0.00  0.00     0.039 C 
BRANCH  26  27
ATOM     27  C   UNL d   1      61.132  -0.131  28.616  0.00  0.00     0.003 C 
ATOM     28  C   UNL d   1      61.052   0.682  28.617  0.00  0.00     0.000 C 
ENDBRANCH  26  27
ENDBRANCH  10  26
TORSDOF 5
ENDMDL
MODEL 2
REMARK VINA RESULT:      -0.1      1.289      4.451
REMARK  5 active torsions:
REMARK  status: ('A' for Active; 'I' for Inactive)
REMARK    1  A    between atoms: S_13  and  C_7 
REMARK    2  A    between atoms: C_22  and  C_10 
REMARK    3  A    between atoms: C_11  and  C_16 
REMARK       I    between atoms: N_12  and  C_11 
REMARK    4  A    between atoms: C_16  and  S_13 
REMARK    5  A    between atoms: C_23  and  C_22 
ROOT
ATOM      1  N   UNL d   1      56.367  -1.095  32.229  0.00  0.00    -0.224 N 
ATOM      2  N   UNL d   1      57.212   0.011  32.578  0.00  0.00    -0.241 N 
ATOM      3  C   UNL d   1      56.559  -0.464  32.739  0.00  0.00     0.343 A 
ATOM      4  C   UNL d   1      57.673  -0.144  31.909  0.00  0.00     0.160 A 
ATOM      5  C   UNL d   1      56.830  -1.244  31.564  0.00  0.00     0.273 A 
ATOM      6  C   UNL d   1      57.483  -0.769  31.405  0.00  0.00     0.115 A 
ATOM      7  C   UNL d   1      57.946  -0.917  30.740  0.00  0.00     0.120 A 
ATOM      8  N   UNL d   1      58.333   0.333  31.745  0.00  0.00    -0.209 NA
ATOM      9  N   UNL d   1      58.598  -0.445  30.578  0.00  0.00    -0.220 NA
ATOM     10  C   UNL d   1      58.795   0.184  31.081  0.00  0.00     0.165 A 
ATOM     11  O   UNL d   1      56.093  -0.316  33.405  0.00  0.00    -0.245 OA
ATOM     12  O   UNL d   1      56.636  -1.869  31.062  0.00  0.00    -0.266 OA
ATOM     13  C   UNL d   1      55.716  -1.564  32.393  0.00  0.00     0.107 C 
ATOM     14  C   UNL d   1      57.402   0.636  33.083  0.00  0.00     0.105 C 
ENDROOT
BRANCH   7  15
ATOM     15  S   UNL d   1      57.753  -1.543  30.238  0.00  0.00    -0.062 SA
BRANCH  15  16
ATOM     16  C   UNL d   1      58.269  -1.760  29.632  0.00  0.00     0.098 C 
BRANCH  16  17
ATOM     17  C   UNL d   1      58.275  -2.534  29.351  0.00  0.00     0.271 C 
ATOM     18  N   UNL d   1      58.989  -2.877  29.105  0.00  0.00    -0.272 N 
ATOM     19  C   UNL d   1      58.898  -3.691  28.827  0.00  0.00     0.083 A 
ATOM     20  C   UNL d   1      59.572  -2.427  29.167  0.00  0.00     0.083 A 
ATOM     21  C   UNL d   1      59.352  -4.191  28.569  0.00  0.00     0.019 A 
ATOM     22  C   UNL d   1      60.181  -4.112  28.455  0.00  0.00     0.002 A 
ATOM     23  C   UNL d   1      60.659  -3.390  28.633  0.00  0.00     0.002 A 
ATOM     24  C   UNL d   1      60.378  -2.610  28.963  0.00  0.00     0.019 A 
ATOM     25  O   UNL d   1      57.575  -2.969  29.315  0.00  0.00    -0.266 OA
ENDBRANCH  16  17
ENDBRANCH  15  16
ENDBRANCH   7  15
BRANCH  10  26
ATOM     26  C   UNL d   1      59.451   0.657  30.916  0.00  0.00     0.039 C 
BRANCH  26  27
ATOM     27  C   UNL d   1      60.214   0.348  31.006  0.00  0.00     0.003 C 
ATOM     28  C   UNL d   1      60.835   0.641  30.564  0.00  0.00     0.000 C 
ENDBRANCH  26  27
ENDBRANCH  10  26
TORSDOF 5
ENDMDL
