MODEL 1
REMARK VINA RESULT:      -4.5      0.000      0.000
REMARK  4 active torsions:
REMARK  status: ('A' for Active; 'I' for Inactive)
REMARK    1  A    between atoms: C_2  and  C_1 
REMARK    2  A    between atoms: C_4  and  C_1 
REMARK    3  A    between atoms: C_5  and  C_2 
REMARK    4  A    between atoms: N_6  and  C_5 
ROOT
ATOM      1  C   UNL d   1     -41.479-122.916 -53.488  0.00  0.00     0.197 C 
ATOM      2  O   UNL d   1     -41.266-123.719 -53.438  0.00  0.00    -0.286 OA
ENDROOT
BRANCH   1   3
ATOM      3  C   UNL d   1     -41.483-122.450 -52.824  0.00  0.00     0.061 C 
BRANCH   3   4
ATOM      4  C   UNL d   1     -41.236-122.749 -52.108  0.00  0.00     0.084 C 
BRANCH   4   5
ATOM      5  N   UNL d   1     -41.345-122.310 -51.418  0.00  0.00    -0.300 N 
ATOM      6  C   UNL d   1     -41.677-122.663 -50.754  0.00  0.00     0.100 C 
ATOM      7  C   UNL d   1     -41.123-121.518 -51.395  0.00  0.00     0.100 C 
ENDBRANCH   4   5
ENDBRANCH   3   4
ENDBRANCH   1   3
BRANCH   1   8
ATOM      8  C   UNL d   1     -41.693-122.580 -54.233  0.00  0.00     0.039 A 
ATOM      9  C   UNL d   1     -42.420-122.195 -54.321  0.00  0.00     0.003 A 
ATOM     10  C   UNL d   1     -42.631-121.871 -55.034  0.00  0.00     0.000 A 
ATOM     11  C   UNL d   1     -42.114-121.926 -55.675  0.00  0.00     0.000 A 
ATOM     12  C   UNL d   1     -41.383-122.306 -55.606  0.00  0.00     0.000 A 
ATOM     13  C   UNL d   1     -41.180-122.638 -54.858  0.00  0.00     0.003 A 
ENDBRANCH   1   8
TORSDOF 4
ENDMDL
MODEL 2
REMARK VINA RESULT:      -4.1      1.003      1.496
REMARK  4 active torsions:
REMARK  status: ('A' for Active; 'I' for Inactive)
REMARK    1  A    between atoms: C_2  and  C_1 
REMARK    2  A    between atoms: C_4  and  C_1 
REMARK    3  A    between atoms: C_5  and  C_2 
REMARK    4  A    between atoms: N_6  and  C_5 
ROOT
ATOM      1  C   UNL d   1     -41.343-122.141 -52.614  0.00  0.00     0.197 C 
ATOM      2  O   UNL d   1     -41.123-121.367 -52.402  0.00  0.00    -0.286 OA
ENDROOT
BRANCH   1   3
ATOM      3  C   UNL d   1     -41.398-122.722 -52.050  0.00  0.00     0.061 C 
BRANCH   3   4
ATOM      4  C   UNL d   1     -41.426-122.528 -51.259  0.00  0.00     0.084 C 
BRANCH   4   5
ATOM      5  N   UNL d   1     -41.553-123.116 -50.694  0.00  0.00    -0.300 N 
ATOM      6  C   UNL d   1     -42.108-123.002 -50.100  0.00  0.00     0.100 C 
ATOM      7  C   UNL d   1     -41.123-123.817 -50.728  0.00  0.00     0.100 C 
ENDBRANCH   4   5
ENDBRANCH   3   4
ENDBRANCH   1   3
BRANCH   1   8
ATOM      8  C   UNL d   1     -41.511-122.329 -53.420  0.00  0.00     0.039 A 
ATOM      9  C   UNL d   1     -41.190-123.009 -53.764  0.00  0.00     0.003 A 
ATOM     10  C   UNL d   1     -41.348-123.194 -54.538  0.00  0.00     0.000 A 
ATOM     11  C   UNL d   1     -41.833-122.697 -54.983  0.00  0.00     0.000 A 
ATOM     12  C   UNL d   1     -42.163-122.012 -54.657  0.00  0.00     0.000 A 
ATOM     13  C   UNL d   1     -41.989-121.835 -53.852  0.00  0.00     0.003 A 
ENDBRANCH   1   8
TORSDOF 4
ENDMDL
MODEL 3
REMARK VINA RESULT:      -3.7      1.219      3.293
REMARK  4 active torsions:
REMARK  status: ('A' for Active; 'I' for Inactive)
REMARK    1  A    between atoms: C_2  and  C_1 
REMARK    2  A    between atoms: C_4  and  C_1 
REMARK    3  A    between atoms: C_5  and  C_2 
REMARK    4  A    between atoms: N_6  and  C_5 
ROOT
ATOM      1  C   UNL d   1     -41.314-123.024 -53.452  0.00  0.00     0.197 C 
ATOM      2  O   UNL d   1     -41.162-123.817 -53.652  0.00  0.00    -0.286 OA
ENDROOT
BRANCH   1   3
ATOM      3  C   UNL d   1     -41.503-122.484 -54.026  0.00  0.00     0.061 C 
BRANCH   3   4
ATOM      4  C   UNL d   1     -41.744-122.733 -54.764  0.00  0.00     0.084 C 
BRANCH   4   5
ATOM      5  N   UNL d   1     -42.066-122.191 -55.296  0.00  0.00    -0.300 N 
ATOM      6  C   UNL d   1     -41.579-121.651 -55.678  0.00  0.00     0.100 C 
ATOM      7  C   UNL d   1     -42.876-122.192 -55.444  0.00  0.00     0.100 C 
ENDBRANCH   4   5
ENDBRANCH   3   4
ENDBRANCH   1   3
BRANCH   1   8
ATOM      8  C   UNL d   1     -41.272-122.775 -52.645  0.00  0.00     0.039 A 
ATOM      9  C   UNL d   1     -41.163-121.976 -52.463  0.00  0.00     0.003 A 
ATOM     10  C   UNL d   1     -41.123-121.732 -51.690  0.00  0.00     0.000 A 
ATOM     11  C   UNL d   1     -41.190-122.287 -51.084  0.00  0.00     0.000 A 
ATOM     12  C   UNL d   1     -41.299-123.091 -51.247  0.00  0.00     0.000 A 
ATOM     13  C   UNL d   1     -41.340-123.327 -52.054  0.00  0.00     0.003 A 
ENDBRANCH   1   8
TORSDOF 4
ENDMDL
MODEL 4
REMARK VINA RESULT:      -3.5      2.682      3.758
REMARK  4 active torsions:
REMARK  status: ('A' for Active; 'I' for Inactive)
REMARK    1  A    between atoms: C_2  and  C_1 
REMARK    2  A    between atoms: C_4  and  C_1 
REMARK    3  A    between atoms: C_5  and  C_2 
REMARK    4  A    between atoms: N_6  and  C_5 
ROOT
ATOM      1  C   UNL d   1     -42.317-123.112 -49.965  0.00  0.00     0.197 C 
ATOM      2  O   UNL d   1     -43.088-123.419 -50.027  0.00  0.00    -0.286 OA
ENDROOT
BRANCH   1   3
ATOM      3  C   UNL d   1     -41.950-123.065 -49.244  0.00  0.00     0.061 C 
BRANCH   3   4
ATOM      4  C   UNL d   1     -42.284-123.413 -48.587  0.00  0.00     0.084 C 
BRANCH   4   5
ATOM      5  N   UNL d   1     -41.910-123.354 -47.854  0.00  0.00    -0.300 N 
ATOM      6  C   UNL d   1     -42.324-123.070 -47.203  0.00  0.00     0.100 C 
ATOM      7  C   UNL d   1     -41.123-123.579 -47.775  0.00  0.00     0.100 C 
ENDBRANCH   4   5
ENDBRANCH   3   4
ENDBRANCH   1   3
BRANCH   1   8
ATOM      8  C   UNL d   1     -41.911-122.845 -50.656  0.00  0.00     0.039 A 
ATOM      9  C   UNL d   1     -41.875-122.037 -50.831  0.00  0.00     0.003 A 
ATOM     10  C   UNL d   1     -41.486-121.775 -51.493  0.00  0.00     0.000 A 
ATOM     11  C   UNL d   1     -41.124-122.322 -51.994  0.00  0.00     0.000 A 
ATOM     12  C   UNL d   1     -41.149-123.133 -51.836  0.00  0.00     0.000 A 
ATOM     13  C   UNL d   1     -41.557-123.388 -51.144  0.00  0.00     0.003 A 
ENDBRANCH   1   8
TORSDOF 4
ENDMDL
MODEL 5
REMARK VINA RESULT:      -3.4      2.096      4.862
REMARK  4 active torsions:
REMARK  status: ('A' for Active; 'I' for Inactive)
REMARK    1  A    between atoms: C_2  and  C_1 
REMARK    2  A    between atoms: C_4  and  C_1 
REMARK    3  A    between atoms: C_5  and  C_2 
REMARK    4  A    between atoms: N_6  and  C_5 
ROOT
ATOM      1  C   UNL d   1     -42.153-123.320 -50.040  0.00  0.00     0.197 C 
ATOM      2  O   UNL d   1     -42.725-123.817 -50.382  0.00  0.00    -0.286 OA
ENDROOT
BRANCH   1   3
ATOM      3  C   UNL d   1     -41.715-122.818 -50.503  0.00  0.00     0.061 C 
BRANCH   3   4
ATOM      4  C   UNL d   1     -41.838-122.785 -51.308  0.00  0.00     0.084 C 
BRANCH   4   5
ATOM      5  N   UNL d   1     -41.362-122.303 -51.778  0.00  0.00    -0.300 N 
ATOM      6  C   UNL d   1     -41.126-122.559 -52.523  0.00  0.00     0.100 C 
ATOM      7  C   UNL d   1     -41.123-121.566 -51.501  0.00  0.00     0.100 C 
ENDBRANCH   4   5
ENDBRANCH   3   4
ENDBRANCH   1   3
BRANCH   1   8
ATOM      8  C   UNL d   1     -42.022-123.335 -49.206  0.00  0.00     0.039 A 
ATOM      9  C   UNL d   1     -42.608-123.063 -48.689  0.00  0.00     0.003 A 
ATOM     10  C   UNL d   1     -42.488-123.076 -47.887  0.00  0.00     0.000 A 
ATOM     11  C   UNL d   1     -41.774-123.362 -47.587  0.00  0.00     0.000 A 
ATOM     12  C   UNL d   1     -41.177-123.638 -48.087  0.00  0.00     0.000 A 
ATOM     13  C   UNL d   1     -41.318-123.618 -48.918  0.00  0.00     0.003 A 
ENDBRANCH   1   8
TORSDOF 4
ENDMDL
