MODEL 1
REMARK VINA RESULT:     -10.1      0.000      0.000
REMARK  4 active torsions:
REMARK  status: ('A' for Active; 'I' for Inactive)
REMARK    1  A    between atoms: C_2  and  S_1 
REMARK    2  A    between atoms: N_7  and  S_1 
REMARK    3  A    between atoms: C_3  and  C_12 
REMARK    4  A    between atoms: C_15  and  N_7 
ROOT
ATOM      1  C   UNL d   1      50.386  34.267  52.684  0.00  0.00     0.024 A 
ATOM      2  C   UNL d   1      51.775  33.363  52.751  0.00  0.00     0.094 A 
ATOM      3  C   UNL d   1      50.455  33.633  53.205  0.00  0.00     0.004 A 
ATOM      4  C   UNL d   1      51.022  34.455  52.188  0.00  0.00     0.004 A 
ATOM      5  C   UNL d   1      51.139  33.187  53.238  0.00  0.00     0.020 A 
ATOM      6  C   UNL d   1      51.711  34.009  52.218  0.00  0.00     0.020 A 
ENDROOT
BRANCH   2   7
ATOM      7  N   UNL d   1      52.460  32.920  52.781  0.00  0.00    -0.158 NA
BRANCH   7   8
ATOM      8  S   UNL d   1      53.033  33.084  53.358  0.00  0.00     0.287 S 
ATOM      9  O   UNL d   1      53.316  33.711  52.904  0.00  0.00    -0.198 OA
ATOM     10  O   UNL d   1      52.751  32.459  53.813  0.00  0.00    -0.198 OA
BRANCH   8  11
ATOM     11  C   UNL d   1      53.604  33.252  53.927  0.00  0.00     0.135 A 
ATOM     12  C   UNL d   1      53.441  33.753  54.555  0.00  0.00     0.045 A 
ATOM     13  C   UNL d   1      54.010  33.919  55.119  0.00  0.00     0.141 A 
ATOM     14  F   UNL d   1      53.839  34.424  55.747  0.00  0.00    -0.204 F 
ATOM     15  C   UNL d   1      54.758  33.577  55.056  0.00  0.00     0.032 A 
ATOM     16  C   UNL d   1      54.937  33.069  54.428  0.00  0.00     0.033 A 
ATOM     17  C   UNL d   1      54.352  32.910  53.864  0.00  0.00     0.152 A 
ATOM     18  F   UNL d   1      54.529  32.400  53.232  0.00  0.00    -0.203 F 
ENDBRANCH   8  11
ENDBRANCH   7   8
ENDBRANCH   2   7
BRANCH   1  19
ATOM     19  C   UNL d   1      49.696  34.717  52.651  0.00  0.00     0.112 A 
ATOM     20  S   UNL d   1      49.171  34.738  52.020  0.00  0.00    -0.047 SA
ATOM     21  C   UNL d   1      48.548  35.265  52.217  0.00  0.00     0.130 A 
ATOM     22  N   UNL d   1      47.875  35.503  51.807  0.00  0.00    -0.236 NA
ATOM     23  C   UNL d   1      48.706  35.562  52.979  0.00  0.00     0.106 A 
ATOM     24  C   UNL d   1      47.355  36.042  52.160  0.00  0.00     0.100 A 
ATOM     25  C   UNL d   1      47.508  36.341  52.918  0.00  0.00     0.022 A 
ATOM     26  C   UNL d   1      48.181  36.100  53.324  0.00  0.00     0.023 A 
ATOM     27  N   UNL d   1      49.419  35.221  53.247  0.00  0.00    -0.237 NA
ENDBRANCH   1  19
TORSDOF 4
ENDMDL
MODEL 2
REMARK VINA RESULT:      -9.8      1.382      1.880
REMARK  4 active torsions:
REMARK  status: ('A' for Active; 'I' for Inactive)
REMARK    1  A    between atoms: C_2  and  S_1 
REMARK    2  A    between atoms: N_7  and  S_1 
REMARK    3  A    between atoms: C_3  and  C_12 
REMARK    4  A    between atoms: C_15  and  N_7 
ROOT
ATOM      1  C   UNL d   1      50.529  34.326  52.524  0.00  0.00     0.024 A 
ATOM      2  C   UNL d   1      52.023  33.783  52.997  0.00  0.00     0.094 A 
ATOM      3  C   UNL d   1      50.661  34.066  53.294  0.00  0.00     0.004 A 
ATOM      4  C   UNL d   1      51.152  34.315  51.980  0.00  0.00     0.004 A 
ATOM      5  C   UNL d   1      51.397  33.798  53.527  0.00  0.00     0.020 A 
ATOM      6  C   UNL d   1      51.893  34.047  52.210  0.00  0.00     0.020 A 
ENDROOT
BRANCH   2   7
ATOM      7  N   UNL d   1      52.759  33.516  53.227  0.00  0.00    -0.158 NA
BRANCH   7   8
ATOM      8  S   UNL d   1      52.908  32.701  53.273  0.00  0.00     0.287 S 
ATOM      9  O   UNL d   1      53.123  32.691  52.478  0.00  0.00    -0.198 OA
ATOM     10  O   UNL d   1      52.692  32.709  54.068  0.00  0.00    -0.198 OA
BRANCH   8  11
ATOM     11  C   UNL d   1      53.056  31.892  53.312  0.00  0.00     0.135 A 
ATOM     12  C   UNL d   1      52.498  31.347  53.064  0.00  0.00     0.045 A 
ATOM     13  C   UNL d   1      52.648  30.543  53.104  0.00  0.00     0.141 A 
ATOM     14  F   UNL d   1      52.082  30.000  52.852  0.00  0.00    -0.204 F 
ATOM     15  C   UNL d   1      53.371  30.278  53.399  0.00  0.00     0.032 A 
ATOM     16  C   UNL d   1      53.945  30.817  53.654  0.00  0.00     0.033 A 
ATOM     17  C   UNL d   1      53.780  31.628  53.608  0.00  0.00     0.152 A 
ATOM     18  F   UNL d   1      54.355  32.171  53.863  0.00  0.00    -0.203 F 
ENDBRANCH   8  11
ENDBRANCH   7   8
ENDBRANCH   2   7
BRANCH   1  19
ATOM     19  C   UNL d   1      49.785  34.596  52.288  0.00  0.00     0.112 A 
ATOM     20  S   UNL d   1      49.407  34.398  51.587  0.00  0.00    -0.047 SA
ATOM     21  C   UNL d   1      48.667  34.792  51.570  0.00  0.00     0.130 A 
ATOM     22  N   UNL d   1      48.059  34.804  51.015  0.00  0.00    -0.236 NA
ATOM     23  C   UNL d   1      48.605  35.233  52.274  0.00  0.00     0.106 A 
ATOM     24  C   UNL d   1      47.383  35.259  51.164  0.00  0.00     0.100 A 
ATOM     25  C   UNL d   1      47.317  35.699  51.864  0.00  0.00     0.022 A 
ATOM     26  C   UNL d   1      47.926  35.685  52.415  0.00  0.00     0.023 A 
ATOM     27  N   UNL d   1      49.300  35.109  52.719  0.00  0.00    -0.237 NA
ENDBRANCH   1  19
TORSDOF 4
ENDMDL
MODEL 3
REMARK VINA RESULT:      -8.2      2.386      5.469
REMARK  4 active torsions:
REMARK  status: ('A' for Active; 'I' for Inactive)
REMARK    1  A    between atoms: C_2  and  S_1 
REMARK    2  A    between atoms: N_7  and  S_1 
REMARK    3  A    between atoms: C_3  and  C_12 
REMARK    4  A    between atoms: C_15  and  N_7 
ROOT
ATOM      1  C   UNL d   1      51.844  33.888  53.229  0.00  0.00     0.024 A 
ATOM      2  C   UNL d   1      50.472  34.046  52.311  0.00  0.00     0.094 A 
ATOM      3  C   UNL d   1      51.146  33.506  53.441  0.00  0.00     0.004 A 
ATOM      4  C   UNL d   1      51.859  34.358  52.548  0.00  0.00     0.004 A 
ATOM      5  C   UNL d   1      50.470  33.584  52.989  0.00  0.00     0.020 A 
ATOM      6  C   UNL d   1      51.182  34.438  52.091  0.00  0.00     0.020 A 
ENDROOT
BRANCH   2   7
ATOM      7  N   UNL d   1      49.798  34.126  51.857  0.00  0.00    -0.158 NA
BRANCH   7   8
ATOM      8  S   UNL d   1      49.217  34.678  52.073  0.00  0.00     0.287 S 
ATOM      9  O   UNL d   1      48.874  34.125  52.578  0.00  0.00    -0.198 OA
ATOM     10  O   UNL d   1      49.560  35.232  51.569  0.00  0.00    -0.198 OA
BRANCH   8  11
ATOM     11  C   UNL d   1      48.639  35.221  52.291  0.00  0.00     0.135 A 
ATOM     12  C   UNL d   1      48.685  35.626  53.002  0.00  0.00     0.045 A 
ATOM     13  C   UNL d   1      48.109  36.166  53.217  0.00  0.00     0.141 A 
ATOM     14  F   UNL d   1      48.161  36.569  53.933  0.00  0.00    -0.204 F 
ATOM     15  C   UNL d   1      47.472  36.304  52.711  0.00  0.00     0.032 A 
ATOM     16  C   UNL d   1      47.412  35.903  51.991  0.00  0.00     0.033 A 
ATOM     17  C   UNL d   1      48.002  35.360  51.785  0.00  0.00     0.152 A 
ATOM     18  F   UNL d   1      47.944  34.955  51.061  0.00  0.00    -0.203 F 
ENDBRANCH   8  11
ENDBRANCH   7   8
ENDBRANCH   2   7
BRANCH   1  19
ATOM     19  C   UNL d   1      52.527  33.810  53.686  0.00  0.00     0.112 A 
ATOM     20  S   UNL d   1      52.878  34.408  54.124  0.00  0.00    -0.047 SA
ATOM     21  C   UNL d   1      53.557  34.091  54.502  0.00  0.00     0.130 A 
ATOM     22  N   UNL d   1      54.118  34.425  55.003  0.00  0.00    -0.236 NA
ATOM     23  C   UNL d   1      53.609  33.289  54.285  0.00  0.00     0.106 A 
ATOM     24  C   UNL d   1      54.736  33.954  55.291  0.00  0.00     0.100 A 
ATOM     25  C   UNL d   1      54.792  33.155  55.077  0.00  0.00     0.022 A 
ATOM     26  C   UNL d   1      54.229  32.826  54.576  0.00  0.00     0.023 A 
ATOM     27  N   UNL d   1      52.968  33.116  53.778  0.00  0.00    -0.237 NA
ENDBRANCH   1  19
TORSDOF 4
ENDMDL
