MODEL 1
REMARK VINA RESULT:      -7.3      0.000      0.000
REMARK  4 active torsions:
REMARK  status: ('A' for Active; 'I' for Inactive)
REMARK    1  A    between atoms: C_7  and  N_1 
REMARK    2  A    between atoms: C_8  and  C_7 
REMARK       I    between atoms: N_11  and  C_8 
REMARK    3  A    between atoms: C_13  and  N_11 
REMARK    4  A    between atoms: C_15  and  C_13 
ROOT
ATOM      1  C   UNL d   1     -49.056  14.131  22.209  0.00  0.00     0.148 C 
ENDROOT
BRANCH   1   2
ATOM      2  N   UNL d   1     -49.722  14.149  22.696  0.00  0.00    -0.235 N 
ATOM      3  C   UNL d   1     -50.061  13.439  22.956  0.00  0.00     0.273 A 
ATOM      4  C   UNL d   1     -50.720  13.457  23.438  0.00  0.00     0.086 A 
ATOM      5  O   UNL d   1     -49.731  12.716  22.726  0.00  0.00    -0.266 OA
ATOM      6  C   UNL d   1     -51.059  12.743  23.698  0.00  0.00     0.012 C 
ATOM      7  S   UNL d   1     -51.054  14.168  23.670  0.00  0.00    -0.077 SA
ATOM      8  C   UNL d   1     -50.722  14.873  23.415  0.00  0.00     0.086 A 
ATOM      9  C   UNL d   1     -50.056  14.872  22.927  0.00  0.00     0.273 A 
ATOM     10  C   UNL d   1     -51.052  15.593  23.644  0.00  0.00     0.012 C 
ATOM     11  O   UNL d   1     -49.720  15.578  22.670  0.00  0.00    -0.266 OA
ENDBRANCH   1   2
BRANCH   1  12
ATOM     12  C   UNL d   1     -48.310  14.259  22.531  0.00  0.00     0.297 C 
ATOM     13  N   UNL d   1     -47.753  13.656  22.551  0.00  0.00    -0.205 NA
ATOM     14  O   UNL d   1     -48.120  15.001  22.837  0.00  0.00    -0.264 OA
BRANCH  13  15
ATOM     15  C   UNL d   1     -47.007  13.776  22.870  0.00  0.00     0.102 C 
BRANCH  15  16
ATOM     16  C   UNL d   1     -46.450  13.167  22.894  0.00  0.00     0.019 A 
ATOM     17  C   UNL d   1     -45.771  13.217  22.428  0.00  0.00     0.004 A 
ATOM     18  C   UNL d   1     -45.210  12.609  22.449  0.00  0.00     0.030 A 
ATOM     19  C   UNL d   1     -45.335  11.959  22.935  0.00  0.00     0.140 A 
ATOM     20  C   UNL d   1     -46.014  11.908  23.401  0.00  0.00     0.030 A 
ATOM     21  F   UNL d   1     -44.779  11.345  22.963  0.00  0.00    -0.204 F 
ATOM     22  C   UNL d   1     -46.579  12.517  23.382  0.00  0.00     0.004 A 
ENDBRANCH  15  16
ENDBRANCH  13  15
ENDBRANCH   1  12
TORSDOF 4
ENDMDL
MODEL 2
REMARK VINA RESULT:      -7.1      1.281      1.890
REMARK  4 active torsions:
REMARK  status: ('A' for Active; 'I' for Inactive)
REMARK    1  A    between atoms: C_7  and  N_1 
REMARK    2  A    between atoms: C_8  and  C_7 
REMARK       I    between atoms: N_11  and  C_8 
REMARK    3  A    between atoms: C_13  and  N_11 
REMARK    4  A    between atoms: C_15  and  C_13 
ROOT
ATOM      1  C   UNL d   1     -48.730  12.537  22.177  0.00  0.00     0.148 C 
ENDROOT
BRANCH   1   2
ATOM      2  N   UNL d   1     -49.507  12.692  22.408  0.00  0.00    -0.235 N 
ATOM      3  C   UNL d   1     -49.901  13.356  22.108  0.00  0.00     0.273 A 
ATOM      4  C   UNL d   1     -50.670  13.509  22.337  0.00  0.00     0.086 A 
ATOM      5  O   UNL d   1     -49.515  13.859  21.577  0.00  0.00    -0.266 OA
ATOM      6  C   UNL d   1     -51.064  14.176  22.034  0.00  0.00     0.012 C 
ATOM      7  S   UNL d   1     -51.060  13.016  22.861  0.00  0.00    -0.077 SA
ATOM      8  C   UNL d   1     -50.674  12.358  23.161  0.00  0.00     0.086 A 
ATOM      9  C   UNL d   1     -49.897  12.189  22.940  0.00  0.00     0.273 A 
ATOM     10  C   UNL d   1     -51.060  11.856  23.690  0.00  0.00     0.012 C 
ATOM     11  O   UNL d   1     -49.507  11.529  23.239  0.00  0.00    -0.266 OA
ENDBRANCH   1   2
BRANCH   1  12
ATOM     12  C   UNL d   1     -48.104  12.853  22.607  0.00  0.00     0.297 C 
ATOM     13  N   UNL d   1     -47.331  12.771  22.343  0.00  0.00    -0.205 NA
ATOM     14  O   UNL d   1     -48.256  13.257  23.310  0.00  0.00    -0.264 OA
BRANCH  13  15
ATOM     15  C   UNL d   1     -46.702  13.083  22.766  0.00  0.00     0.102 C 
BRANCH  15  16
ATOM     16  C   UNL d   1     -45.921  12.916  22.555  0.00  0.00     0.019 A 
ATOM     17  C   UNL d   1     -45.506  13.442  22.074  0.00  0.00     0.004 A 
ATOM     18  C   UNL d   1     -44.723  13.278  21.861  0.00  0.00     0.030 A 
ATOM     19  C   UNL d   1     -44.365  12.591  22.132  0.00  0.00     0.140 A 
ATOM     20  C   UNL d   1     -44.779  12.064  22.614  0.00  0.00     0.030 A 
ATOM     21  F   UNL d   1     -43.582  12.418  21.924  0.00  0.00    -0.204 F 
ATOM     22  C   UNL d   1     -45.565  12.226  22.829  0.00  0.00     0.004 A 
ENDBRANCH  15  16
ENDBRANCH  13  15
ENDBRANCH   1  12
TORSDOF 4
ENDMDL
MODEL 3
REMARK VINA RESULT:      -6.8      1.364      1.609
REMARK  4 active torsions:
REMARK  status: ('A' for Active; 'I' for Inactive)
REMARK    1  A    between atoms: C_7  and  N_1 
REMARK    2  A    between atoms: C_8  and  C_7 
REMARK       I    between atoms: N_11  and  C_8 
REMARK    3  A    between atoms: C_13  and  N_11 
REMARK    4  A    between atoms: C_15  and  C_13 
ROOT
ATOM      1  C   UNL d   1     -48.490  12.433  22.156  0.00  0.00     0.148 C 
ENDROOT
BRANCH   1   2
ATOM      2  N   UNL d   1     -49.264  12.664  22.320  0.00  0.00    -0.235 N 
ATOM      3  C   UNL d   1     -49.746  12.184  22.793  0.00  0.00     0.273 A 
ATOM      4  C   UNL d   1     -50.513  12.413  22.956  0.00  0.00     0.086 A 
ATOM      5  O   UNL d   1     -49.449  11.474  23.097  0.00  0.00    -0.266 OA
ATOM      6  C   UNL d   1     -50.995  11.929  23.430  0.00  0.00     0.012 C 
ATOM      7  S   UNL d   1     -50.815  13.114  22.659  0.00  0.00    -0.077 SA
ATOM      8  C   UNL d   1     -50.342  13.593  22.190  0.00  0.00     0.086 A 
ATOM      9  C   UNL d   1     -49.565  13.375  22.017  0.00  0.00     0.273 A 
ATOM     10  C   UNL d   1     -50.639  14.300  21.888  0.00  0.00     0.012 C 
ATOM     11  O   UNL d   1     -49.088  13.853  21.547  0.00  0.00    -0.266 OA
ENDBRANCH   1   2
BRANCH   1  12
ATOM     12  C   UNL d   1     -47.895  12.572  22.707  0.00  0.00     0.297 C 
ATOM     13  N   UNL d   1     -47.254  12.062  22.770  0.00  0.00    -0.205 NA
ATOM     14  O   UNL d   1     -47.943  13.231  23.201  0.00  0.00    -0.264 OA
BRANCH  13  15
ATOM     15  C   UNL d   1     -46.657  12.194  23.317  0.00  0.00     0.102 C 
BRANCH  15  16
ATOM     16  C   UNL d   1     -45.973  11.733  23.321  0.00  0.00     0.019 A 
ATOM     17  C   UNL d   1     -45.291  12.011  22.949  0.00  0.00     0.004 A 
ATOM     18  C   UNL d   1     -44.602  11.552  22.951  0.00  0.00     0.030 A 
ATOM     19  C   UNL d   1     -44.604  10.821  23.325  0.00  0.00     0.140 A 
ATOM     20  C   UNL d   1     -45.285  10.542  23.698  0.00  0.00     0.030 A 
ATOM     21  F   UNL d   1     -43.920  10.354  23.333  0.00  0.00    -0.204 F 
ATOM     22  C   UNL d   1     -45.978  11.001  23.697  0.00  0.00     0.004 A 
ENDBRANCH  15  16
ENDBRANCH  13  15
ENDBRANCH   1  12
TORSDOF 4
ENDMDL
MODEL 4
REMARK VINA RESULT:      -6.3      9.420     10.175
REMARK  4 active torsions:
REMARK  status: ('A' for Active; 'I' for Inactive)
REMARK    1  A    between atoms: C_7  and  N_1 
REMARK    2  A    between atoms: C_8  and  C_7 
REMARK       I    between atoms: N_11  and  C_8 
REMARK    3  A    between atoms: C_13  and  N_11 
REMARK    4  A    between atoms: C_15  and  C_13 
ROOT
ATOM      1  C   UNL d   1     -39.836  14.314  18.526  0.00  0.00     0.148 C 
ENDROOT
BRANCH   1   2
ATOM      2  N   UNL d   1     -39.874  14.825  17.879  0.00  0.00    -0.235 N 
ATOM      3  C   UNL d   1     -40.611  15.045  17.572  0.00  0.00     0.273 A 
ATOM      4  C   UNL d   1     -40.649  15.551  16.931  0.00  0.00     0.086 A 
ATOM      5  O   UNL d   1     -41.305  14.753  17.914  0.00  0.00    -0.266 OA
ATOM      6  C   UNL d   1     -41.390  15.772  16.624  0.00  0.00     0.012 C 
ATOM      7  S   UNL d   1     -39.967  15.845  16.586  0.00  0.00    -0.077 SA
ATOM      8  C   UNL d   1     -39.235  15.629  16.887  0.00  0.00     0.086 A 
ATOM      9  C   UNL d   1     -39.180  15.119  17.533  0.00  0.00     0.273 A 
ATOM     10  C   UNL d   1     -38.544  15.922  16.545  0.00  0.00     0.012 C 
ATOM     11  O   UNL d   1     -38.447  14.901  17.838  0.00  0.00    -0.266 OA
ENDBRANCH   1   2
BRANCH   1  12
ATOM     12  C   UNL d   1     -39.776  14.621  19.287  0.00  0.00     0.297 C 
ATOM     13  N   UNL d   1     -39.380  14.208  19.876  0.00  0.00    -0.205 NA
ATOM     14  O   UNL d   1     -40.119  15.351  19.459  0.00  0.00    -0.264 OA
BRANCH  13  15
ATOM     15  C   UNL d   1     -39.317  14.507  20.636  0.00  0.00     0.102 C 
BRANCH  15  16
ATOM     16  C   UNL d   1     -38.997  14.054  21.248  0.00  0.00     0.019 A 
ATOM     17  C   UNL d   1     -39.424  13.952  21.947  0.00  0.00     0.004 A 
ATOM     18  C   UNL d   1     -39.107  13.499  22.563  0.00  0.00     0.030 A 
ATOM     19  C   UNL d   1     -38.367  13.153  22.472  0.00  0.00     0.140 A 
ATOM     20  C   UNL d   1     -37.940  13.254  21.774  0.00  0.00     0.030 A 
ATOM     21  F   UNL d   1     -38.042  12.698  23.082  0.00  0.00    -0.204 F 
ATOM     22  C   UNL d   1     -38.255  13.709  21.154  0.00  0.00     0.004 A 
ENDBRANCH  15  16
ENDBRANCH  13  15
ENDBRANCH   1  12
TORSDOF 4
ENDMDL
MODEL 5
REMARK VINA RESULT:      -6.2      9.066     10.680
REMARK  4 active torsions:
REMARK  status: ('A' for Active; 'I' for Inactive)
REMARK    1  A    between atoms: C_7  and  N_1 
REMARK    2  A    between atoms: C_8  and  C_7 
REMARK       I    between atoms: N_11  and  C_8 
REMARK    3  A    between atoms: C_13  and  N_11 
REMARK    4  A    between atoms: C_15  and  C_13 
ROOT
ATOM      1  C   UNL d   1     -40.311  14.515  17.453  0.00  0.00     0.148 C 
ENDROOT
BRANCH   1   2
ATOM      2  N   UNL d   1     -39.570  14.291  17.166  0.00  0.00    -0.235 N 
ATOM      3  C   UNL d   1     -39.187  13.630  17.488  0.00  0.00     0.273 A 
ATOM      4  C   UNL d   1     -38.454  13.408  17.204  0.00  0.00     0.086 A 
ATOM      5  O   UNL d   1     -39.548  13.199  18.095  0.00  0.00    -0.266 OA
ATOM      6  C   UNL d   1     -38.071  12.744  17.528  0.00  0.00     0.012 C 
ATOM      7  S   UNL d   1     -38.090  13.828  16.603  0.00  0.00    -0.077 SA
ATOM      8  C   UNL d   1     -38.465  14.483  16.282  0.00  0.00     0.086 A 
ATOM      9  C   UNL d   1     -39.206  14.720  16.558  0.00  0.00     0.273 A 
ATOM     10  C   UNL d   1     -38.104  14.911  15.677  0.00  0.00     0.012 C 
ATOM     11  O   UNL d   1     -39.585  15.376  16.237  0.00  0.00    -0.266 OA
ENDBRANCH   1   2
BRANCH   1  12
ATOM     12  C   UNL d   1     -40.388  15.212  17.884  0.00  0.00     0.297 C 
ATOM     13  N   UNL d   1     -40.327  15.207  18.703  0.00  0.00    -0.205 NA
ATOM     14  O   UNL d   1     -40.530  15.922  17.489  0.00  0.00    -0.264 OA
BRANCH  13  15
ATOM     15  C   UNL d   1     -40.403  15.896  19.140  0.00  0.00     0.102 C 
BRANCH  15  16
ATOM     16  C   UNL d   1     -40.281  15.901  19.956  0.00  0.00     0.019 A 
ATOM     17  C   UNL d   1     -40.930  15.888  20.466  0.00  0.00     0.004 A 
ATOM     18  C   UNL d   1     -40.811  15.892  21.286  0.00  0.00     0.030 A 
ATOM     19  C   UNL d   1     -40.047  15.909  21.584  0.00  0.00     0.140 A 
ATOM     20  C   UNL d   1     -39.398  15.922  21.075  0.00  0.00     0.030 A 
ATOM     21  F   UNL d   1     -39.918  15.913  22.402  0.00  0.00    -0.204 F 
ATOM     22  C   UNL d   1     -39.513  15.918  20.253  0.00  0.00     0.004 A 
ENDBRANCH  15  16
ENDBRANCH  13  15
ENDBRANCH   1  12
TORSDOF 4
ENDMDL
