MODEL 1
REMARK VINA RESULT:      -2.1      0.000      0.000
REMARK  0 active torsions:
REMARK  status: ('A' for Active; 'I' for Inactive)
ROOT
ATOM      1  C   UNL d   1      24.393  13.177  -1.286  0.00  0.00     0.020 A 
ATOM      2  N   UNL d   1      24.392  14.205  -0.287  0.00  0.00    -0.242 NA
ATOM      3  C   UNL d   1      23.663  12.915  -1.009  0.00  0.00     0.003 A 
ATOM      4  C   UNL d   1      24.763  12.802  -1.918  0.00  0.00     0.013 A 
ATOM      5  C   UNL d   1      23.301  12.267  -1.376  0.00  0.00     0.001 A 
ATOM      6  C   UNL d   1      24.401  12.160  -2.279  0.00  0.00     0.058 A 
ATOM      7  C   UNL d   1      23.668  11.892  -2.006  0.00  0.00     0.011 A 
ATOM      8  C   UNL d   1      24.758  13.826  -0.921  0.00  0.00     0.099 A 
ATOM      9 CL   UNL d   1      24.768  11.785  -2.910  0.00  0.00    -0.082 Cl
ATOM     10  C   UNL d   1      23.658  13.936  -0.015  0.00  0.00     0.099 A 
ATOM     11  C   UNL d   1      23.289  13.288  -0.376  0.00  0.00     0.021 A 
ENDROOT
TORSDOF 0
ENDMDL
MODEL 2
REMARK VINA RESULT:      -0.7      1.574      2.317
REMARK  0 active torsions:
REMARK  status: ('A' for Active; 'I' for Inactive)
ROOT
ATOM      1  C   UNL d   1      24.345  13.160  -1.249  0.00  0.00     0.020 A 
ATOM      2  N   UNL d   1      24.453  12.063  -2.164  0.00  0.00    -0.242 NA
ATOM      3  C   UNL d   1      23.615  12.874  -1.001  0.00  0.00     0.003 A 
ATOM      4  C   UNL d   1      24.662  13.847  -0.922  0.00  0.00     0.013 A 
ATOM      5  C   UNL d   1      23.197  13.285  -0.416  0.00  0.00     0.001 A 
ATOM      6  C   UNL d   1      24.245  14.251  -0.343  0.00  0.00     0.058 A 
ATOM      7  C   UNL d   1      23.511  13.969  -0.089  0.00  0.00     0.011 A 
ATOM      8  C   UNL d   1      24.766  12.751  -1.834  0.00  0.00     0.099 A 
ATOM      9 CL   UNL d   1      24.559  14.936  -0.016  0.00  0.00    -0.082 Cl
ATOM     10  C   UNL d   1      23.718  11.782  -1.910  0.00  0.00     0.099 A 
ATOM     11  C   UNL d   1      23.294  12.187  -1.325  0.00  0.00     0.021 A 
ENDROOT
TORSDOF 0
ENDMDL
