MODEL 1
REMARK VINA RESULT:      -0.8      0.000      0.000
REMARK  6 active torsions:
REMARK  status: ('A' for Active; 'I' for Inactive)
REMARK    1  A    between atoms: C_3  and  C_1 
REMARK    2  A    between atoms: N_9  and  C_3 
REMARK    3  A    between atoms: C_13  and  C_3 
REMARK    4  A    between atoms: N_4  and  C_10 
REMARK    5  A    between atoms: C_19  and  C_8 
REMARK    6  A    between atoms: C_15  and  N_9 
ROOT
ATOM      1  C   UNL d   1      32.166  17.497 -24.052  0.00  0.00     0.125 C 
ENDROOT
BRANCH   1   2
ATOM      2  C   UNL d   1      32.405  18.250 -23.766  0.00  0.00     0.161 A 
ATOM      3  C   UNL d   1      32.705  18.814 -24.273  0.00  0.00     0.258 A 
ATOM      4  C   UNL d   1      32.938  19.555 -23.977  0.00  0.00     0.238 A 
ATOM      5  O   UNL d   1      32.784  18.658 -25.097  0.00  0.00    -0.281 OA
ATOM      6  O   UNL d   1      33.239  20.119 -24.484  0.00  0.00    -0.283 OA
ATOM      7  C   UNL d   1      32.866  19.720 -23.171  0.00  0.00     0.073 A 
ATOM      8  C   UNL d   1      32.565  19.156 -22.664  0.00  0.00     0.146 A 
ATOM      9  O   UNL d   1      32.333  18.419 -22.954  0.00  0.00    -0.299 OA
BRANCH   8  10
ATOM     10  C   UNL d   1      32.493  19.325 -21.853  0.00  0.00     0.259 C 
ATOM     11  O   UNL d   1      32.423  20.098 -21.585  0.00  0.00    -0.281 OA
ENDBRANCH   8  10
ENDBRANCH   1   2
BRANCH   1  12
ATOM     12  N   UNL d   1      31.630  17.434 -24.664  0.00  0.00    -0.242 NA
BRANCH  12  13
ATOM     13  C   UNL d   1      30.864  17.205 -24.521  0.00  0.00     0.083 A 
ATOM     14  C   UNL d   1      30.273  17.784 -24.442  0.00  0.00     0.043 A 
ATOM     15  C   UNL d   1      29.488  17.561 -24.297  0.00  0.00     0.128 A 
ATOM     16  C   UNL d   1      29.295  16.771 -24.231  0.00  0.00     0.024 A 
ATOM     17  C   UNL d   1      29.883  16.192 -24.310  0.00  0.00     0.003 A 
ATOM     18  C   UNL d   1      30.671  16.415 -24.456  0.00  0.00     0.019 A 
BRANCH  15  19
ATOM     19  N   UNL d   1      28.893  18.128 -24.217  0.00  0.00    -0.114 N 
ATOM     20  O   UNL d   1      28.627  18.616 -24.840  0.00  0.00    -0.532 OA
ATOM     21  O   UNL d   1      28.492  18.282 -23.519  0.00  0.00    -0.532 OA
ENDBRANCH  15  19
ENDBRANCH  12  13
ENDBRANCH   1  12
BRANCH   1  22
ATOM     22  C   UNL d   1      32.481  16.814 -23.705  0.00  0.00     0.101 A 
ATOM     23  N   UNL d   1      32.335  16.647 -22.904  0.00  0.00    -0.242 NA
ATOM     24  C   UNL d   1      32.649  15.965 -22.560  0.00  0.00     0.099 A 
ATOM     25  C   UNL d   1      33.104  15.455 -23.005  0.00  0.00     0.021 A 
ATOM     26  C   UNL d   1      33.241  15.630 -23.790  0.00  0.00     0.003 A 
ATOM     27  C   UNL d   1      32.938  16.295 -24.138  0.00  0.00     0.021 A 
ENDBRANCH   1  22
TORSDOF 6
ENDMDL
MODEL 2
REMARK VINA RESULT:       1.8      1.487      2.791
REMARK  6 active torsions:
REMARK  status: ('A' for Active; 'I' for Inactive)
REMARK    1  A    between atoms: C_3  and  C_1 
REMARK    2  A    between atoms: N_9  and  C_3 
REMARK    3  A    between atoms: C_13  and  C_3 
REMARK    4  A    between atoms: N_4  and  C_10 
REMARK    5  A    between atoms: C_19  and  C_8 
REMARK    6  A    between atoms: C_15  and  N_9 
ROOT
ATOM      1  C   UNL d   1      31.743  17.821 -24.131  0.00  0.00     0.125 C 
ENDROOT
BRANCH   1   2
ATOM      2  C   UNL d   1      31.956  17.026 -23.967  0.00  0.00     0.161 A 
ATOM      3  C   UNL d   1      32.496  16.634 -24.436  0.00  0.00     0.258 A 
ATOM      4  C   UNL d   1      32.699  15.845 -24.263  0.00  0.00     0.238 A 
ATOM      5  O   UNL d   1      32.855  17.013 -25.096  0.00  0.00    -0.281 OA
ATOM      6  O   UNL d   1      33.239  15.453 -24.732  0.00  0.00    -0.283 OA
ATOM      7  C   UNL d   1      32.355  15.462 -23.619  0.00  0.00     0.073 A 
ATOM      8  C   UNL d   1      31.814  15.854 -23.150  0.00  0.00     0.146 A 
ATOM      9  O   UNL d   1      31.611  16.636 -23.318  0.00  0.00    -0.299 OA
BRANCH   8  10
ATOM     10  C   UNL d   1      31.469  15.465 -22.501  0.00  0.00     0.259 C 
ATOM     11  O   UNL d   1      30.672  15.554 -22.328  0.00  0.00    -0.281 OA
ENDBRANCH   8  10
ENDBRANCH   1   2
BRANCH   1  12
ATOM     12  N   UNL d   1      31.254  18.002 -24.758  0.00  0.00    -0.242 NA
BRANCH  12  13
ATOM     13  C   UNL d   1      30.447  17.956 -24.681  0.00  0.00     0.083 A 
ATOM     14  C   UNL d   1      30.063  17.233 -24.828  0.00  0.00     0.043 A 
ATOM     15  C   UNL d   1      29.240  17.176 -24.752  0.00  0.00     0.128 A 
ATOM     16  C   UNL d   1      28.804  17.830 -24.533  0.00  0.00     0.024 A 
ATOM     17  C   UNL d   1      29.186  18.551 -24.386  0.00  0.00     0.003 A 
ATOM     18  C   UNL d   1      30.012  18.610 -24.462  0.00  0.00     0.019 A 
BRANCH  15  19
ATOM     19  N   UNL d   1      28.850  16.463 -24.895  0.00  0.00    -0.114 N 
ATOM     20  O   UNL d   1      29.240  15.743 -25.060  0.00  0.00    -0.532 OA
ATOM     21  O   UNL d   1      28.035  16.372 -24.893  0.00  0.00    -0.532 OA
ENDBRANCH  15  19
ENDBRANCH  12  13
ENDBRANCH   1  12
BRANCH   1  22
ATOM     22  C   UNL d   1      32.035  18.427 -23.646  0.00  0.00     0.101 A 
ATOM     23  N   UNL d   1      31.896  18.409 -22.826  0.00  0.00    -0.242 NA
ATOM     24  C   UNL d   1      32.188  19.013 -22.345  0.00  0.00     0.099 A 
ATOM     25  C   UNL d   1      32.614  19.627 -22.672  0.00  0.00     0.021 A 
ATOM     26  C   UNL d   1      32.744  19.633 -23.477  0.00  0.00     0.003 A 
ATOM     27  C   UNL d   1      32.462  19.047 -23.959  0.00  0.00     0.021 A 
ENDBRANCH   1  22
TORSDOF 6
ENDMDL
