MODEL 1
REMARK VINA RESULT:     -10.0      0.000      0.000
REMARK  3 active torsions:
REMARK  status: ('A' for Active; 'I' for Inactive)
REMARK    1  A    between atoms: N_4  and  C_1 
REMARK    2  A    between atoms: C_5  and  C_3 
REMARK       I    between atoms: C_8  and  N_4 
REMARK    3  A    between atoms: C_9  and  C_8 
ROOT
ATOM      1  C   UNL d   1      51.156  34.380  52.959  0.00  0.00     0.204 A 
ATOM      2  S   UNL d   1      51.491  33.758  53.209  0.00  0.00    -0.031 SA
ATOM      3  C   UNL d   1      52.318  33.964  53.474  0.00  0.00     0.119 A 
ATOM      4  N   UNL d   1      51.696  35.058  53.022  0.00  0.00    -0.123 NA
ATOM      5  N   UNL d   1      52.370  34.790  53.326  0.00  0.00    -0.143 NA
ENDROOT
BRANCH   3   6
ATOM      6  C   UNL d   1      52.851  33.471  53.771  0.00  0.00     0.081 A 
ATOM      7  C   UNL d   1      53.204  34.082  54.561  0.00  0.00     0.023 A 
ATOM      8  C   UNL d   1      53.797  33.740  55.021  0.00  0.00     0.045 A 
ATOM      9  C   UNL d   1      54.053  32.936  54.806  0.00  0.00    -0.022 A 
ATOM     10  C   UNL d   1      54.404  32.702  55.060  0.00  0.00    -0.022 A 
ATOM     11  C   UNL d   1      53.802  32.459  54.217  0.00  0.00    -0.008 A 
ATOM     12  C   UNL d   1      53.065  32.714  53.536  0.00  0.00    -0.017 A 
ATOM     13  C   UNL d   1      54.050  31.727  54.038  0.00  0.00    -0.001 A 
ATOM     14  C   UNL d   1      53.973  32.449  54.406  0.00  0.00    -0.008 A 
ATOM     15  C   UNL d   1      53.380  32.792  53.946  0.00  0.00    -0.017 A 
ENDBRANCH   3   6
BRANCH   1  16
ATOM     16  N   UNL d   1      50.410  34.530  52.652  0.00  0.00    -0.248 N 
ATOM     17  C   UNL d   1      50.204  34.407  51.863  0.00  0.00     0.289 C 
ATOM     18  O   UNL d   1      50.787  34.112  51.336  0.00  0.00    -0.264 OA
ATOM     19  C   UNL d   1      49.853  34.807  53.135  0.00  0.00     0.104 C 
BRANCH  17  20
ATOM     20  C   UNL d   1      49.440  34.569  51.587  0.00  0.00     0.156 A 
ATOM     21  O   UNL d   1      48.756  34.848  51.964  0.00  0.00    -0.300 OA
ATOM     22  C   UNL d   1      48.146  34.897  51.367  0.00  0.00     0.123 A 
ATOM     23  C   UNL d   1      48.444  34.662  50.672  0.00  0.00     0.029 A 
ATOM     24  C   UNL d   1      49.230  34.458  50.784  0.00  0.00     0.032 A 
ENDBRANCH  17  20
ENDBRANCH   1  16
TORSDOF 3
ENDMDL
MODEL 2
REMARK VINA RESULT:      -9.0      2.949      4.068
REMARK  3 active torsions:
REMARK  status: ('A' for Active; 'I' for Inactive)
REMARK    1  A    between atoms: N_4  and  C_1 
REMARK    2  A    between atoms: C_5  and  C_3 
REMARK       I    between atoms: C_8  and  N_4 
REMARK    3  A    between atoms: C_9  and  C_8 
ROOT
ATOM      1  C   UNL d   1      53.837  32.878  54.148  0.00  0.00     0.204 A 
ATOM      2  S   UNL d   1      53.489  32.244  54.346  0.00  0.00    -0.031 SA
ATOM      3  C   UNL d   1      53.787  31.580  53.831  0.00  0.00     0.119 A 
ATOM      4  N   UNL d   1      54.392  32.724  53.497  0.00  0.00    -0.123 NA
ATOM      5  N   UNL d   1      54.345  31.957  53.329  0.00  0.00    -0.143 NA
ENDROOT
BRANCH   3   6
ATOM      6  C   UNL d   1      53.564  30.828  53.859  0.00  0.00     0.081 A 
ATOM      7  C   UNL d   1      53.007  30.798  52.959  0.00  0.00     0.023 A 
ATOM      8  C   UNL d   1      52.668  30.064  52.790  0.00  0.00     0.045 A 
ATOM      9  C   UNL d   1      52.808  29.421  53.358  0.00  0.00    -0.022 A 
ATOM     10  C   UNL d   1      52.621  28.970  53.288  0.00  0.00    -0.022 A 
ATOM     11  C   UNL d   1      53.224  29.421  54.041  0.00  0.00    -0.008 A 
ATOM     12  C   UNL d   1      53.719  30.248  54.419  0.00  0.00    -0.017 A 
ATOM     13  C   UNL d   1      53.339  28.821  54.547  0.00  0.00    -0.001 A 
ATOM     14  C   UNL d   1      53.087  29.254  53.905  0.00  0.00    -0.008 A 
ATOM     15  C   UNL d   1      53.425  29.987  54.074  0.00  0.00    -0.017 A 
ENDBRANCH   3   6
BRANCH   1  16
ATOM     16  N   UNL d   1      53.790  33.650  54.420  0.00  0.00    -0.248 N 
ATOM     17  C   UNL d   1      53.144  34.146  54.290  0.00  0.00     0.289 C 
ATOM     18  O   UNL d   1      52.491  33.849  53.855  0.00  0.00    -0.264 OA
ATOM     19  C   UNL d   1      54.397  33.942  54.830  0.00  0.00     0.104 C 
BRANCH  17  20
ATOM     20  C   UNL d   1      53.131  34.922  54.580  0.00  0.00     0.156 A 
ATOM     21  O   UNL d   1      53.296  35.243  55.326  0.00  0.00    -0.300 OA
ATOM     22  C   UNL d   1      53.179  36.088  55.263  0.00  0.00     0.123 A 
ATOM     23  C   UNL d   1      52.958  36.265  54.524  0.00  0.00     0.029 A 
ATOM     24  C   UNL d   1      52.922  35.569  54.091  0.00  0.00     0.032 A 
ENDBRANCH  17  20
ENDBRANCH   1  16
TORSDOF 3
ENDMDL
MODEL 3
REMARK VINA RESULT:      -8.5      2.768      4.966
REMARK  3 active torsions:
REMARK  status: ('A' for Active; 'I' for Inactive)
REMARK    1  A    between atoms: N_4  and  C_1 
REMARK    2  A    between atoms: C_5  and  C_3 
REMARK       I    between atoms: C_8  and  N_4 
REMARK    3  A    between atoms: C_9  and  C_8 
ROOT
ATOM      1  C   UNL d   1      52.839  31.193  53.257  0.00  0.00     0.204 A 
ATOM      2  S   UNL d   1      52.767  31.842  53.625  0.00  0.00    -0.031 SA
ATOM      3  C   UNL d   1      52.700  32.503  53.030  0.00  0.00     0.119 A 
ATOM      4  N   UNL d   1      52.829  31.332  52.399  0.00  0.00    -0.123 NA
ATOM      5  N   UNL d   1      52.746  32.107  52.291  0.00  0.00    -0.143 NA
ENDROOT
BRANCH   3   6
ATOM      6  C   UNL d   1      52.617  33.267  53.187  0.00  0.00     0.081 A 
ATOM      7  C   UNL d   1      51.605  33.378  52.891  0.00  0.00     0.023 A 
ATOM      8  C   UNL d   1      51.303  34.141  52.978  0.00  0.00     0.045 A 
ATOM      9  C   UNL d   1      51.841  34.747  53.295  0.00  0.00    -0.022 A 
ATOM     10  C   UNL d   1      51.693  35.213  53.359  0.00  0.00    -0.022 A 
ATOM     11  C   UNL d   1      52.604  34.687  53.523  0.00  0.00    -0.008 A 
ATOM     12  C   UNL d   1      53.154  33.811  53.488  0.00  0.00    -0.017 A 
ATOM     13  C   UNL d   1      53.078  35.255  53.810  0.00  0.00    -0.001 A 
ATOM     14  C   UNL d   1      52.426  34.870  53.510  0.00  0.00    -0.008 A 
ATOM     15  C   UNL d   1      52.728  34.107  53.423  0.00  0.00    -0.017 A 
ENDBRANCH   3   6
BRANCH   1  16
ATOM     16  N   UNL d   1      52.921  30.415  53.504  0.00  0.00    -0.248 N 
ATOM     17  C   UNL d   1      53.310  30.191  54.195  0.00  0.00     0.289 C 
ATOM     18  O   UNL d   1      53.646  30.788  54.680  0.00  0.00    -0.264 OA
ATOM     19  C   UNL d   1      52.610  29.844  53.059  0.00  0.00     0.104 C 
BRANCH  17  20
ATOM     20  C   UNL d   1      53.374  29.394  54.415  0.00  0.00     0.156 A 
ATOM     21  O   UNL d   1      53.460  28.698  53.973  0.00  0.00    -0.300 OA
ATOM     22  C   UNL d   1      53.494  28.052  54.534  0.00  0.00     0.123 A 
ATOM     23  C   UNL d   1      53.432  28.342  55.268  0.00  0.00     0.029 A 
ATOM     24  C   UNL d   1      53.358  29.158  55.218  0.00  0.00     0.032 A 
ENDBRANCH  17  20
ENDBRANCH   1  16
TORSDOF 3
ENDMDL
MODEL 4
REMARK VINA RESULT:      -8.5      1.381      5.136
REMARK  3 active torsions:
REMARK  status: ('A' for Active; 'I' for Inactive)
REMARK    1  A    between atoms: N_4  and  C_1 
REMARK    2  A    between atoms: C_5  and  C_3 
REMARK       I    between atoms: C_8  and  N_4 
REMARK    3  A    between atoms: C_9  and  C_8 
ROOT
ATOM      1  C   UNL d   1      51.325  33.871  52.907  0.00  0.00     0.204 A 
ATOM      2  S   UNL d   1      50.680  34.164  53.154  0.00  0.00    -0.031 SA
ATOM      3  C   UNL d   1      50.241  34.514  52.460  0.00  0.00     0.119 A 
ATOM      4  N   UNL d   1      51.396  33.982  52.048  0.00  0.00    -0.123 NA
ATOM      5  N   UNL d   1      50.750  34.361  51.809  0.00  0.00    -0.143 NA
ENDROOT
BRANCH   3   6
ATOM      6  C   UNL d   1      49.544  34.873  52.481  0.00  0.00     0.081 A 
ATOM      7  C   UNL d   1      49.208  34.617  51.509  0.00  0.00     0.023 A 
ATOM      8  C   UNL d   1      48.461  34.909  51.316  0.00  0.00     0.045 A 
ATOM      9  C   UNL d   1      48.050  35.381  51.921  0.00  0.00    -0.022 A 
ATOM     10  C   UNL d   1      47.602  35.570  51.839  0.00  0.00    -0.022 A 
ATOM     11  C   UNL d   1      48.283  35.586  52.658  0.00  0.00    -0.008 A 
ATOM     12  C   UNL d   1      49.189  35.313  53.077  0.00  0.00    -0.017 A 
ATOM     13  C   UNL d   1      47.891  36.018  53.195  0.00  0.00    -0.001 A 
ATOM     14  C   UNL d   1      48.079  35.623  52.508  0.00  0.00    -0.008 A 
ATOM     15  C   UNL d   1      48.827  35.331  52.701  0.00  0.00    -0.017 A 
ENDBRANCH   3   6
BRANCH   1  16
ATOM     16  N   UNL d   1      51.943  33.483  53.282  0.00  0.00    -0.248 N 
ATOM     17  C   UNL d   1      52.558  33.869  53.674  0.00  0.00     0.289 C 
ATOM     18  O   UNL d   1      52.558  34.708  53.695  0.00  0.00    -0.264 OA
ATOM     19  C   UNL d   1      51.956  32.695  53.271  0.00  0.00     0.104 C 
BRANCH  17  20
ATOM     20  C   UNL d   1      53.167  33.445  54.042  0.00  0.00     0.156 A 
ATOM     21  O   UNL d   1      53.525  32.717  53.872  0.00  0.00    -0.300 OA
ATOM     22  C   UNL d   1      54.124  32.590  54.468  0.00  0.00     0.123 A 
ATOM     23  C   UNL d   1      54.128  33.204  54.968  0.00  0.00     0.029 A 
ATOM     24  C   UNL d   1      53.552  33.736  54.726  0.00  0.00     0.032 A 
ENDBRANCH  17  20
ENDBRANCH   1  16
TORSDOF 3
ENDMDL
