MODEL 1
REMARK VINA RESULT:      -7.5      0.000      0.000
REMARK  6 active torsions:
REMARK  status: ('A' for Active; 'I' for Inactive)
REMARK    1  A    between atoms: C_4  and  C_2 
REMARK       I    between atoms: N_13  and  C_4 
REMARK    2  A    between atoms: O_17  and  C_8 
REMARK    3  A    between atoms: O_18  and  C_9 
REMARK    4  A    between atoms: C_19  and  N_13 
REMARK    5  A    between atoms: C_15  and  C_20 
REMARK    6  A    between atoms: C_20  and  C_19 
ROOT
ATOM      1  C   UNL d   1     -47.974  14.368  22.738  0.00  0.00     0.102 C 
ENDROOT
BRANCH   1   2
ATOM      2  N   UNL d   1     -48.395  15.073  22.658  0.00  0.00    -0.205 NA
ATOM      3  C   UNL d   1     -49.198  15.059  22.436  0.00  0.00     0.299 C 
ATOM      4  O   UNL d   1     -49.612  15.774  22.359  0.00  0.00    -0.263 OA
BRANCH   3   5
ATOM      5  C   UNL d   1     -49.585  14.332  22.294  0.00  0.00     0.161 A 
ATOM      6  N   UNL d   1     -49.483  13.958  21.569  0.00  0.00    -0.140 NA
ATOM      7  N   UNL d   1     -49.859  13.247  21.425  0.00  0.00    -0.105 NA
ATOM      8  C   UNL d   1     -50.338  12.905  22.003  0.00  0.00     0.297 A 
ATOM      9  C   UNL d   1     -50.442  13.275  22.725  0.00  0.00     0.066 A 
ATOM     10  O   UNL d   1     -50.719  12.176  21.846  0.00  0.00    -0.264 OA
ATOM     11  C   UNL d   1     -50.064  13.990  22.872  0.00  0.00     0.031 A 
ENDBRANCH   3   5
ENDBRANCH   1   2
BRANCH   1  12
ATOM     12  C   UNL d   1     -47.175  14.386  22.951  0.00  0.00     0.021 C 
BRANCH  12  13
ATOM     13  C   UNL d   1     -46.756  13.685  23.035  0.00  0.00     0.004 A 
ATOM     14  C   UNL d   1     -46.119  13.533  22.546  0.00  0.00     0.026 A 
ATOM     15  C   UNL d   1     -45.696  12.830  22.629  0.00  0.00     0.116 A 
ATOM     16  C   UNL d   1     -45.917  12.282  23.205  0.00  0.00     0.116 A 
ATOM     17  C   UNL d   1     -46.561  12.438  23.698  0.00  0.00     0.026 A 
ATOM     18  C   UNL d   1     -46.977  13.137  23.611  0.00  0.00     0.002 A 
BRANCH  15  19
ATOM     19  O   UNL d   1     -45.043  12.674  22.128  0.00  0.00    -0.326 OA
ATOM     20  C   UNL d   1     -44.595  13.297  21.824  0.00  0.00     0.181 C 
ENDBRANCH  15  19
BRANCH  16  21
ATOM     21  O   UNL d   1     -45.489  11.569  23.290  0.00  0.00    -0.326 OA
ATOM     22  C   UNL d   1     -45.822  10.935  23.698  0.00  0.00     0.181 C 
ENDBRANCH  16  21
ENDBRANCH  12  13
ENDBRANCH   1  12
TORSDOF 6
ENDMDL
MODEL 2
REMARK VINA RESULT:      -6.9      1.700      4.574
REMARK  6 active torsions:
REMARK  status: ('A' for Active; 'I' for Inactive)
REMARK    1  A    between atoms: C_4  and  C_2 
REMARK       I    between atoms: N_13  and  C_4 
REMARK    2  A    between atoms: O_17  and  C_8 
REMARK    3  A    between atoms: O_18  and  C_9 
REMARK    4  A    between atoms: C_19  and  N_13 
REMARK    5  A    between atoms: C_15  and  C_20 
REMARK    6  A    between atoms: C_20  and  C_19 
ROOT
ATOM      1  C   UNL d   1     -47.851  12.038  23.090  0.00  0.00     0.102 C 
ENDROOT
BRANCH   1   2
ATOM      2  N   UNL d   1     -47.241  11.552  23.362  0.00  0.00    -0.205 NA
ATOM      3  C   UNL d   1     -46.460  11.842  23.402  0.00  0.00     0.299 C 
ATOM      4  O   UNL d   1     -45.855  11.346  23.676  0.00  0.00    -0.263 OA
BRANCH   3   5
ATOM      5  C   UNL d   1     -46.288  12.626  23.170  0.00  0.00     0.161 A 
ATOM      6  N   UNL d   1     -46.422  13.241  23.698  0.00  0.00    -0.140 NA
ATOM      7  N   UNL d   1     -46.255  14.010  23.475  0.00  0.00    -0.105 NA
ATOM      8  C   UNL d   1     -45.953  14.168  22.724  0.00  0.00     0.297 A 
ATOM      9  C   UNL d   1     -45.819  13.559  22.196  0.00  0.00     0.066 A 
ATOM     10  O   UNL d   1     -45.786  14.958  22.505  0.00  0.00    -0.264 OA
ATOM     11  C   UNL d   1     -45.986  12.785  22.418  0.00  0.00     0.031 A 
ENDBRANCH   3   5
ENDBRANCH   1   2
BRANCH   1  12
ATOM     12  C   UNL d   1     -48.621  11.743  23.039  0.00  0.00     0.021 C 
BRANCH  12  13
ATOM     13  C   UNL d   1     -49.229  12.225  22.769  0.00  0.00     0.004 A 
ATOM     14  C   UNL d   1     -49.523  12.814  23.253  0.00  0.00     0.026 A 
ATOM     15  C   UNL d   1     -50.134  13.299  22.983  0.00  0.00     0.116 A 
ATOM     16  C   UNL d   1     -50.446  13.188  22.228  0.00  0.00     0.116 A 
ATOM     17  C   UNL d   1     -50.147  12.591  21.742  0.00  0.00     0.026 A 
ATOM     18  C   UNL d   1     -49.541  12.113  22.013  0.00  0.00     0.002 A 
BRANCH  15  19
ATOM     19  O   UNL d   1     -50.436  13.904  23.479  0.00  0.00    -0.326 OA
ATOM     20  C   UNL d   1     -49.959  14.543  23.693  0.00  0.00     0.181 C 
ENDBRANCH  15  19
BRANCH  16  21
ATOM     21  O   UNL d   1     -51.064  13.679  21.955  0.00  0.00    -0.326 OA
ATOM     22  C   UNL d   1     -51.044  13.979  21.187  0.00  0.00     0.181 C 
ENDBRANCH  16  21
ENDBRANCH  12  13
ENDBRANCH   1  12
TORSDOF 6
ENDMDL
MODEL 3
REMARK VINA RESULT:      -6.3      1.139      2.242
REMARK  6 active torsions:
REMARK  status: ('A' for Active; 'I' for Inactive)
REMARK    1  A    between atoms: C_4  and  C_2 
REMARK       I    between atoms: N_13  and  C_4 
REMARK    2  A    between atoms: O_17  and  C_8 
REMARK    3  A    between atoms: O_18  and  C_9 
REMARK    4  A    between atoms: C_19  and  N_13 
REMARK    5  A    between atoms: C_15  and  C_20 
REMARK    6  A    between atoms: C_20  and  C_19 
ROOT
ATOM      1  C   UNL d   1     -49.082  13.003  21.908  0.00  0.00     0.102 C 
ENDROOT
BRANCH   1   2
ATOM      2  N   UNL d   1     -49.746  12.915  21.426  0.00  0.00    -0.205 NA
ATOM      3  C   UNL d   1     -50.390  13.440  21.498  0.00  0.00     0.299 C 
ATOM      4  O   UNL d   1     -51.052  13.342  21.009  0.00  0.00    -0.263 OA
BRANCH   3   5
ATOM      5  C   UNL d   1     -50.369  14.060  22.057  0.00  0.00     0.161 A 
ATOM      6  N   UNL d   1     -50.017  14.774  21.853  0.00  0.00    -0.140 NA
ATOM      7  N   UNL d   1     -49.994  15.384  22.396  0.00  0.00    -0.105 NA
ATOM      8  C   UNL d   1     -50.322  15.284  23.147  0.00  0.00     0.297 A 
ATOM      9  C   UNL d   1     -50.673  14.575  23.354  0.00  0.00     0.066 A 
ATOM     10  O   UNL d   1     -50.294  15.915  23.697  0.00  0.00    -0.264 OA
ATOM     11  C   UNL d   1     -50.697  13.961  22.808  0.00  0.00     0.031 A 
ENDBRANCH   3   5
ENDBRANCH   1   2
BRANCH   1  12
ATOM     12  C   UNL d   1     -48.502  12.416  21.923  0.00  0.00     0.021 C 
BRANCH  12  13
ATOM     13  C   UNL d   1     -47.741  12.594  22.179  0.00  0.00     0.004 A 
ATOM     14  C   UNL d   1     -47.413  12.170  22.796  0.00  0.00     0.026 A 
ATOM     15  C   UNL d   1     -46.650  12.348  23.055  0.00  0.00     0.116 A 
ATOM     16  C   UNL d   1     -46.221  12.951  22.691  0.00  0.00     0.116 A 
ATOM     17  C   UNL d   1     -46.556  13.377  22.067  0.00  0.00     0.026 A 
ATOM     18  C   UNL d   1     -47.313  13.197  21.814  0.00  0.00     0.002 A 
BRANCH  15  19
ATOM     19  O   UNL d   1     -46.314  11.914  23.688  0.00  0.00    -0.326 OA
ATOM     20  C   UNL d   1     -46.328  11.089  23.680  0.00  0.00     0.181 C 
ENDBRANCH  15  19
BRANCH  16  21
ATOM     21  O   UNL d   1     -45.449  13.131  22.953  0.00  0.00    -0.326 OA
ATOM     22  C   UNL d   1     -44.914  13.495  22.441  0.00  0.00     0.181 C 
ENDBRANCH  16  21
ENDBRANCH  12  13
ENDBRANCH   1  12
TORSDOF 6
ENDMDL
MODEL 4
REMARK VINA RESULT:      -5.5      7.500      9.754
REMARK  6 active torsions:
REMARK  status: ('A' for Active; 'I' for Inactive)
REMARK    1  A    between atoms: C_4  and  C_2 
REMARK       I    between atoms: N_13  and  C_4 
REMARK    2  A    between atoms: O_17  and  C_8 
REMARK    3  A    between atoms: O_18  and  C_9 
REMARK    4  A    between atoms: C_19  and  N_13 
REMARK    5  A    between atoms: C_15  and  C_20 
REMARK    6  A    between atoms: C_20  and  C_19 
ROOT
ATOM      1  C   UNL d   1     -40.515  14.426  19.154  0.00  0.00     0.102 C 
ENDROOT
BRANCH   1   2
ATOM      2  N   UNL d   1     -41.066  14.159  19.707  0.00  0.00    -0.205 NA
ATOM      3  C   UNL d   1     -40.945  14.297  20.520  0.00  0.00     0.299 C 
ATOM      4  O   UNL d   1     -41.505  14.024  21.068  0.00  0.00    -0.263 OA
BRANCH   3   5
ATOM      5  C   UNL d   1     -40.265  14.707  20.783  0.00  0.00     0.161 A 
ATOM      6  N   UNL d   1     -39.578  14.285  20.940  0.00  0.00    -0.140 NA
ATOM      7  N   UNL d   1     -38.910  14.681  21.197  0.00  0.00    -0.105 NA
ATOM      8  C   UNL d   1     -38.926  15.499  21.298  0.00  0.00     0.297 A 
ATOM      9  C   UNL d   1     -39.608  15.922  21.142  0.00  0.00     0.066 A 
ATOM     10  O   UNL d   1     -38.237  15.896  21.561  0.00  0.00    -0.264 OA
ATOM     11  C   UNL d   1     -40.281  15.525  20.884  0.00  0.00     0.031 A 
ENDBRANCH   3   5
ENDBRANCH   1   2
BRANCH   1  12
ATOM     12  C   UNL d   1     -40.622  14.259  18.352  0.00  0.00     0.021 C 
BRANCH  12  13
ATOM     13  C   UNL d   1     -40.049  14.478  17.805  0.00  0.00     0.004 A 
ATOM     14  C   UNL d   1     -39.472  13.942  17.587  0.00  0.00     0.026 A 
ATOM     15  C   UNL d   1     -38.896  14.160  17.039  0.00  0.00     0.116 A 
ATOM     16  C   UNL d   1     -38.904  14.918  16.712  0.00  0.00     0.116 A 
ATOM     17  C   UNL d   1     -39.488  15.457  16.934  0.00  0.00     0.026 A 
ATOM     18  C   UNL d   1     -40.057  15.236  17.479  0.00  0.00     0.002 A 
BRANCH  15  19
ATOM     19  O   UNL d   1     -38.304  13.610  16.815  0.00  0.00    -0.326 OA
ATOM     20  C   UNL d   1     -38.197  12.916  17.248  0.00  0.00     0.181 C 
ENDBRANCH  15  19
BRANCH  16  21
ATOM     21  O   UNL d   1     -38.320  15.139  16.157  0.00  0.00    -0.326 OA
ATOM     22  C   UNL d   1     -38.330  15.895  15.827  0.00  0.00     0.181 C 
ENDBRANCH  16  21
ENDBRANCH  12  13
ENDBRANCH   1  12
TORSDOF 6
ENDMDL
MODEL 5
REMARK VINA RESULT:      -4.5      7.390      9.776
REMARK  6 active torsions:
REMARK  status: ('A' for Active; 'I' for Inactive)
REMARK    1  A    between atoms: C_4  and  C_2 
REMARK       I    between atoms: N_13  and  C_4 
REMARK    2  A    between atoms: O_17  and  C_8 
REMARK    3  A    between atoms: O_18  and  C_9 
REMARK    4  A    between atoms: C_19  and  N_13 
REMARK    5  A    between atoms: C_15  and  C_20 
REMARK    6  A    between atoms: C_20  and  C_19 
ROOT
ATOM      1  C   UNL d   1     -38.769  15.630  19.702  0.00  0.00     0.102 C 
ENDROOT
BRANCH   1   2
ATOM      2  N   UNL d   1     -38.490  15.861  20.444  0.00  0.00    -0.205 NA
ATOM      3  C   UNL d   1     -38.928  15.685  21.131  0.00  0.00     0.299 C 
ATOM      4  O   UNL d   1     -38.638  15.922  21.871  0.00  0.00    -0.263 OA
BRANCH   3   5
ATOM      5  C   UNL d   1     -39.654  15.274  21.076  0.00  0.00     0.161 A 
ATOM      6  N   UNL d   1     -39.653  14.453  21.109  0.00  0.00    -0.140 NA
ATOM      7  N   UNL d   1     -40.360  14.046  21.056  0.00  0.00    -0.105 NA
ATOM      8  C   UNL d   1     -41.071  14.456  20.969  0.00  0.00     0.297 A 
ATOM      9  C   UNL d   1     -41.074  15.273  20.935  0.00  0.00     0.066 A 
ATOM     10  O   UNL d   1     -41.789  14.030  20.915  0.00  0.00    -0.264 OA
ATOM     11  C   UNL d   1     -40.364  15.684  20.989  0.00  0.00     0.031 A 
ENDBRANCH   3   5
ENDBRANCH   1   2
BRANCH   1  12
ATOM     12  C   UNL d   1     -38.406  15.915  19.017  0.00  0.00     0.021 C 
BRANCH  12  13
ATOM     13  C   UNL d   1     -38.538  15.544  18.296  0.00  0.00     0.004 A 
ATOM     14  C   UNL d   1     -39.120  15.827  17.797  0.00  0.00     0.026 A 
ATOM     15  C   UNL d   1     -39.255  15.456  17.072  0.00  0.00     0.116 A 
ATOM     16  C   UNL d   1     -38.802  14.802  16.854  0.00  0.00     0.116 A 
ATOM     17  C   UNL d   1     -38.215  14.519  17.361  0.00  0.00     0.026 A 
ATOM     18  C   UNL d   1     -38.085  14.890  18.078  0.00  0.00     0.002 A 
BRANCH  15  19
ATOM     19  O   UNL d   1     -39.852  15.746  16.560  0.00  0.00    -0.326 OA
ATOM     20  C   UNL d   1     -40.617  15.871  16.843  0.00  0.00     0.181 C 
ENDBRANCH  15  19
BRANCH  16  21
ATOM     21  O   UNL d   1     -38.939  14.426  16.120  0.00  0.00    -0.326 OA
ATOM     22  C   UNL d   1     -38.301  14.172  15.663  0.00  0.00     0.181 C 
ENDBRANCH  16  21
ENDBRANCH  12  13
ENDBRANCH   1  12
TORSDOF 6
ENDMDL
