MODEL 1
REMARK VINA RESULT:      10.1      0.000      0.000
REMARK  4 active torsions:
REMARK  status: ('A' for Active; 'I' for Inactive)
REMARK    1  A    between atoms: N_3  and  C_1 
REMARK       I    between atoms: C_7  and  N_3 
REMARK    2  A    between atoms: S_10  and  C_5 
REMARK    3  A    between atoms: C_9  and  C_7 
REMARK    4  A    between atoms: C_13  and  S_10 
ROOT
ATOM      1  N   UNL d   1      45.812 -16.879  44.893  0.00  0.00    -0.181 NA
ATOM      2  C   UNL d   1      46.080 -17.229  44.192  0.00  0.00     0.281 C 
ATOM      3  O   UNL d   1      46.159 -16.776  43.494  0.00  0.00    -0.265 OA
ENDROOT
BRANCH   1   4
ATOM      4  C   UNL d   1      45.629 -16.100  44.894  0.00  0.00     0.219 A 
ATOM      5  S   UNL d   1      46.091 -15.417  44.841  0.00  0.00    -0.019 SA
ATOM      6  C   UNL d   1      45.587 -14.763  44.872  0.00  0.00     0.165 A 
ATOM      7  N   UNL d   1      44.837 -15.029  44.942  0.00  0.00    -0.133 NA
ATOM      8  N   UNL d   1      44.866 -15.824  44.955  0.00  0.00    -0.120 NA
BRANCH   6   9
ATOM      9  S   UNL d   1      45.799 -13.947  44.837  0.00  0.00    -0.059 SA
BRANCH   9  10
ATOM     10  C   UNL d   1      45.524 -13.481  44.260  0.00  0.00     0.037 C 
ATOM     11  C   UNL d   1      45.702 -12.684  44.250  0.00  0.00     0.008 C 
ENDBRANCH   9  10
ENDBRANCH   6   9
ENDBRANCH   1   4
BRANCH   2  12
ATOM     12  C   UNL d   1      46.272 -18.060  44.203  0.00  0.00     0.058 A 
ATOM     13  C   UNL d   1      46.383 -18.475  44.906  0.00  0.00     0.005 A 
ATOM     14  C   UNL d   1      46.571 -19.294  44.879  0.00  0.00     0.000 A 
ATOM     15  C   UNL d   1      46.647 -19.691  44.164  0.00  0.00     0.000 A 
ATOM     16  C   UNL d   1      46.538 -19.286  43.460  0.00  0.00     0.000 A 
ATOM     17  C   UNL d   1      46.348 -18.461  43.477  0.00  0.00     0.005 A 
ENDBRANCH   2  12
TORSDOF 4
ENDMDL
MODEL 2
REMARK VINA RESULT:      11.9      1.626      4.337
REMARK  4 active torsions:
REMARK  status: ('A' for Active; 'I' for Inactive)
REMARK    1  A    between atoms: N_3  and  C_1 
REMARK       I    between atoms: C_7  and  N_3 
REMARK    2  A    between atoms: S_10  and  C_5 
REMARK    3  A    between atoms: C_9  and  C_7 
REMARK    4  A    between atoms: C_13  and  S_10 
ROOT
ATOM      1  N   UNL d   1      46.209 -16.386  44.037  0.00  0.00    -0.181 NA
ATOM      2  C   UNL d   1      45.631 -16.056  44.531  0.00  0.00     0.281 C 
ATOM      3  O   UNL d   1      45.104 -16.546  44.955  0.00  0.00    -0.265 OA
ENDROOT
BRANCH   1   4
ATOM      4  C   UNL d   1      46.255 -17.182  43.971  0.00  0.00     0.219 A 
ATOM      5  S   UNL d   1      46.198 -17.695  43.324  0.00  0.00    -0.019 SA
ATOM      6  C   UNL d   1      46.291 -18.468  43.600  0.00  0.00     0.165 A 
ATOM      7  N   UNL d   1      46.402 -18.439  44.390  0.00  0.00    -0.133 NA
ATOM      8  N   UNL d   1      46.380 -17.674  44.607  0.00  0.00    -0.120 NA
BRANCH   6   9
ATOM      9  S   UNL d   1      46.276 -19.180  43.149  0.00  0.00    -0.059 SA
BRANCH   9  10
ATOM     10  C   UNL d   1      46.647 -19.226  42.451  0.00  0.00     0.037 C 
ATOM     11  C   UNL d   1      46.636 -19.920  42.020  0.00  0.00     0.008 C 
ENDBRANCH   9  10
ENDBRANCH   6   9
ENDBRANCH   1   4
BRANCH   2  12
ATOM     12  C   UNL d   1      45.593 -15.207  44.593  0.00  0.00     0.058 A 
ATOM     13  C   UNL d   1      46.259 -14.730  44.511  0.00  0.00     0.005 A 
ATOM     14  C   UNL d   1      46.182 -13.895  44.579  0.00  0.00     0.000 A 
ATOM     15  C   UNL d   1      45.455 -13.544  44.725  0.00  0.00     0.000 A 
ATOM     16  C   UNL d   1      44.786 -14.010  44.807  0.00  0.00     0.000 A 
ATOM     17  C   UNL d   1      44.853 -14.852  44.741  0.00  0.00     0.005 A 
ENDBRANCH   2  12
TORSDOF 4
ENDMDL
