MODEL 1
REMARK VINA RESULT:      -4.0      0.000      0.000
REMARK  4 active torsions:
REMARK  status: ('A' for Active; 'I' for Inactive)
REMARK    1  A    between atoms: N_2  and  S_1 
REMARK    2  A    between atoms: C_6  and  S_1 
REMARK    3  A    between atoms: C_3  and  C_11 
REMARK       I    between atoms: N_4  and  C_3 
REMARK    4  A    between atoms: C_17  and  N_5 
ROOT
ATOM      1  C   UNL d   1      57.142   0.272  31.911  0.00  0.00     0.104 A 
ATOM      2  C   UNL d   1      57.936   0.105  30.444  0.00  0.00     0.057 A 
ATOM      3  C   UNL d   1      57.896   0.638  31.783  0.00  0.00     0.013 A 
ATOM      4  C   UNL d   1      56.829  -0.157  31.295  0.00  0.00     0.013 A 
ATOM      5  C   UNL d   1      58.288   0.560  31.069  0.00  0.00     0.005 A 
ATOM      6  C   UNL d   1      57.225  -0.235  30.576  0.00  0.00     0.005 A 
ENDROOT
BRANCH   2   7
ATOM      7  C   UNL d   1      58.327   0.038  29.759  0.00  0.00     0.265 C 
ATOM      8  N   UNL d   1      58.637  -0.687  29.581  0.00  0.00    -0.269 N 
ATOM      9  C   UNL d   1      59.039  -0.758  28.877  0.00  0.00     0.102 A 
ATOM     10  C   UNL d   1      58.565  -1.348  30.076  0.00  0.00     0.102 A 
ATOM     11  C   UNL d   1      59.376  -1.480  28.649  0.00  0.00     0.100 A 
ATOM     12  N   UNL d   1      59.298  -2.120  29.144  0.00  0.00    -0.301 N 
ATOM     13  C   UNL d   1      58.904  -2.077  29.847  0.00  0.00     0.100 A 
ATOM     14  O   UNL d   1      58.415   0.681  29.245  0.00  0.00    -0.267 OA
BRANCH  12  15
ATOM     15  C   UNL d   1      59.632  -2.836  28.915  0.00  0.00     0.064 A 
ATOM     16  C   UNL d   1      59.195  -3.527  28.847  0.00  0.00     0.018 A 
ATOM     17  C   UNL d   1      59.521  -4.223  28.625  0.00  0.00     0.002 A 
ATOM     18  C   UNL d   1      60.347  -4.243  28.455  0.00  0.00     0.000 A 
ATOM     19  C   UNL d   1      60.763  -3.572  28.524  0.00  0.00     0.002 A 
ATOM     20  C   UNL d   1      60.428  -2.857  28.752  0.00  0.00     0.018 A 
ENDBRANCH  12  15
ENDBRANCH   2   7
BRANCH   1  21
ATOM     21  S   UNL d   1      56.759   0.352  32.614  0.00  0.00     0.271 S 
ATOM     22  O   UNL d   1      56.125   0.682  32.240  0.00  0.00    -0.200 OA
ATOM     23  O   UNL d   1      57.428   0.002  33.017  0.00  0.00    -0.200 OA
BRANCH  21  24
ATOM     24  N   UNL d   1      56.362   0.434  33.342  0.00  0.00    -0.229 N 
ATOM     25  C   UNL d   1      56.800   0.514  34.011  0.00  0.00     0.092 A 
ATOM     26  C   UNL d   1      56.417   0.597  34.742  0.00  0.00     0.018 A 
ATOM     27  C   UNL d   1      56.822   0.682  35.461  0.00  0.00     0.002 C 
ATOM     28  C   UNL d   1      55.581   0.596  34.773  0.00  0.00     0.003 A 
ATOM     29  C   UNL d   1      55.128   0.513  34.073  0.00  0.00     0.018 A 
ATOM     30  C   UNL d   1      55.519   0.434  33.372  0.00  0.00     0.092 A 
ATOM     31  C   UNL d   1      54.296   0.511  34.083  0.00  0.00     0.002 C 
ENDBRANCH  21  24
ENDBRANCH   1  21
TORSDOF 4
ENDMDL
