MODEL 1
REMARK VINA RESULT:      30.2      0.000      0.000
REMARK  1 active torsions:
REMARK  status: ('A' for Active; 'I' for Inactive)
REMARK    1  A    between atoms: C_11  and  C_9 
ROOT
ATOM      1  N   UNL d   1      59.956  49.668  50.980  0.00  0.00    -0.253 N 
ATOM      2  C   UNL d   1      59.261  49.670  51.416  0.00  0.00     0.182 A 
ATOM      3  C   UNL d   1      59.906  49.656  50.138  0.00  0.00     0.267 A 
ATOM      4  N   UNL d   1      59.452  49.682  52.199  0.00  0.00    -0.221 NA
ATOM      5  S   UNL d   1      58.526  49.661  51.057  0.00  0.00    -0.050 SA
ATOM      6  C   UNL d   1      59.184  49.647  49.761  0.00  0.00     0.068 A 
ATOM      7  C   UNL d   1      60.572  49.678  51.506  0.00  0.00     0.086 A 
ATOM      8  C   UNL d   1      60.283  49.687  52.274  0.00  0.00     0.100 A 
ATOM      9  C   UNL d   1      58.472  49.650  50.236  0.00  0.00     0.037 A 
ATOM     10  O   UNL d   1      60.615  49.653  49.662  0.00  0.00    -0.267 OA
ATOM     11  C   UNL d   1      61.410  49.681  51.379  0.00  0.00     0.019 A 
ATOM     12  C   UNL d   1      60.784  49.698  52.912  0.00  0.00     0.021 A 
ATOM     13  C   UNL d   1      61.904  49.692  52.031  0.00  0.00     0.002 A 
ATOM     14  C   UNL d   1      61.612  49.701  52.781  0.00  0.00     0.002 A 
ENDROOT
BRANCH   9  15
ATOM     15  C   UNL d   1      57.681  49.642  49.953  0.00  0.00     0.006 A 
ATOM     16  C   UNL d   1      57.051  49.572  50.481  0.00  0.00     0.001 A 
ATOM     17  C   UNL d   1      56.258  49.563  50.202  0.00  0.00     0.000 A 
ATOM     18  C   UNL d   1      56.115  49.626  49.398  0.00  0.00     0.000 A 
ATOM     19  C   UNL d   1      56.752  49.698  48.853  0.00  0.00     0.000 A 
ATOM     20  C   UNL d   1      57.530  49.706  49.129  0.00  0.00     0.001 A 
ENDBRANCH   9  15
TORSDOF 1
ENDMDL
