MODEL 1
REMARK VINA RESULT:      -3.8      0.000      0.000
REMARK  4 active torsions:
REMARK  status: ('A' for Active; 'I' for Inactive)
REMARK    1  A    between atoms: C_6  and  S_1 
REMARK    2  A    between atoms: N_8  and  S_1 
REMARK    3  A    between atoms: C_17  and  N_8 
REMARK    4  A    between atoms: N_16  and  C_15 
ROOT
ATOM      1  N   UNL d   1     -42.515-123.501 -48.669  0.00  0.00    -0.273 N 
ATOM      2  C   UNL d   1     -41.903-123.451 -48.096  0.00  0.00     0.265 A 
ATOM      3  C   UNL d   1     -42.237-123.150 -49.363  0.00  0.00     0.067 A 
ATOM      4  C   UNL d   1     -41.482-122.838 -49.386  0.00  0.00     0.022 A 
ATOM      5  C   UNL d   1     -41.689-122.454 -50.746  0.00  0.00     0.105 A 
ATOM      6  C   UNL d   1     -42.722-123.117 -50.030  0.00  0.00     0.017 A 
ATOM      7  C   UNL d   1     -41.124-122.951 -48.636  0.00  0.00     0.063 A 
ATOM      8  C   UNL d   1     -41.204-122.488 -50.079  0.00  0.00     0.015 A 
ATOM      9  C   UNL d   1     -42.451-122.770 -50.720  0.00  0.00     0.014 A 
ATOM     10  O   UNL d   1     -42.025-123.760 -47.338  0.00  0.00    -0.267 OA
ATOM     11  C   UNL d   1     -43.277-123.817 -48.642  0.00  0.00     0.083 A 
ATOM     12  C   UNL d   1     -43.475-123.434 -49.992  0.00  0.00     0.003 A 
ATOM     13  C   UNL d   1     -43.761-123.783 -49.309  0.00  0.00     0.019 A 
ENDROOT
BRANCH   5  14
ATOM     14  S   UNL d   1     -41.405-122.099 -51.445  0.00  0.00     0.285 S 
ATOM     15  O   UNL d   1     -41.635-121.364 -51.148  0.00  0.00    -0.198 OA
ATOM     16  O   UNL d   1     -41.178-122.848 -51.732  0.00  0.00    -0.198 OA
BRANCH  14  17
ATOM     17  N   UNL d   1     -41.125-121.749 -52.135  0.00  0.00    -0.158 NA
BRANCH  17  18
ATOM     18  C   UNL d   1     -41.432-121.980 -52.865  0.00  0.00     0.094 A 
ATOM     19  C   UNL d   1     -41.126-122.635 -53.253  0.00  0.00     0.021 A 
ATOM     20  C   UNL d   1     -41.434-122.866 -53.983  0.00  0.00     0.019 A 
ATOM     21  C   UNL d   1     -42.048-122.442 -54.325  0.00  0.00     0.064 A 
ATOM     22  C   UNL d   1     -42.357-121.782 -53.936  0.00  0.00     0.019 A 
ATOM     23  C   UNL d   1     -42.050-121.551 -53.206  0.00  0.00     0.021 A 
BRANCH  21  24
ATOM     24  N   UNL d   1     -42.356-122.673 -55.055  0.00  0.00    -0.301 N 
ATOM     25  C   UNL d   1     -42.574-122.102 -55.609  0.00  0.00     0.100 C 
ATOM     26  C   UNL d   1     -42.445-123.474 -55.229  0.00  0.00     0.100 C 
ENDBRANCH  21  24
ENDBRANCH  17  18
ENDBRANCH  14  17
ENDBRANCH   5  14
TORSDOF 4
ENDMDL
