MODEL 1
REMARK VINA RESULT:      75.4      0.000      0.000
REMARK  6 active torsions:
REMARK  status: ('A' for Active; 'I' for Inactive)
REMARK    1  A    between atoms: C_2  and  C_1 
REMARK       I    between atoms: N_5  and  C_2 
REMARK    2  A    between atoms: C_13  and  N_5 
REMARK    3  A    between atoms: C_14  and  C_6 
REMARK       I    between atoms: C_8  and  N_9 
REMARK    4  A    between atoms: N_9  and  C_15 
REMARK    5  A    between atoms: S_11  and  C_14 
REMARK    6  A    between atoms: C_16  and  S_11 
ROOT
ATOM      1  C   UNL d   1      60.899  49.201  50.435  0.00  0.00     0.158 A 
ATOM      2  O   UNL d   1      60.146  49.212  50.102  0.00  0.00    -0.302 OA
ATOM      3  C   UNL d   1      60.813  49.350  51.246  0.00  0.00     0.032 A 
ATOM      4  C   UNL d   1      59.601  49.364  50.692  0.00  0.00     0.107 A 
ATOM      5  C   UNL d   1      60.010  49.451  51.404  0.00  0.00     0.027 A 
ENDROOT
BRANCH   1   6
ATOM      6  C   UNL d   1      61.613  49.068  50.042  0.00  0.00     0.302 C 
ATOM      7  N   UNL d   1      61.920  48.306  49.982  0.00  0.00    -0.206 NA
ATOM      8  O   UNL d   1      62.016  49.703  49.712  0.00  0.00    -0.263 OA
BRANCH   7   9
ATOM      9  C   UNL d   1      61.502  47.672  50.321  0.00  0.00     0.085 A 
ATOM     10  C   UNL d   1      60.896  47.299  49.901  0.00  0.00     0.021 A 
ATOM     11  C   UNL d   1      60.490  46.671  50.250  0.00  0.00     0.021 A 
ATOM     12  C   UNL d   1      60.688  46.420  51.009  0.00  0.00     0.085 A 
ATOM     13  C   UNL d   1      61.297  46.798  51.424  0.00  0.00     0.021 A 
ATOM     14  C   UNL d   1      61.706  47.425  51.083  0.00  0.00     0.021 A 
BRANCH  12  15
ATOM     15  N   UNL d   1      60.278  45.788  51.357  0.00  0.00    -0.208 NA
ATOM     16  C   UNL d   1      60.631  45.042  51.389  0.00  0.00     0.279 C 
ATOM     17  O   UNL d   1      61.382  44.921  51.081  0.00  0.00    -0.265 OA
ATOM     18  C   UNL d   1      60.223  44.418  51.734  0.00  0.00     0.068 C 
ENDBRANCH  12  15
ENDBRANCH   7   9
ENDBRANCH   1   6
BRANCH   4  19
ATOM     19  C   UNL d   1      58.783  49.423  50.602  0.00  0.00     0.060 C 
BRANCH  19  20
ATOM     20  S   UNL d   1      58.467  49.697  49.893  0.00  0.00    -0.084 SA
BRANCH  20  21
ATOM     21  C   UNL d   1      57.657  49.677  49.761  0.00  0.00     0.029 A 
ATOM     22  C   UNL d   1      57.376  49.679  48.985  0.00  0.00     0.006 A 
ATOM     23  C   UNL d   1      56.567  49.659  48.853  0.00  0.00     0.001 A 
ATOM     24  C   UNL d   1      56.040  49.637  49.485  0.00  0.00     0.000 A 
ATOM     25  C   UNL d   1      56.324  49.635  50.262  0.00  0.00     0.001 A 
ATOM     26  C   UNL d   1      57.134  49.655  50.394  0.00  0.00     0.006 A 
ENDBRANCH  20  21
ENDBRANCH  19  20
ENDBRANCH   4  19
TORSDOF 6
ENDMDL
