MODEL 1
REMARK VINA RESULT:      29.7      0.000      0.000
REMARK  2 active torsions:
REMARK  status: ('A' for Active; 'I' for Inactive)
REMARK    1  A    between atoms: C_10  and  N_1 
REMARK    2  A    between atoms: C_11  and  C_10 
ROOT
ATOM      1  N   UNL d   1      15.006  14.659  -1.307  0.00  0.00    -0.187 N 
ATOM      2  N   UNL d   1      14.577  14.421  -2.106  0.00  0.00    -0.162 NA
ATOM      3  C   UNL d   1      14.276  13.609  -2.273  0.00  0.00     0.102 A 
ATOM      4  C   UNL d   1      14.442  13.139  -1.618  0.00  0.00     0.024 A 
ATOM      5  C   UNL d   1      15.095  14.061  -0.744  0.00  0.00     0.281 A 
ATOM      6  C   UNL d   1      14.813  13.301  -0.899  0.00  0.00     0.059 A 
ATOM      7  C   UNL d   1      14.158  12.373  -1.775  0.00  0.00     0.002 A 
ATOM      8  C   UNL d   1      13.893  13.138  -2.828  0.00  0.00     0.019 A 
ATOM      9  C   UNL d   1      13.819  12.377  -2.525  0.00  0.00     0.002 A 
ATOM     10  O   UNL d   1      15.474  14.233  -0.014  0.00  0.00    -0.265 OA
ATOM     11  C   UNL d   1      14.905  12.704  -0.331  0.00  0.00     0.005 A 
ATOM     12  C   UNL d   1      14.249  11.779  -1.211  0.00  0.00     0.000 A 
ATOM     13  C   UNL d   1      13.599  13.305  -3.580  0.00  0.00     0.002 A 
ATOM     14  C   UNL d   1      13.454  11.781  -2.965  0.00  0.00     0.000 A 
ATOM     15  C   UNL d   1      14.621  11.938  -0.488  0.00  0.00     0.000 A 
ATOM     16  C   UNL d   1      13.162  11.955  -3.716  0.00  0.00     0.000 A 
ATOM     17  C   UNL d   1      13.231  12.712  -4.028  0.00  0.00     0.000 A 
ENDROOT
BRANCH   1  18
ATOM     18  C   UNL d   1      15.346  15.344  -0.977  0.00  0.00     0.174 C 
BRANCH  18  19
ATOM     19  C   UNL d   1      15.127  16.097  -1.251  0.00  0.00     0.231 C 
ATOM     20  O   UNL d   1      15.407  16.762  -0.871  0.00  0.00    -0.643 OA
ATOM     21  O   UNL d   1      14.703  16.507  -1.802  0.00  0.00    -0.643 OA
ENDBRANCH  18  19
ENDBRANCH   1  18
TORSDOF 2
ENDMDL
