MODEL 1
REMARK VINA RESULT:      66.7      0.000      0.000
REMARK  8 active torsions:
REMARK  status: ('A' for Active; 'I' for Inactive)
REMARK    1  A    between atoms: C_14  and  N_1 
REMARK    2  A    between atoms: S_10  and  C_2 
REMARK    3  A    between atoms: C_7  and  C_9 
REMARK       I    between atoms: N_8  and  C_7 
REMARK    4  A    between atoms: C_26  and  S_10 
REMARK    5  A    between atoms: C_13  and  C_18 
REMARK    6  A    between atoms: C_16  and  C_26 
REMARK    7  A    between atoms: O_28  and  C_16 
REMARK    8  A    between atoms: C_31  and  O_28 
ROOT
ATOM      1  N   UNL d   1      46.065 -18.582  42.090  0.00  0.00    -0.254 N 
ATOM      2  C   UNL d   1      46.089 -17.785  42.255  0.00  0.00     0.182 A 
ATOM      3  C   UNL d   1      46.019 -18.839  41.303  0.00  0.00     0.268 A 
ATOM      4  N   UNL d   1      46.067 -17.235  41.649  0.00  0.00    -0.222 NA
ATOM      5  C   UNL d   1      45.997 -18.295  40.693  0.00  0.00     0.074 A 
ATOM      6  C   UNL d   1      46.021 -17.481  40.859  0.00  0.00     0.088 A 
ATOM      7  C   UNL d   1      45.953 -17.180  39.455  0.00  0.00     0.058 A 
ATOM      8  C   UNL d   1      45.999 -16.922  40.244  0.00  0.00     0.024 A 
ATOM      9  C   UNL d   1      45.951 -18.542  39.900  0.00  0.00     0.006 A 
ATOM     10  O   UNL d   1      45.995 -19.653  41.137  0.00  0.00    -0.267 OA
ATOM     11  C   UNL d   1      45.929 -17.991  39.297  0.00  0.00     0.005 A 
ENDROOT
BRANCH   7  12
ATOM     12  C   UNL d   1      45.931 -16.622  38.849  0.00  0.00     0.265 C 
ATOM     13  N   UNL d   1      45.254 -16.476  38.437  0.00  0.00    -0.272 N 
ATOM     14  C   UNL d   1      44.561 -16.907  38.638  0.00  0.00     0.083 A 
ATOM     15  C   UNL d   1      45.229 -15.927  37.839  0.00  0.00     0.083 A 
ATOM     16  C   UNL d   1      43.871 -16.754  38.213  0.00  0.00     0.024 A 
ATOM     17  C   UNL d   1      43.845 -16.198  37.608  0.00  0.00     0.062 A 
ATOM     18  C   UNL d   1      44.544 -15.773  37.416  0.00  0.00     0.024 A 
ATOM     19  O   UNL d   1      46.646 -16.202  38.668  0.00  0.00    -0.267 OA
BRANCH  17  20
ATOM     20  C   UNL d   1      43.149 -16.055  37.192  0.00  0.00     0.297 C 
ATOM     21  O   UNL d   1      42.498 -15.718  37.579  0.00  0.00    -0.264 OA
ATOM     22  N   UNL d   1      43.094 -16.246  36.384  0.00  0.00    -0.102 N 
ENDBRANCH  17  20
ENDBRANCH   7  12
BRANCH   2  23
ATOM     23  S   UNL d   1      46.135 -17.525  43.050  0.00  0.00    -0.044 SA
BRANCH  23  24
ATOM     24  C   UNL d   1      46.311 -16.743  43.208  0.00  0.00     0.107 C 
BRANCH  24  25
ATOM     25  C   UNL d   1      45.908 -16.360  43.830  0.00  0.00     0.307 C 
ATOM     26  O   UNL d   1      45.722 -16.766  44.522  0.00  0.00    -0.258 OA
BRANCH  25  27
ATOM     27  O   UNL d   1      45.699 -15.562  43.739  0.00  0.00    -0.271 OA
BRANCH  27  28
ATOM     28  C   UNL d   1      45.458 -15.138  44.409  0.00  0.00     0.126 C 
ATOM     29  C   UNL d   1      45.596 -14.345  44.424  0.00  0.00     0.029 C 
ENDBRANCH  27  28
ENDBRANCH  25  27
ENDBRANCH  24  25
ENDBRANCH  23  24
ENDBRANCH   2  23
BRANCH   1  30
ATOM     30  C   UNL d   1      46.087 -19.131  42.696  0.00  0.00     0.069 A 
ATOM     31  C   UNL d   1      46.624 -19.053  43.303  0.00  0.00     0.018 A 
ATOM     32  C   UNL d   1      46.647 -19.605  43.913  0.00  0.00     0.002 A 
ATOM     33  C   UNL d   1      46.114 -20.250  43.907  0.00  0.00     0.000 A 
ATOM     34  C   UNL d   1      45.576 -20.323  43.292  0.00  0.00     0.002 A 
ATOM     35  C   UNL d   1      45.548 -19.772  42.676  0.00  0.00     0.018 A 
ENDBRANCH   1  30
TORSDOF 8
ENDMDL
MODEL 2
REMARK VINA RESULT:      68.8      1.834      5.932
REMARK  8 active torsions:
REMARK  status: ('A' for Active; 'I' for Inactive)
REMARK    1  A    between atoms: C_14  and  N_1 
REMARK    2  A    between atoms: S_10  and  C_2 
REMARK    3  A    between atoms: C_7  and  C_9 
REMARK       I    between atoms: N_8  and  C_7 
REMARK    4  A    between atoms: C_26  and  S_10 
REMARK    5  A    between atoms: C_13  and  C_18 
REMARK    6  A    between atoms: C_16  and  C_26 
REMARK    7  A    between atoms: O_28  and  C_16 
REMARK    8  A    between atoms: C_31  and  O_28 
ROOT
ATOM      1  N   UNL d   1      43.939 -16.343  38.079  0.00  0.00    -0.254 N 
ATOM      2  C   UNL d   1      44.719 -16.318  37.846  0.00  0.00     0.182 A 
ATOM      3  C   UNL d   1      43.719 -16.793  38.740  0.00  0.00     0.268 A 
ATOM      4  N   UNL d   1      45.288 -16.736  38.261  0.00  0.00    -0.222 NA
ATOM      5  C   UNL d   1      44.282 -17.212  39.157  0.00  0.00     0.074 A 
ATOM      6  C   UNL d   1      45.080 -17.190  38.922  0.00  0.00     0.088 A 
ATOM      7  C   UNL d   1      45.437 -18.065  40.005  0.00  0.00     0.058 A 
ATOM      8  C   UNL d   1      45.658 -17.613  39.342  0.00  0.00     0.024 A 
ATOM      9  C   UNL d   1      44.073 -17.667  39.822  0.00  0.00     0.006 A 
ATOM     10  O   UNL d   1      42.923 -16.816  38.975  0.00  0.00    -0.267 OA
ATOM     11  C   UNL d   1      44.643 -18.084  40.234  0.00  0.00     0.005 A 
ENDROOT
BRANCH   7  12
ATOM     12  C   UNL d   1      46.014 -18.484  40.418  0.00  0.00     0.265 C 
ATOM     13  N   UNL d   1      46.041 -18.477  41.224  0.00  0.00    -0.272 N 
ATOM     14  C   UNL d   1      45.463 -18.032  41.641  0.00  0.00     0.083 A 
ATOM     15  C   UNL d   1      46.608 -18.889  41.634  0.00  0.00     0.083 A 
ATOM     16  C   UNL d   1      45.495 -18.029  42.465  0.00  0.00     0.024 A 
ATOM     17  C   UNL d   1      46.069 -18.445  42.881  0.00  0.00     0.062 A 
ATOM     18  C   UNL d   1      46.642 -18.888  42.454  0.00  0.00     0.024 A 
ATOM     19  O   UNL d   1      46.584 -18.925  39.970  0.00  0.00    -0.267 OA
BRANCH  17  20
ATOM     20  C   UNL d   1      46.090 -18.434  43.704  0.00  0.00     0.297 C 
ATOM     21  O   UNL d   1      46.119 -17.710  44.107  0.00  0.00    -0.264 OA
ATOM     22  N   UNL d   1      46.081 -19.144  44.136  0.00  0.00    -0.102 N 
ENDBRANCH  17  20
ENDBRANCH   7  12
BRANCH   2  23
ATOM     23  S   UNL d   1      44.941 -15.864  37.179  0.00  0.00    -0.044 SA
BRANCH  23  24
ATOM     24  C   UNL d   1      45.729 -15.680  37.061  0.00  0.00     0.107 C 
BRANCH  24  25
ATOM     25  C   UNL d   1      45.929 -14.904  36.832  0.00  0.00     0.307 C 
ATOM     26  O   UNL d   1      45.435 -14.472  36.335  0.00  0.00    -0.258 OA
BRANCH  25  27
ATOM     27  O   UNL d   1      46.636 -14.574  37.114  0.00  0.00    -0.271 OA
BRANCH  27  28
ATOM     28  C   UNL d   1      46.604 -13.839  37.498  0.00  0.00     0.126 C 
ATOM     29  C   UNL d   1      46.644 -13.175  37.045  0.00  0.00     0.029 C 
ENDBRANCH  27  28
ENDBRANCH  25  27
ENDBRANCH  24  25
ENDBRANCH  23  24
ENDBRANCH   2  23
BRANCH   1  30
ATOM     30  C   UNL d   1      43.370 -15.925  37.665  0.00  0.00     0.069 A 
ATOM     31  C   UNL d   1      42.977 -15.305  38.017  0.00  0.00     0.018 A 
ATOM     32  C   UNL d   1      42.405 -14.884  37.602  0.00  0.00     0.002 A 
ATOM     33  C   UNL d   1      42.227 -15.096  36.812  0.00  0.00     0.000 A 
ATOM     34  C   UNL d   1      42.627 -15.722  36.464  0.00  0.00     0.002 A 
ATOM     35  C   UNL d   1      43.203 -16.149  36.876  0.00  0.00     0.018 A 
ENDBRANCH   1  30
TORSDOF 8
ENDMDL
