MODEL 1
REMARK VINA RESULT:      11.7      0.000      0.000
REMARK  8 active torsions:
REMARK  status: ('A' for Active; 'I' for Inactive)
REMARK    1  A    between atoms: N_9  and  C_1 
REMARK    2  A    between atoms: C_4  and  S_15 
REMARK    3  A    between atoms: C_18  and  C_8 
REMARK       I    between atoms: C_13  and  N_9 
REMARK       I    between atoms: C_10  and  N_14 
REMARK    4  A    between atoms: C_16  and  C_10 
REMARK    5  A    between atoms: C_22  and  C_13 
REMARK    6  A    between atoms: N_14  and  C_18 
REMARK    7  A    between atoms: S_15  and  C_22 
REMARK    8  A    between atoms: O_26  and  C_23 
ROOT
ATOM      1  O   UNL d   1     -41.512-122.783 -52.962  0.00  0.00    -0.262 OA
ATOM      2  C   UNL d   1     -41.537-122.869 -52.134  0.00  0.00     0.236 A 
ATOM      3  N   UNL d   1     -42.022-123.507 -51.963  0.00  0.00    -0.114 NA
ATOM      4  N   UNL d   1     -42.298-123.817 -52.676  0.00  0.00    -0.119 NA
ATOM      5  C   UNL d   1     -41.984-123.372 -53.289  0.00  0.00     0.224 A 
ENDROOT
BRANCH   2   6
ATOM      6  S   UNL d   1     -41.140-122.392 -51.588  0.00  0.00    -0.036 SA
BRANCH   6   7
ATOM      7  C   UNL d   1     -41.558-121.985 -51.016  0.00  0.00     0.101 C 
BRANCH   7   8
ATOM      8  C   UNL d   1     -41.695-122.334 -50.264  0.00  0.00     0.288 C 
ATOM      9  N   UNL d   1     -42.409-122.194 -49.870  0.00  0.00    -0.182 NA
ATOM     10  O   UNL d   1     -41.123-122.812 -49.923  0.00  0.00    -0.265 OA
BRANCH   9  11
ATOM     11  C   UNL d   1     -42.554-122.535 -49.126  0.00  0.00     0.197 A 
ATOM     12  N   UNL d   1     -42.012-122.998 -48.697  0.00  0.00    -0.221 NA
ATOM     13  C   UNL d   1     -42.378-123.224 -47.991  0.00  0.00     0.090 A 
ATOM     14  C   UNL d   1     -42.121-123.676 -47.358  0.00  0.00     0.020 A 
ATOM     15  C   UNL d   1     -43.149-122.899 -47.985  0.00  0.00     0.050 A 
ATOM     16  C   UNL d   1     -42.617-123.817 -46.708  0.00  0.00     0.002 A 
ATOM     17  C   UNL d   1     -43.383-123.492 -46.707  0.00  0.00     0.001 A 
ATOM     18  C   UNL d   1     -43.640-123.040 -47.339  0.00  0.00     0.008 A 
ATOM     19  S   UNL d   1     -43.257-122.473 -48.688  0.00  0.00    -0.047 SA
ENDBRANCH   9  11
ENDBRANCH   7   8
ENDBRANCH   6   7
ENDBRANCH   2   6
BRANCH   5  20
ATOM     20  C   UNL d   1     -42.119-123.494 -54.096  0.00  0.00     0.149 C 
BRANCH  20  21
ATOM     21  N   UNL d   1     -41.913-122.917 -54.645  0.00  0.00    -0.203 NA
ATOM     22  C   UNL d   1     -42.500-122.561 -55.111  0.00  0.00     0.279 C 
ATOM     23  O   UNL d   1     -43.289-122.781 -55.028  0.00  0.00    -0.265 OA
BRANCH  22  24
ATOM     24  C   UNL d   1     -42.286-121.981 -55.662  0.00  0.00     0.058 A 
ATOM     25  C   UNL d   1     -42.751-121.854 -56.334  0.00  0.00     0.007 A 
ATOM     26  C   UNL d   1     -42.532-121.276 -56.878  0.00  0.00     0.024 A 
ATOM     27  C   UNL d   1     -41.852-120.833 -56.743  0.00  0.00     0.094 A 
ATOM     28  C   UNL d   1     -41.397-120.957 -56.084  0.00  0.00     0.024 A 
ATOM     29  C   UNL d   1     -41.615-121.536 -55.540  0.00  0.00     0.007 A 
BRANCH  27  30
ATOM     30  O   UNL d   1     -41.632-120.251 -57.290  0.00  0.00    -0.328 OA
ATOM     31  C   UNL d   1     -41.567-120.433 -58.102  0.00  0.00     0.181 C 
ENDBRANCH  27  30
ENDBRANCH  22  24
ENDBRANCH  20  21
ENDBRANCH   5  20
TORSDOF 8
ENDMDL
