MODEL 1
REMARK VINA RESULT:      -5.0      0.000      0.000
REMARK  8 active torsions:
REMARK  status: ('A' for Active; 'I' for Inactive)
REMARK    1  A    between atoms: O_10  and  C_1 
REMARK    2  A    between atoms: C_12  and  C_4 
REMARK    3  A    between atoms: N_7  and  C_12 
REMARK    4  A    between atoms: C_15  and  N_8 
REMARK    5  A    between atoms: C_9  and  C_16 
REMARK       I    between atoms: N_11  and  C_9 
REMARK    6  A    between atoms: C_16  and  O_10 
REMARK    7  A    between atoms: C_22  and  N_11 
REMARK    8  A    between atoms: C_21  and  C_15 
ROOT
ATOM      1  C   UNL d   1     -43.947  12.455  21.941  0.00  0.00     0.164 A 
ATOM      2  C   UNL d   1     -44.723  11.930  22.944  0.00  0.00     0.070 A 
ATOM      3  C   UNL d   1     -44.077  11.872  22.470  0.00  0.00     0.222 A 
ATOM      4  C   UNL d   1     -45.220  12.554  22.887  0.00  0.00     0.121 A 
ATOM      5  C   UNL d   1     -44.444  13.080  21.884  0.00  0.00     0.150 A 
ATOM      6  O   UNL d   1     -45.076  13.127  22.354  0.00  0.00    -0.301 OA
ATOM      7  O   UNL d   1     -43.585  11.255  22.526  0.00  0.00    -0.284 OA
ENDROOT
BRANCH   4   8
ATOM      8  C   UNL d   1     -45.859  12.601  23.363  0.00  0.00     0.105 C 
BRANCH   8   9
ATOM      9  N   UNL d   1     -46.617  12.587  23.040  0.00  0.00    -0.298 N 
ATOM     10  C   UNL d   1     -46.972  13.285  22.760  0.00  0.00     0.100 A 
ATOM     11  C   UNL d   1     -47.737  13.266  22.434  0.00  0.00     0.100 A 
ATOM     12  N   UNL d   1     -48.151  12.554  22.386  0.00  0.00    -0.300 N 
ATOM     13  C   UNL d   1     -47.800  11.848  22.665  0.00  0.00     0.100 A 
ATOM     14  C   UNL d   1     -47.038  11.870  22.988  0.00  0.00     0.100 A 
BRANCH  12  15
ATOM     15  C   UNL d   1     -48.889  12.317  22.111  0.00  0.00     0.080 C 
BRANCH  15  16
ATOM     16  C   UNL d   1     -49.619  12.700  21.985  0.00  0.00     0.018 A 
ATOM     17  C   UNL d   1     -50.225  12.640  22.548  0.00  0.00     0.002 A 
ATOM     18  C   UNL d   1     -50.944  13.022  22.416  0.00  0.00     0.000 A 
ATOM     19  C   UNL d   1     -51.064  13.462  21.730  0.00  0.00     0.000 A 
ATOM     20  C   UNL d   1     -50.451  13.522  21.162  0.00  0.00     0.000 A 
ATOM     21  C   UNL d   1     -49.731  13.138  21.297  0.00  0.00     0.002 A 
ENDBRANCH  15  16
ENDBRANCH  12  15
ENDBRANCH   8   9
ENDBRANCH   4   8
BRANCH   1  22
ATOM     22  O   UNL d   1     -43.495  12.761  21.357  0.00  0.00    -0.295 OA
BRANCH  22  23
ATOM     23  C   UNL d   1     -42.687  12.909  21.485  0.00  0.00     0.185 C 
BRANCH  23  24
ATOM     24  C   UNL d   1     -42.251  13.279  20.894  0.00  0.00     0.304 C 
ATOM     25  N   UNL d   1     -41.662  13.823  20.673  0.00  0.00    -0.206 NA
ATOM     26  O   UNL d   1     -42.370  13.104  20.098  0.00  0.00    -0.263 OA
BRANCH  25  27
ATOM     27  C   UNL d   1     -41.087  14.387  20.887  0.00  0.00     0.085 C 
ATOM     28  C   UNL d   1     -40.358  14.138  21.181  0.00  0.00     0.021 C 
ATOM     29  C   UNL d   1     -41.245  15.196  20.807  0.00  0.00     0.021 C 
ENDBRANCH  25  27
ENDBRANCH  23  24
ENDBRANCH  22  23
ENDBRANCH   1  22
TORSDOF 8
ENDMDL
MODEL 2
REMARK VINA RESULT:      -4.0      7.105      8.826
REMARK  8 active torsions:
REMARK  status: ('A' for Active; 'I' for Inactive)
REMARK    1  A    between atoms: O_10  and  C_1 
REMARK    2  A    between atoms: C_12  and  C_4 
REMARK    3  A    between atoms: N_7  and  C_12 
REMARK    4  A    between atoms: C_15  and  N_8 
REMARK    5  A    between atoms: C_9  and  C_16 
REMARK       I    between atoms: N_11  and  C_9 
REMARK    6  A    between atoms: C_16  and  O_10 
REMARK    7  A    between atoms: C_22  and  N_11 
REMARK    8  A    between atoms: C_21  and  C_15 
ROOT
ATOM      1  C   UNL d   1     -39.350  14.853  16.866  0.00  0.00     0.164 A 
ATOM      2  C   UNL d   1     -40.268  15.419  17.716  0.00  0.00     0.070 A 
ATOM      3  C   UNL d   1     -40.106  15.060  17.015  0.00  0.00     0.222 A 
ATOM      4  C   UNL d   1     -39.687  15.564  18.246  0.00  0.00     0.121 A 
ATOM      5  C   UNL d   1     -38.769  14.998  17.397  0.00  0.00     0.150 A 
ATOM      6  O   UNL d   1     -38.938  15.351  18.082  0.00  0.00    -0.301 OA
ATOM      7  O   UNL d   1     -40.680  14.917  16.491  0.00  0.00    -0.284 OA
ENDROOT
BRANCH   4   8
ATOM      8  C   UNL d   1     -39.858  15.922  18.940  0.00  0.00     0.105 C 
BRANCH   8   9
ATOM      9  N   UNL d   1     -39.749  15.519  19.650  0.00  0.00    -0.298 N 
ATOM     10  C   UNL d   1     -39.011  15.525  20.032  0.00  0.00     0.100 A 
ATOM     11  C   UNL d   1     -38.905  15.116  20.749  0.00  0.00     0.100 A 
ATOM     12  N   UNL d   1     -39.533  14.702  21.088  0.00  0.00    -0.300 N 
ATOM     13  C   UNL d   1     -40.278  14.691  20.709  0.00  0.00     0.100 A 
ATOM     14  C   UNL d   1     -40.380  15.099  19.995  0.00  0.00     0.100 A 
BRANCH  12  15
ATOM     15  C   UNL d   1     -39.644  14.247  21.765  0.00  0.00     0.080 C 
BRANCH  15  16
ATOM     16  C   UNL d   1     -39.148  13.976  22.377  0.00  0.00     0.018 A 
ATOM     17  C   UNL d   1     -38.971  14.469  23.020  0.00  0.00     0.002 A 
ATOM     18  C   UNL d   1     -38.479  14.192  23.623  0.00  0.00     0.000 A 
ATOM     19  C   UNL d   1     -38.165  13.432  23.589  0.00  0.00     0.000 A 
ATOM     20  C   UNL d   1     -38.345  12.934  22.939  0.00  0.00     0.000 A 
ATOM     21  C   UNL d   1     -38.838  13.215  22.337  0.00  0.00     0.002 A 
ENDBRANCH  15  16
ENDBRANCH  12  15
ENDBRANCH   8   9
ENDBRANCH   4   8
BRANCH   1  22
ATOM     22  O   UNL d   1     -38.816  14.523  16.371  0.00  0.00    -0.295 OA
BRANCH  22  23
ATOM     23  C   UNL d   1     -39.034  13.889  15.880  0.00  0.00     0.185 C 
BRANCH  23  24
ATOM     24  C   UNL d   1     -38.452  13.503  15.445  0.00  0.00     0.304 C 
ATOM     25  N   UNL d   1     -38.072  13.373  14.717  0.00  0.00    -0.206 NA
ATOM     26  O   UNL d   1     -37.940  12.963  15.796  0.00  0.00    -0.263 OA
BRANCH  25  27
ATOM     27  C   UNL d   1     -38.003  13.535  13.903  0.00  0.00     0.085 C 
ATOM     28  C   UNL d   1     -37.996  14.316  13.639  0.00  0.00     0.021 C 
ATOM     29  C   UNL d   1     -37.940  12.915  13.358  0.00  0.00     0.021 C 
ENDBRANCH  25  27
ENDBRANCH  23  24
ENDBRANCH  22  23
ENDBRANCH   1  22
TORSDOF 8
ENDMDL
MODEL 3
REMARK VINA RESULT:      -3.9      3.201      8.548
REMARK  8 active torsions:
REMARK  status: ('A' for Active; 'I' for Inactive)
REMARK    1  A    between atoms: O_10  and  C_1 
REMARK    2  A    between atoms: C_12  and  C_4 
REMARK    3  A    between atoms: N_7  and  C_12 
REMARK    4  A    between atoms: C_15  and  N_8 
REMARK    5  A    between atoms: C_9  and  C_16 
REMARK       I    between atoms: N_11  and  C_9 
REMARK    6  A    between atoms: C_16  and  O_10 
REMARK    7  A    between atoms: C_22  and  N_11 
REMARK    8  A    between atoms: C_21  and  C_15 
ROOT
ATOM      1  C   UNL d   1     -41.576  14.399  21.082  0.00  0.00     0.164 A 
ATOM      2  C   UNL d   1     -40.955  15.579  20.757  0.00  0.00     0.070 A 
ATOM      3  C   UNL d   1     -41.623  15.187  20.968  0.00  0.00     0.222 A 
ATOM      4  C   UNL d   1     -40.262  15.190  20.663  0.00  0.00     0.121 A 
ATOM      5  C   UNL d   1     -40.883  14.009  20.988  0.00  0.00     0.150 A 
ATOM      6  O   UNL d   1     -40.232  14.403  20.780  0.00  0.00    -0.301 OA
ATOM      7  O   UNL d   1     -42.308  15.572  21.061  0.00  0.00    -0.284 OA
ENDROOT
BRANCH   4   8
ATOM      8  C   UNL d   1     -39.604  15.589  20.453  0.00  0.00     0.105 C 
BRANCH   8   9
ATOM      9  N   UNL d   1     -39.232  15.423  19.736  0.00  0.00    -0.298 N 
ATOM     10  C   UNL d   1     -39.521  15.740  19.025  0.00  0.00     0.100 A 
ATOM     11  C   UNL d   1     -39.143  15.570  18.303  0.00  0.00     0.100 A 
ATOM     12  N   UNL d   1     -38.475  15.085  18.289  0.00  0.00    -0.300 N 
ATOM     13  C   UNL d   1     -38.178  14.763  19.001  0.00  0.00     0.100 A 
ATOM     14  C   UNL d   1     -38.558  14.934  19.717  0.00  0.00     0.100 A 
BRANCH  12  15
ATOM     15  C   UNL d   1     -37.966  14.798  17.710  0.00  0.00     0.080 C 
BRANCH  15  16
ATOM     16  C   UNL d   1     -38.046  14.596  16.905  0.00  0.00     0.018 A 
ATOM     17  C   UNL d   1     -38.232  13.819  16.686  0.00  0.00     0.002 A 
ATOM     18  C   UNL d   1     -38.309  13.628  15.887  0.00  0.00     0.000 A 
ATOM     19  C   UNL d   1     -38.204  14.203  15.307  0.00  0.00     0.000 A 
ATOM     20  C   UNL d   1     -38.017  14.989  15.530  0.00  0.00     0.000 A 
ATOM     21  C   UNL d   1     -37.940  15.177  16.331  0.00  0.00     0.002 A 
ENDBRANCH  15  16
ENDBRANCH  12  15
ENDBRANCH   8   9
ENDBRANCH   4   8
BRANCH   1  22
ATOM     22  O   UNL d   1     -41.937  13.712  21.271  0.00  0.00    -0.295 OA
BRANCH  22  23
ATOM     23  C   UNL d   1     -42.744  13.601  21.103  0.00  0.00     0.185 C 
BRANCH  23  24
ATOM     24  C   UNL d   1     -43.138  12.963  21.441  0.00  0.00     0.304 C 
ATOM     25  N   UNL d   1     -43.825  12.650  21.789  0.00  0.00    -0.206 NA
ATOM     26  O   UNL d   1     -42.773  12.231  21.530  0.00  0.00    -0.263 OA
BRANCH  25  27
ATOM     27  C   UNL d   1     -44.611  12.751  22.047  0.00  0.00     0.085 C 
ATOM     28  C   UNL d   1     -44.961  12.180  22.528  0.00  0.00     0.021 C 
ATOM     29  C   UNL d   1     -45.041  13.422  21.822  0.00  0.00     0.021 C 
ENDBRANCH  25  27
ENDBRANCH  23  24
ENDBRANCH  22  23
ENDBRANCH   1  22
TORSDOF 8
ENDMDL
MODEL 4
REMARK VINA RESULT:      -3.4      2.027      7.222
REMARK  8 active torsions:
REMARK  status: ('A' for Active; 'I' for Inactive)
REMARK    1  A    between atoms: O_10  and  C_1 
REMARK    2  A    between atoms: C_12  and  C_4 
REMARK    3  A    between atoms: N_7  and  C_12 
REMARK    4  A    between atoms: C_15  and  N_8 
REMARK    5  A    between atoms: C_9  and  C_16 
REMARK       I    between atoms: N_11  and  C_9 
REMARK    6  A    between atoms: C_16  and  O_10 
REMARK    7  A    between atoms: C_22  and  N_11 
REMARK    8  A    between atoms: C_21  and  C_15 
ROOT
ATOM      1  C   UNL d   1     -43.584  13.063  21.566  0.00  0.00     0.164 A 
ATOM      2  C   UNL d   1     -42.229  12.843  21.598  0.00  0.00     0.070 A 
ATOM      3  C   UNL d   1     -42.976  12.556  21.665  0.00  0.00     0.222 A 
ATOM      4  C   UNL d   1     -42.100  13.616  21.437  0.00  0.00     0.121 A 
ATOM      5  C   UNL d   1     -43.455  13.836  21.405  0.00  0.00     0.150 A 
ATOM      6  O   UNL d   1     -42.717  14.109  21.341  0.00  0.00    -0.301 OA
ATOM      7  O   UNL d   1     -43.104  11.791  21.824  0.00  0.00    -0.284 OA
ENDROOT
BRANCH   4   8
ATOM      8  C   UNL d   1     -41.353  13.892  21.372  0.00  0.00     0.105 C 
BRANCH   8   9
ATOM      9  N   UNL d   1     -41.129  14.325  20.708  0.00  0.00    -0.298 N 
ATOM     10  C   UNL d   1     -40.908  13.940  20.006  0.00  0.00     0.100 A 
ATOM     11  C   UNL d   1     -40.682  14.380  19.337  0.00  0.00     0.100 A 
ATOM     12  N   UNL d   1     -40.676  15.205  19.365  0.00  0.00    -0.300 N 
ATOM     13  C   UNL d   1     -40.898  15.599  20.069  0.00  0.00     0.100 A 
ATOM     14  C   UNL d   1     -41.122  15.157  20.732  0.00  0.00     0.100 A 
BRANCH  12  15
ATOM     15  C   UNL d   1     -40.495  15.813  18.842  0.00  0.00     0.080 C 
BRANCH  15  16
ATOM     16  C   UNL d   1     -40.276  15.849  18.038  0.00  0.00     0.018 A 
ATOM     17  C   UNL d   1     -40.857  15.883  17.447  0.00  0.00     0.002 A 
ATOM     18  C   UNL d   1     -40.631  15.919  16.655  0.00  0.00     0.000 A 
ATOM     19  C   UNL d   1     -39.834  15.921  16.447  0.00  0.00     0.000 A 
ATOM     20  C   UNL d   1     -39.247  15.887  17.044  0.00  0.00     0.000 A 
ATOM     21  C   UNL d   1     -39.477  15.851  17.838  0.00  0.00     0.002 A 
ENDBRANCH  15  16
ENDBRANCH  12  15
ENDBRANCH   8   9
ENDBRANCH   4   8
BRANCH   1  22
ATOM     22  O   UNL d   1     -44.372  13.191  21.548  0.00  0.00    -0.295 OA
BRANCH  22  23
ATOM     23  C   UNL d   1     -44.843  13.010  22.210  0.00  0.00     0.185 C 
BRANCH  23  24
ATOM     24  C   UNL d   1     -45.661  13.050  22.139  0.00  0.00     0.304 C 
ATOM     25  N   UNL d   1     -46.412  13.009  22.494  0.00  0.00    -0.206 NA
ATOM     26  O   UNL d   1     -46.025  13.195  21.415  0.00  0.00    -0.263 OA
BRANCH  25  27
ATOM     27  C   UNL d   1     -46.882  12.899  23.173  0.00  0.00     0.085 C 
ATOM     28  C   UNL d   1     -47.464  13.451  23.363  0.00  0.00     0.021 C 
ATOM     29  C   UNL d   1     -46.766  12.238  23.659  0.00  0.00     0.021 C 
ENDBRANCH  25  27
ENDBRANCH  23  24
ENDBRANCH  22  23
ENDBRANCH   1  22
TORSDOF 8
ENDMDL
MODEL 5
REMARK VINA RESULT:      -3.2      1.218      7.061
REMARK  8 active torsions:
REMARK  status: ('A' for Active; 'I' for Inactive)
REMARK    1  A    between atoms: O_10  and  C_1 
REMARK    2  A    between atoms: C_12  and  C_4 
REMARK    3  A    between atoms: N_7  and  C_12 
REMARK    4  A    between atoms: C_15  and  N_8 
REMARK    5  A    between atoms: C_9  and  C_16 
REMARK       I    between atoms: N_11  and  C_9 
REMARK    6  A    between atoms: C_16  and  O_10 
REMARK    7  A    between atoms: C_22  and  N_11 
REMARK    8  A    between atoms: C_21  and  C_15 
ROOT
ATOM      1  C   UNL d   1     -44.863  12.779  22.419  0.00  0.00     0.164 A 
ATOM      2  C   UNL d   1     -43.707  12.113  22.093  0.00  0.00     0.070 A 
ATOM      3  C   UNL d   1     -44.370  12.164  22.544  0.00  0.00     0.222 A 
ATOM      4  C   UNL d   1     -43.548  12.663  21.535  0.00  0.00     0.121 A 
ATOM      5  C   UNL d   1     -44.704  13.329  21.860  0.00  0.00     0.150 A 
ATOM      6  O   UNL d   1     -44.050  13.270  21.422  0.00  0.00    -0.301 OA
ATOM      7  O   UNL d   1     -44.528  11.620  23.096  0.00  0.00    -0.284 OA
ENDROOT
BRANCH   4   8
ATOM      8  C   UNL d   1     -42.886  12.604  21.092  0.00  0.00     0.105 C 
BRANCH   8   9
ATOM      9  N   UNL d   1     -42.323  13.205  21.107  0.00  0.00    -0.298 N 
ATOM     10  C   UNL d   1     -41.687  13.177  21.641  0.00  0.00     0.100 A 
ATOM     11  C   UNL d   1     -41.120  13.786  21.654  0.00  0.00     0.100 A 
ATOM     12  N   UNL d   1     -41.186  14.425  21.135  0.00  0.00    -0.300 N 
ATOM     13  C   UNL d   1     -41.824  14.460  20.596  0.00  0.00     0.100 A 
ATOM     14  C   UNL d   1     -42.385  13.852  20.586  0.00  0.00     0.100 A 
BRANCH  12  15
ATOM     15  C   UNL d   1     -40.755  15.110  20.984  0.00  0.00     0.080 C 
BRANCH  15  16
ATOM     16  C   UNL d   1     -39.977  15.361  21.144  0.00  0.00     0.018 A 
ATOM     17  C   UNL d   1     -39.784  15.676  21.887  0.00  0.00     0.002 A 
ATOM     18  C   UNL d   1     -39.011  15.922  22.037  0.00  0.00     0.000 A 
ATOM     19  C   UNL d   1     -38.431  15.857  21.456  0.00  0.00     0.000 A 
ATOM     20  C   UNL d   1     -38.627  15.538  20.706  0.00  0.00     0.000 A 
ATOM     21  C   UNL d   1     -39.403  15.292  20.559  0.00  0.00     0.002 A 
ENDBRANCH  15  16
ENDBRANCH  12  15
ENDBRANCH   8   9
ENDBRANCH   4   8
BRANCH   1  22
ATOM     22  O   UNL d   1     -45.536  13.166  22.608  0.00  0.00    -0.295 OA
BRANCH  22  23
ATOM     23  C   UNL d   1     -46.178  12.755  22.941  0.00  0.00     0.185 C 
BRANCH  23  24
ATOM     24  C   UNL d   1     -46.891  13.150  23.050  0.00  0.00     0.304 C 
ATOM     25  N   UNL d   1     -47.723  13.142  23.034  0.00  0.00    -0.206 NA
ATOM     26  O   UNL d   1     -46.915  13.937  23.288  0.00  0.00    -0.263 OA
BRANCH  25  27
ATOM     27  C   UNL d   1     -48.435  12.733  22.900  0.00  0.00     0.085 C 
ATOM     28  C   UNL d   1     -48.710  12.193  23.459  0.00  0.00     0.021 C 
ATOM     29  C   UNL d   1     -48.869  12.867  22.207  0.00  0.00     0.021 C 
ENDBRANCH  25  27
ENDBRANCH  23  24
ENDBRANCH  22  23
ENDBRANCH   1  22
TORSDOF 8
ENDMDL
MODEL 6
REMARK VINA RESULT:      -2.5      1.878      6.542
REMARK  8 active torsions:
REMARK  status: ('A' for Active; 'I' for Inactive)
REMARK    1  A    between atoms: O_10  and  C_1 
REMARK    2  A    between atoms: C_12  and  C_4 
REMARK    3  A    between atoms: N_7  and  C_12 
REMARK    4  A    between atoms: C_15  and  N_8 
REMARK    5  A    between atoms: C_9  and  C_16 
REMARK       I    between atoms: N_11  and  C_9 
REMARK    6  A    between atoms: C_16  and  O_10 
REMARK    7  A    between atoms: C_22  and  N_11 
REMARK    8  A    between atoms: C_21  and  C_15 
ROOT
ATOM      1  C   UNL d   1     -47.357  13.780  22.489  0.00  0.00     0.164 A 
ATOM      2  C   UNL d   1     -46.647  12.637  22.217  0.00  0.00     0.070 A 
ATOM      3  C   UNL d   1     -47.307  13.081  22.108  0.00  0.00     0.222 A 
ATOM      4  C   UNL d   1     -46.057  12.889  22.695  0.00  0.00     0.121 A 
ATOM      5  C   UNL d   1     -46.766  14.033  22.967  0.00  0.00     0.150 A 
ATOM      6  O   UNL d   1     -46.121  13.589  23.068  0.00  0.00    -0.301 OA
ATOM      7  O   UNL d   1     -47.891  12.831  21.636  0.00  0.00    -0.284 OA
ENDROOT
BRANCH   4   8
ATOM      8  C   UNL d   1     -45.405  12.440  22.797  0.00  0.00     0.105 C 
BRANCH   8   9
ATOM      9  N   UNL d   1     -44.722  12.599  22.363  0.00  0.00    -0.298 N 
ATOM     10  C   UNL d   1     -44.656  13.297  21.917  0.00  0.00     0.100 A 
ATOM     11  C   UNL d   1     -43.965  13.454  21.480  0.00  0.00     0.100 A 
ATOM     12  N   UNL d   1     -43.339  12.916  21.486  0.00  0.00    -0.300 N 
ATOM     13  C   UNL d   1     -43.399  12.212  21.932  0.00  0.00     0.100 A 
ATOM     14  C   UNL d   1     -44.088  12.059  22.366  0.00  0.00     0.100 A 
BRANCH  12  15
ATOM     15  C   UNL d   1     -42.594  12.873  21.140  0.00  0.00     0.080 C 
BRANCH  15  16
ATOM     16  C   UNL d   1     -41.989  13.424  20.981  0.00  0.00     0.018 A 
ATOM     17  C   UNL d   1     -41.391  13.561  21.539  0.00  0.00     0.002 A 
ATOM     18  C   UNL d   1     -40.795  14.107  21.372  0.00  0.00     0.000 A 
ATOM     19  C   UNL d   1     -40.791  14.516  20.658  0.00  0.00     0.000 A 
ATOM     20  C   UNL d   1     -41.396  14.378  20.095  0.00  0.00     0.000 A 
ATOM     21  C   UNL d   1     -41.991  13.829  20.264  0.00  0.00     0.002 A 
ENDBRANCH  15  16
ENDBRANCH  12  15
ENDBRANCH   8   9
ENDBRANCH   4   8
BRANCH   1  22
ATOM     22  O   UNL d   1     -47.769  14.446  22.647  0.00  0.00    -0.295 OA
BRANCH  22  23
ATOM     23  C   UNL d   1     -48.503  14.402  23.037  0.00  0.00     0.185 C 
BRANCH  23  24
ATOM     24  C   UNL d   1     -49.018  15.041  22.988  0.00  0.00     0.304 C 
ATOM     25  N   UNL d   1     -49.792  15.342  23.043  0.00  0.00    -0.206 NA
ATOM     26  O   UNL d   1     -48.751  15.797  22.802  0.00  0.00    -0.263 OA
BRANCH  25  27
ATOM     27  C   UNL d   1     -50.603  15.218  23.186  0.00  0.00     0.085 C 
ATOM     28  C   UNL d   1     -50.994  14.593  22.816  0.00  0.00     0.021 C 
ATOM     29  C   UNL d   1     -51.018  15.719  23.698  0.00  0.00     0.021 C 
ENDBRANCH  25  27
ENDBRANCH  23  24
ENDBRANCH  22  23
ENDBRANCH   1  22
TORSDOF 8
ENDMDL
