MODEL 1
REMARK VINA RESULT:      -1.0      0.000      0.000
REMARK  4 active torsions:
REMARK  status: ('A' for Active; 'I' for Inactive)
REMARK    1  A    between atoms: C_7  and  C_1 
REMARK    2  A    between atoms: C_13  and  N_2 
REMARK    3  A    between atoms: C_8  and  C_7 
REMARK    4  A    between atoms: N_9  and  C_14 
ROOT
ATOM      1  N   UNL d   1      32.351  19.174 -23.638  0.00  0.00    -0.242 N 
ATOM      2  C   UNL d   1      32.559  19.854 -24.071  0.00  0.00     0.267 A 
ATOM      3  C   UNL d   1      32.576  19.299 -22.854  0.00  0.00     0.267 A 
ATOM      4  C   UNL d   1      32.919  20.048 -22.796  0.00  0.00     0.062 A 
ATOM      5  C   UNL d   1      32.909  20.390 -23.547  0.00  0.00     0.066 A 
ATOM      6  O   UNL d   1      32.435  19.965 -24.873  0.00  0.00    -0.267 OA
ATOM      7  O   UNL d   1      32.471  18.762 -22.234  0.00  0.00    -0.267 OA
ENDROOT
BRANCH   4   8
ATOM      8  C   UNL d   1      33.219  20.391 -22.111  0.00  0.00     0.018 C 
BRANCH   8   9
ATOM      9  C   UNL d   1      32.897  21.126 -21.950  0.00  0.00     0.045 A 
ATOM     10  N   UNL d   1      32.890  21.773 -22.454  0.00  0.00    -0.308 N 
ATOM     11  C   UNL d   1      32.515  22.394 -22.080  0.00  0.00     0.060 A 
ATOM     12  C   UNL d   1      33.210  21.789 -23.216  0.00  0.00     0.099 C 
ATOM     13  C   UNL d   1      32.352  23.159 -22.315  0.00  0.00     0.017 A 
ATOM     14  C   UNL d   1      32.285  22.136 -21.336  0.00  0.00    -0.002 A 
ATOM     15  C   UNL d   1      31.954  23.676 -21.804  0.00  0.00     0.002 A 
ATOM     16  C   UNL d   1      31.727  23.407 -21.056  0.00  0.00    -0.000 A 
ATOM     17  C   UNL d   1      31.890  22.645 -20.824  0.00  0.00    -0.003 A 
ATOM     18  C   UNL d   1      32.522  21.349 -21.254  0.00  0.00     0.054 A 
ATOM     19  C   UNL d   1      32.379  20.909 -20.567  0.00  0.00     0.010 C 
ATOM     20  C   UNL d   1      32.128  21.697 -20.615  0.00  0.00     0.010 C 
ENDBRANCH   8   9
ENDBRANCH   4   8
BRANCH   1  21
ATOM     21  C   UNL d   1      31.990  18.503 -23.935  0.00  0.00     0.070 A 
ATOM     22  C   UNL d   1      31.163  18.455 -23.978  0.00  0.00     0.019 A 
ATOM     23  C   UNL d   1      30.808  17.777 -24.277  0.00  0.00     0.025 A 
ATOM     24  C   UNL d   1      31.268  17.149 -24.532  0.00  0.00     0.127 A 
ATOM     25  C   UNL d   1      32.094  17.197 -24.489  0.00  0.00     0.025 A 
ATOM     26  C   UNL d   1      32.455  17.872 -24.191  0.00  0.00     0.019 A 
BRANCH  24  27
ATOM     27  N   UNL d   1      30.912  16.470 -24.832  0.00  0.00    -0.114 N 
ATOM     28  O   UNL d   1      31.360  15.795 -24.976  0.00  0.00    -0.532 OA
ATOM     29  O   UNL d   1      30.108  16.466 -24.988  0.00  0.00    -0.532 OA
ENDBRANCH  24  27
ENDBRANCH   1  21
TORSDOF 4
ENDMDL
MODEL 2
REMARK VINA RESULT:      -0.2      2.893      4.767
REMARK  4 active torsions:
REMARK  status: ('A' for Active; 'I' for Inactive)
REMARK    1  A    between atoms: C_7  and  C_1 
REMARK    2  A    between atoms: C_13  and  N_2 
REMARK    3  A    between atoms: C_8  and  C_7 
REMARK    4  A    between atoms: N_9  and  C_14 
ROOT
ATOM      1  N   UNL d   1      29.012  16.709 -24.208  0.00  0.00    -0.242 N 
ATOM      2  C   UNL d   1      29.134  17.437 -24.592  0.00  0.00     0.267 A 
ATOM      3  C   UNL d   1      29.739  16.319 -24.176  0.00  0.00     0.267 A 
ATOM      4  C   UNL d   1      30.308  16.798 -24.536  0.00  0.00     0.062 A 
ATOM      5  C   UNL d   1      29.934  17.487 -24.792  0.00  0.00     0.066 A 
ATOM      6  O   UNL d   1      28.556  18.000 -24.742  0.00  0.00    -0.267 OA
ATOM      7  O   UNL d   1      29.869  15.575 -23.840  0.00  0.00    -0.267 OA
ENDROOT
BRANCH   4   8
ATOM      8  C   UNL d   1      31.106  16.618 -24.622  0.00  0.00     0.018 C 
BRANCH   8   9
ATOM      9  C   UNL d   1      31.597  17.111 -24.192  0.00  0.00     0.045 A 
ATOM     10  N   UNL d   1      31.832  17.867 -24.405  0.00  0.00    -0.308 N 
ATOM     11  C   UNL d   1      32.320  18.165 -23.822  0.00  0.00     0.060 A 
ATOM     12  C   UNL d   1      31.611  18.260 -25.097  0.00  0.00     0.099 C 
ATOM     13  C   UNL d   1      32.708  18.879 -23.743  0.00  0.00     0.017 A 
ATOM     14  C   UNL d   1      32.391  17.592 -23.238  0.00  0.00    -0.002 A 
ATOM     15  C   UNL d   1      33.175  19.028 -23.074  0.00  0.00     0.002 A 
ATOM     16  C   UNL d   1      33.241  18.445 -22.492  0.00  0.00    -0.000 A 
ATOM     17  C   UNL d   1      32.854  17.736 -22.572  0.00  0.00    -0.003 A 
ATOM     18  C   UNL d   1      31.943  16.938 -23.467  0.00  0.00     0.054 A 
ATOM     19  C   UNL d   1      31.888  16.253 -23.006  0.00  0.00     0.010 C 
ATOM     20  C   UNL d   1      32.347  16.891 -22.746  0.00  0.00     0.010 C 
ENDBRANCH   8   9
ENDBRANCH   4   8
BRANCH   1  21
ATOM     21  C   UNL d   1      28.302  16.428 -23.916  0.00  0.00     0.070 A 
ATOM     22  C   UNL d   1      27.963  15.738 -24.225  0.00  0.00     0.019 A 
ATOM     23  C   UNL d   1      27.249  15.462 -23.925  0.00  0.00     0.025 A 
ATOM     24  C   UNL d   1      26.871  15.868 -23.322  0.00  0.00     0.127 A 
ATOM     25  C   UNL d   1      27.210  16.558 -23.012  0.00  0.00     0.025 A 
ATOM     26  C   UNL d   1      27.924  16.838 -23.308  0.00  0.00     0.019 A 
BRANCH  24  27
ATOM     27  N   UNL d   1      26.157  15.592 -23.021  0.00  0.00    -0.114 N 
ATOM     28  O   UNL d   1      25.519  15.455 -23.523  0.00  0.00    -0.532 OA
ATOM     29  O   UNL d   1      26.079  15.454 -22.218  0.00  0.00    -0.532 OA
ENDBRANCH  24  27
ENDBRANCH   1  21
TORSDOF 4
ENDMDL
