MODEL 1
REMARK VINA RESULT:      -7.6      0.000      0.000
REMARK  4 active torsions:
REMARK  status: ('A' for Active; 'I' for Inactive)
REMARK    1  A    between atoms: N_3  and  S_1 
REMARK    2  A    between atoms: C_5  and  S_1 
REMARK    3  A    between atoms: C_2  and  C_9 
REMARK       I    between atoms: N_4  and  C_2 
REMARK    4  A    between atoms: C_11  and  N_3 
ROOT
ATOM      1  C   UNL d   1     -46.162  13.036  22.578  0.00  0.00     0.057 A 
ATOM      2  C   UNL d   1     -47.623  13.794  22.542  0.00  0.00     0.094 A 
ATOM      3  C   UNL d   1     -46.407  13.490  23.223  0.00  0.00     0.006 A 
ATOM      4  C   UNL d   1     -46.644  12.959  21.914  0.00  0.00     0.006 A 
ATOM      5  C   UNL d   1     -47.140  13.869  23.202  0.00  0.00     0.020 A 
ATOM      6  C   UNL d   1     -47.373  13.335  21.890  0.00  0.00     0.020 A 
ENDROOT
BRANCH   2   7
ATOM      7  N   UNL d   1     -48.352  14.169  22.518  0.00  0.00    -0.158 NA
BRANCH   7   8
ATOM      8  S   UNL d   1     -49.032  13.764  22.759  0.00  0.00     0.285 S 
ATOM      9  O   UNL d   1     -49.185  13.548  21.977  0.00  0.00    -0.198 OA
ATOM     10  O   UNL d   1     -48.875  13.982  23.540  0.00  0.00    -0.198 OA
BRANCH   8  11
ATOM     11  C   UNL d   1     -49.708  13.362  23.002  0.00  0.00     0.107 A 
ATOM     12  C   UNL d   1     -49.725  12.534  22.986  0.00  0.00     0.043 A 
ATOM     13  C   UNL d   1     -50.403  12.129  23.230  0.00  0.00     0.141 A 
ATOM     14  F   UNL d   1     -50.427  11.296  23.216  0.00  0.00    -0.204 F 
ATOM     15  C   UNL d   1     -51.063  12.552  23.488  0.00  0.00     0.030 A 
ATOM     16  C   UNL d   1     -51.045  13.373  23.503  0.00  0.00     0.003 A 
ATOM     17  C   UNL d   1     -50.369  13.782  23.261  0.00  0.00     0.013 A 
ENDBRANCH   8  11
ENDBRANCH   7   8
ENDBRANCH   2   7
BRANCH   1  18
ATOM     18  C   UNL d   1     -45.418  12.648  22.593  0.00  0.00     0.265 C 
ATOM     19  N   UNL d   1     -45.348  11.912  22.965  0.00  0.00    -0.272 N 
ATOM     20  C   UNL d   1     -44.615  11.529  22.981  0.00  0.00     0.083 A 
ATOM     21  C   UNL d   1     -46.001  11.560  23.317  0.00  0.00     0.083 A 
ATOM     22  C   UNL d   1     -44.543  10.795  23.351  0.00  0.00     0.019 A 
ATOM     23  C   UNL d   1     -45.201  10.457  23.697  0.00  0.00     0.003 A 
ATOM     24  C   UNL d   1     -45.927  10.834  23.682  0.00  0.00     0.019 A 
ATOM     25  O   UNL d   1     -44.757  13.007  22.236  0.00  0.00    -0.267 OA
ENDBRANCH   1  18
TORSDOF 4
ENDMDL
MODEL 2
REMARK VINA RESULT:      -7.3      1.749      4.566
REMARK  4 active torsions:
REMARK  status: ('A' for Active; 'I' for Inactive)
REMARK    1  A    between atoms: N_3  and  S_1 
REMARK    2  A    between atoms: C_5  and  S_1 
REMARK    3  A    between atoms: C_2  and  C_9 
REMARK       I    between atoms: N_4  and  C_2 
REMARK    4  A    between atoms: C_11  and  N_3 
ROOT
ATOM      1  C   UNL d   1     -48.307  13.848  22.305  0.00  0.00     0.057 A 
ATOM      2  C   UNL d   1     -46.710  13.523  22.538  0.00  0.00     0.094 A 
ATOM      3  C   UNL d   1     -47.887  13.415  21.739  0.00  0.00     0.006 A 
ATOM      4  C   UNL d   1     -47.931  14.119  22.987  0.00  0.00     0.006 A 
ATOM      5  C   UNL d   1     -47.086  13.254  21.860  0.00  0.00     0.020 A 
ATOM      6  C   UNL d   1     -47.136  13.960  23.109  0.00  0.00     0.020 A 
ENDROOT
BRANCH   2   7
ATOM      7  N   UNL d   1     -45.915  13.364  22.660  0.00  0.00    -0.158 NA
BRANCH   7   8
ATOM      8  S   UNL d   1     -45.677  12.607  22.895  0.00  0.00     0.285 S 
ATOM      9  O   UNL d   1     -45.860  12.788  23.680  0.00  0.00    -0.198 OA
ATOM     10  O   UNL d   1     -45.496  12.428  22.110  0.00  0.00    -0.198 OA
BRANCH   8  11
ATOM     11  C   UNL d   1     -45.441  11.853  23.126  0.00  0.00     0.107 A 
ATOM     12  C   UNL d   1     -44.656  11.613  23.016  0.00  0.00     0.043 A 
ATOM     13  C   UNL d   1     -44.417  10.856  23.248  0.00  0.00     0.141 A 
ATOM     14  F   UNL d   1     -43.628  10.609  23.140  0.00  0.00    -0.204 F 
ATOM     15  C   UNL d   1     -44.963  10.341  23.589  0.00  0.00     0.030 A 
ATOM     16  C   UNL d   1     -45.742  10.579  23.698  0.00  0.00     0.003 A 
ATOM     17  C   UNL d   1     -45.984  11.334  23.468  0.00  0.00     0.013 A 
ENDBRANCH   8  11
ENDBRANCH   7   8
ENDBRANCH   2   7
BRANCH   1  18
ATOM     18  C   UNL d   1     -49.121  14.016  22.188  0.00  0.00     0.265 C 
ATOM     19  N   UNL d   1     -49.690  13.464  22.426  0.00  0.00    -0.272 N 
ATOM     20  C   UNL d   1     -50.492  13.627  22.311  0.00  0.00     0.083 A 
ATOM     21  C   UNL d   1     -49.463  12.756  22.774  0.00  0.00     0.083 A 
ATOM     22  C   UNL d   1     -51.061  13.079  22.548  0.00  0.00     0.019 A 
ATOM     23  C   UNL d   1     -50.821  12.379  22.893  0.00  0.00     0.003 A 
ATOM     24  C   UNL d   1     -50.028  12.215  23.007  0.00  0.00     0.019 A 
ATOM     25  O   UNL d   1     -49.349  14.734  21.834  0.00  0.00    -0.267 OA
ENDBRANCH   1  18
TORSDOF 4
ENDMDL
MODEL 3
REMARK VINA RESULT:      -6.9      2.063      4.828
REMARK  4 active torsions:
REMARK  status: ('A' for Active; 'I' for Inactive)
REMARK    1  A    between atoms: N_3  and  S_1 
REMARK    2  A    between atoms: C_5  and  S_1 
REMARK    3  A    between atoms: C_2  and  C_9 
REMARK       I    between atoms: N_4  and  C_2 
REMARK    4  A    between atoms: C_11  and  N_3 
ROOT
ATOM      1  C   UNL d   1     -48.241  12.428  22.740  0.00  0.00     0.057 A 
ATOM      2  C   UNL d   1     -46.797  13.209  22.862  0.00  0.00     0.094 A 
ATOM      3  C   UNL d   1     -47.798  12.370  23.435  0.00  0.00     0.006 A 
ATOM      4  C   UNL d   1     -47.965  12.876  22.105  0.00  0.00     0.006 A 
ATOM      5  C   UNL d   1     -47.074  12.763  23.493  0.00  0.00     0.020 A 
ATOM      6  C   UNL d   1     -47.247  13.267  22.160  0.00  0.00     0.020 A 
ENDROOT
BRANCH   2   7
ATOM      7  N   UNL d   1     -46.079  13.601  22.917  0.00  0.00    -0.158 NA
BRANCH   7   8
ATOM      8  S   UNL d   1     -45.396  13.254  22.604  0.00  0.00     0.285 S 
ATOM      9  O   UNL d   1     -45.372  13.825  22.009  0.00  0.00    -0.198 OA
ATOM     10  O   UNL d   1     -45.422  12.683  23.201  0.00  0.00    -0.198 OA
BRANCH   8  11
ATOM     11  C   UNL d   1     -44.716  12.906  22.295  0.00  0.00     0.107 A 
ATOM     12  C   UNL d   1     -44.433  12.196  22.613  0.00  0.00     0.043 A 
ATOM     13  C   UNL d   1     -43.751  11.847  22.303  0.00  0.00     0.141 A 
ATOM     14  F   UNL d   1     -43.460  11.131  22.619  0.00  0.00    -0.204 F 
ATOM     15  C   UNL d   1     -43.353  12.207  21.677  0.00  0.00     0.030 A 
ATOM     16  C   UNL d   1     -43.635  12.912  21.363  0.00  0.00     0.003 A 
ATOM     17  C   UNL d   1     -44.316  13.265  21.669  0.00  0.00     0.013 A 
ENDBRANCH   8  11
ENDBRANCH   7   8
ENDBRANCH   2   7
BRANCH   1  18
ATOM     18  C   UNL d   1     -48.978  12.031  22.675  0.00  0.00     0.265 C 
ATOM     19  N   UNL d   1     -49.659  12.377  22.995  0.00  0.00    -0.272 N 
ATOM     20  C   UNL d   1     -50.385  11.986  22.932  0.00  0.00     0.083 A 
ATOM     21  C   UNL d   1     -49.617  13.104  23.374  0.00  0.00     0.083 A 
ATOM     22  C   UNL d   1     -51.064  12.329  23.250  0.00  0.00     0.019 A 
ATOM     23  C   UNL d   1     -51.008  13.053  23.624  0.00  0.00     0.003 A 
ATOM     24  C   UNL d   1     -50.291  13.441  23.687  0.00  0.00     0.019 A 
ATOM     25  O   UNL d   1     -49.018  11.293  22.291  0.00  0.00    -0.267 OA
ENDBRANCH   1  18
TORSDOF 4
ENDMDL
MODEL 4
REMARK VINA RESULT:      -6.8      8.509      9.780
REMARK  4 active torsions:
REMARK  status: ('A' for Active; 'I' for Inactive)
REMARK    1  A    between atoms: N_3  and  S_1 
REMARK    2  A    between atoms: C_5  and  S_1 
REMARK    3  A    between atoms: C_2  and  C_9 
REMARK       I    between atoms: N_4  and  C_2 
REMARK    4  A    between atoms: C_11  and  N_3 
ROOT
ATOM      1  C   UNL d   1     -39.947  15.167  20.747  0.00  0.00     0.057 A 
ATOM      2  C   UNL d   1     -40.230  14.937  19.141  0.00  0.00     0.094 A 
ATOM      3  C   UNL d   1     -40.493  14.597  20.502  0.00  0.00     0.006 A 
ATOM      4  C   UNL d   1     -39.541  15.623  20.192  0.00  0.00     0.006 A 
ATOM      5  C   UNL d   1     -40.632  14.484  19.696  0.00  0.00     0.020 A 
ATOM      6  C   UNL d   1     -39.678  15.513  19.391  0.00  0.00     0.020 A 
ENDROOT
BRANCH   2   7
ATOM      7  N   UNL d   1     -40.366  14.827  18.340  0.00  0.00    -0.158 NA
BRANCH   7   8
ATOM      8  S   UNL d   1     -39.817  14.410  17.882  0.00  0.00     0.285 S 
ATOM      9  O   UNL d   1     -39.407  15.110  17.729  0.00  0.00    -0.198 OA
ATOM     10  O   UNL d   1     -40.230  13.712  18.037  0.00  0.00    -0.198 OA
BRANCH   8  11
ATOM     11  C   UNL d   1     -39.273  13.994  17.427  0.00  0.00     0.107 A 
ATOM     12  C   UNL d   1     -38.997  13.256  17.683  0.00  0.00     0.043 A 
ATOM     13  C   UNL d   1     -38.450  12.837  17.226  0.00  0.00     0.141 A 
ATOM     14  F   UNL d   1     -38.168  12.093  17.479  0.00  0.00    -0.204 F 
ATOM     15  C   UNL d   1     -38.179  13.155  16.515  0.00  0.00     0.030 A 
ATOM     16  C   UNL d   1     -38.453  13.887  16.262  0.00  0.00     0.003 A 
ATOM     17  C   UNL d   1     -39.000  14.310  16.715  0.00  0.00     0.013 A 
ENDBRANCH   8  11
ENDBRANCH   7   8
ENDBRANCH   2   7
BRANCH   1  18
ATOM     18  C   UNL d   1     -39.801  15.286  21.565  0.00  0.00     0.265 C 
ATOM     19  N   UNL d   1     -39.294  14.772  21.969  0.00  0.00    -0.272 N 
ATOM     20  C   UNL d   1     -39.149  14.888  22.774  0.00  0.00     0.083 A 
ATOM     21  C   UNL d   1     -38.934  14.148  21.575  0.00  0.00     0.083 A 
ATOM     22  C   UNL d   1     -38.644  14.377  23.179  0.00  0.00     0.019 A 
ATOM     23  C   UNL d   1     -38.293  13.760  22.775  0.00  0.00     0.003 A 
ATOM     24  C   UNL d   1     -38.435  13.643  21.978  0.00  0.00     0.019 A 
ATOM     25  O   UNL d   1     -40.166  15.920  21.962  0.00  0.00    -0.267 OA
ENDBRANCH   1  18
TORSDOF 4
ENDMDL
MODEL 5
REMARK VINA RESULT:      -6.7      8.359      9.602
REMARK  4 active torsions:
REMARK  status: ('A' for Active; 'I' for Inactive)
REMARK    1  A    between atoms: N_3  and  S_1 
REMARK    2  A    between atoms: C_5  and  S_1 
REMARK    3  A    between atoms: C_2  and  C_9 
REMARK       I    between atoms: N_4  and  C_2 
REMARK    4  A    between atoms: C_11  and  N_3 
ROOT
ATOM      1  C   UNL d   1     -40.087  14.944  17.975  0.00  0.00     0.057 A 
ATOM      2  C   UNL d   1     -40.515  15.182  19.547  0.00  0.00     0.094 A 
ATOM      3  C   UNL d   1     -40.565  14.391  18.361  0.00  0.00     0.006 A 
ATOM      4  C   UNL d   1     -39.823  15.617  18.372  0.00  0.00     0.006 A 
ATOM      5  C   UNL d   1     -40.777  14.513  19.149  0.00  0.00     0.020 A 
ATOM      6  C   UNL d   1     -40.032  15.741  19.155  0.00  0.00     0.020 A 
ENDROOT
BRANCH   2   7
ATOM      7  N   UNL d   1     -40.725  15.307  20.330  0.00  0.00    -0.158 NA
BRANCH   7   8
ATOM      8  S   UNL d   1     -40.213  15.072  20.936  0.00  0.00     0.285 S 
ATOM      9  O   UNL d   1     -39.789  15.776  20.857  0.00  0.00    -0.198 OA
ATOM     10  O   UNL d   1     -40.639  14.368  21.012  0.00  0.00    -0.198 OA
BRANCH   8  11
ATOM     11  C   UNL d   1     -39.704  14.835  21.539  0.00  0.00     0.107 A 
ATOM     12  C   UNL d   1     -39.455  14.047  21.584  0.00  0.00     0.043 A 
ATOM     13  C   UNL d   1     -38.944  13.809  22.190  0.00  0.00     0.141 A 
ATOM     14  F   UNL d   1     -38.689  13.017  22.241  0.00  0.00    -0.204 F 
ATOM     15  C   UNL d   1     -38.685  14.358  22.747  0.00  0.00     0.030 A 
ATOM     16  C   UNL d   1     -38.933  15.140  22.701  0.00  0.00     0.003 A 
ATOM     17  C   UNL d   1     -39.443  15.382  22.099  0.00  0.00     0.013 A 
ENDBRANCH   8  11
ENDBRANCH   7   8
ENDBRANCH   2   7
BRANCH   1  18
ATOM     18  C   UNL d   1     -39.868  14.825  17.173  0.00  0.00     0.265 C 
ATOM     19  N   UNL d   1     -39.220  14.343  16.994  0.00  0.00    -0.272 N 
ATOM     20  C   UNL d   1     -39.002  14.224  16.205  0.00  0.00     0.083 A 
ATOM     21  C   UNL d   1     -38.792  13.982  17.595  0.00  0.00     0.083 A 
ATOM     22  C   UNL d   1     -38.357  13.744  16.024  0.00  0.00     0.019 A 
ATOM     23  C   UNL d   1     -37.940  13.391  16.632  0.00  0.00     0.003 A 
ATOM     24  C   UNL d   1     -38.153  13.507  17.413  0.00  0.00     0.019 A 
ATOM     25  O   UNL d   1     -40.303  15.192  16.566  0.00  0.00    -0.267 OA
ENDBRANCH   1  18
TORSDOF 4
ENDMDL
MODEL 6
REMARK VINA RESULT:      -6.4      1.618      2.224
REMARK  4 active torsions:
REMARK  status: ('A' for Active; 'I' for Inactive)
REMARK    1  A    between atoms: N_3  and  S_1 
REMARK    2  A    between atoms: C_5  and  S_1 
REMARK    3  A    between atoms: C_2  and  C_9 
REMARK       I    between atoms: N_4  and  C_2 
REMARK    4  A    between atoms: C_11  and  N_3 
ROOT
ATOM      1  C   UNL d   1     -47.022  11.767  23.123  0.00  0.00     0.057 A 
ATOM      2  C   UNL d   1     -48.668  11.801  23.112  0.00  0.00     0.094 A 
ATOM      3  C   UNL d   1     -47.440  11.352  22.543  0.00  0.00     0.006 A 
ATOM      4  C   UNL d   1     -47.424  12.200  23.698  0.00  0.00     0.006 A 
ATOM      5  C   UNL d   1     -48.265  11.371  22.541  0.00  0.00     0.020 A 
ATOM      6  C   UNL d   1     -48.244  12.221  23.698  0.00  0.00     0.020 A 
ENDROOT
BRANCH   2   7
ATOM      7  N   UNL d   1     -49.488  11.822  23.112  0.00  0.00    -0.158 NA
BRANCH   7   8
ATOM      8  S   UNL d   1     -49.883  12.475  22.793  0.00  0.00     0.285 S 
ATOM      9  O   UNL d   1     -50.023  12.056  22.096  0.00  0.00    -0.198 OA
ATOM     10  O   UNL d   1     -49.742  12.892  23.492  0.00  0.00    -0.198 OA
BRANCH   8  11
ATOM     11  C   UNL d   1     -50.276  13.126  22.479  0.00  0.00     0.107 A 
ATOM     12  C   UNL d   1     -50.388  13.805  22.939  0.00  0.00     0.043 A 
ATOM     13  C   UNL d   1     -50.782  14.460  22.624  0.00  0.00     0.141 A 
ATOM     14  F   UNL d   1     -50.898  15.147  23.082  0.00  0.00    -0.204 F 
ATOM     15  C   UNL d   1     -51.064  14.435  21.849  0.00  0.00     0.030 A 
ATOM     16  C   UNL d   1     -50.953  13.760  21.393  0.00  0.00     0.003 A 
ATOM     17  C   UNL d   1     -50.560  13.104  21.704  0.00  0.00     0.013 A 
ENDBRANCH   8  11
ENDBRANCH   7   8
ENDBRANCH   2   7
BRANCH   1  18
ATOM     18  C   UNL d   1     -46.183  11.752  23.131  0.00  0.00     0.265 C 
ATOM     19  N   UNL d   1     -45.759  12.329  22.715  0.00  0.00    -0.272 N 
ATOM     20  C   UNL d   1     -44.933  12.314  22.721  0.00  0.00     0.083 A 
ATOM     21  C   UNL d   1     -46.155  12.914  22.297  0.00  0.00     0.083 A 
ATOM     22  C   UNL d   1     -44.508  12.888  22.308  0.00  0.00     0.019 A 
ATOM     23  C   UNL d   1     -44.915  13.465  21.896  0.00  0.00     0.003 A 
ATOM     24  C   UNL d   1     -45.733  13.481  21.888  0.00  0.00     0.019 A 
ATOM     25  O   UNL d   1     -45.784  11.157  23.555  0.00  0.00    -0.267 OA
ENDBRANCH   1  18
TORSDOF 4
ENDMDL
MODEL 7
REMARK VINA RESULT:      -6.4      2.217      4.863
REMARK  4 active torsions:
REMARK  status: ('A' for Active; 'I' for Inactive)
REMARK    1  A    between atoms: N_3  and  S_1 
REMARK    2  A    between atoms: C_5  and  S_1 
REMARK    3  A    between atoms: C_2  and  C_9 
REMARK       I    between atoms: N_4  and  C_2 
REMARK    4  A    between atoms: C_11  and  N_3 
ROOT
ATOM      1  C   UNL d   1     -48.964  12.061  22.970  0.00  0.00     0.057 A 
ATOM      2  C   UNL d   1     -47.391  12.039  23.456  0.00  0.00     0.094 A 
ATOM      3  C   UNL d   1     -48.673  12.665  23.454  0.00  0.00     0.006 A 
ATOM      4  C   UNL d   1     -48.472  11.446  22.728  0.00  0.00     0.006 A 
ATOM      5  C   UNL d   1     -47.884  12.651  23.696  0.00  0.00     0.020 A 
ATOM      6  C   UNL d   1     -47.687  11.430  22.967  0.00  0.00     0.020 A 
ENDROOT
BRANCH   2   7
ATOM      7  N   UNL d   1     -46.607  12.023  23.694  0.00  0.00    -0.158 NA
BRANCH   7   8
ATOM      8  S   UNL d   1     -46.014  12.284  23.180  0.00  0.00     0.285 S 
ATOM      9  O   UNL d   1     -46.220  13.069  23.335  0.00  0.00    -0.198 OA
ATOM     10  O   UNL d   1     -45.811  11.499  23.027  0.00  0.00    -0.198 OA
BRANCH   8  11
ATOM     11  C   UNL d   1     -45.424  12.542  22.667  0.00  0.00     0.107 A 
ATOM     12  C   UNL d   1     -44.737  12.092  22.567  0.00  0.00     0.043 A 
ATOM     13  C   UNL d   1     -44.143  12.349  22.053  0.00  0.00     0.141 A 
ATOM     14  F   UNL d   1     -43.448  11.900  21.948  0.00  0.00    -0.204 F 
ATOM     15  C   UNL d   1     -44.238  13.057  21.639  0.00  0.00     0.030 A 
ATOM     16  C   UNL d   1     -44.920  13.503  21.739  0.00  0.00     0.003 A 
ATOM     17  C   UNL d   1     -45.516  13.249  22.252  0.00  0.00     0.013 A 
ENDBRANCH   8  11
ENDBRANCH   7   8
ENDBRANCH   2   7
BRANCH   1  18
ATOM     18  C   UNL d   1     -49.766  12.070  22.722  0.00  0.00     0.265 C 
ATOM     19  N   UNL d   1     -50.019  12.641  22.178  0.00  0.00    -0.272 N 
ATOM     20  C   UNL d   1     -50.808  12.651  21.932  0.00  0.00     0.083 A 
ATOM     21  C   UNL d   1     -49.492  13.196  21.883  0.00  0.00     0.083 A 
ATOM     22  C   UNL d   1     -51.063  13.219  21.391  0.00  0.00     0.019 A 
ATOM     23  C   UNL d   1     -50.527  13.766  21.105  0.00  0.00     0.003 A 
ATOM     24  C   UNL d   1     -49.746  13.757  21.347  0.00  0.00     0.019 A 
ATOM     25  O   UNL d   1     -50.299  11.506  23.023  0.00  0.00    -0.267 OA
ENDBRANCH   1  18
TORSDOF 4
ENDMDL
MODEL 8
REMARK VINA RESULT:      -5.6      8.467      9.593
REMARK  4 active torsions:
REMARK  status: ('A' for Active; 'I' for Inactive)
REMARK    1  A    between atoms: N_3  and  S_1 
REMARK    2  A    between atoms: C_5  and  S_1 
REMARK    3  A    between atoms: C_2  and  C_9 
REMARK       I    between atoms: N_4  and  C_2 
REMARK    4  A    between atoms: C_11  and  N_3 
ROOT
ATOM      1  C   UNL d   1     -40.047  15.179  18.599  0.00  0.00     0.057 A 
ATOM      2  C   UNL d   1     -40.353  15.060  20.213  0.00  0.00     0.094 A 
ATOM      3  C   UNL d   1     -40.342  14.473  18.912  0.00  0.00     0.006 A 
ATOM      4  C   UNL d   1     -39.905  15.826  19.089  0.00  0.00     0.006 A 
ATOM      5  C   UNL d   1     -40.494  14.417  19.722  0.00  0.00     0.020 A 
ATOM      6  C   UNL d   1     -40.055  15.773  19.894  0.00  0.00     0.020 A 
ENDROOT
BRANCH   2   7
ATOM      7  N   UNL d   1     -40.503  15.007  21.017  0.00  0.00    -0.158 NA
BRANCH   7   8
ATOM      8  S   UNL d   1     -39.913  14.734  21.529  0.00  0.00     0.285 S 
ATOM      9  O   UNL d   1     -40.215  13.967  21.475  0.00  0.00    -0.198 OA
ATOM     10  O   UNL d   1     -39.613  15.502  21.580  0.00  0.00    -0.198 OA
BRANCH   8  11
ATOM     11  C   UNL d   1     -39.325  14.465  22.038  0.00  0.00     0.107 A 
ATOM     12  C   UNL d   1     -38.987  14.981  22.590  0.00  0.00     0.043 A 
ATOM     13  C   UNL d   1     -38.396  14.712  23.102  0.00  0.00     0.141 A 
ATOM     14  F   UNL d   1     -38.052  15.226  23.661  0.00  0.00    -0.204 F 
ATOM     15  C   UNL d   1     -38.145  13.927  23.061  0.00  0.00     0.030 A 
ATOM     16  C   UNL d   1     -38.480  13.416  22.513  0.00  0.00     0.003 A 
ATOM     17  C   UNL d   1     -39.070  13.680  22.000  0.00  0.00     0.013 A 
ENDBRANCH   8  11
ENDBRANCH   7   8
ENDBRANCH   2   7
BRANCH   1  18
ATOM     18  C   UNL d   1     -39.891  15.243  17.777  0.00  0.00     0.265 C 
ATOM     19  N   UNL d   1     -40.497  15.471  17.261  0.00  0.00    -0.272 N 
ATOM     20  C   UNL d   1     -40.345  15.534  16.451  0.00  0.00     0.083 A 
ATOM     21  C   UNL d   1     -41.248  15.635  17.550  0.00  0.00     0.083 A 
ATOM     22  C   UNL d   1     -40.947  15.761  15.936  0.00  0.00     0.019 A 
ATOM     23  C   UNL d   1     -41.690  15.922  16.237  0.00  0.00     0.003 A 
ATOM     24  C   UNL d   1     -41.843  15.860  17.038  0.00  0.00     0.019 A 
ATOM     25  O   UNL d   1     -39.129  15.075  17.486  0.00  0.00    -0.267 OA
ENDBRANCH   1  18
TORSDOF 4
ENDMDL
MODEL 9
REMARK VINA RESULT:      -5.1      8.650     10.452
REMARK  4 active torsions:
REMARK  status: ('A' for Active; 'I' for Inactive)
REMARK    1  A    between atoms: N_3  and  S_1 
REMARK    2  A    between atoms: C_5  and  S_1 
REMARK    3  A    between atoms: C_2  and  C_9 
REMARK       I    between atoms: N_4  and  C_2 
REMARK    4  A    between atoms: C_11  and  N_3 
ROOT
ATOM      1  C   UNL d   1     -38.755  14.704  16.746  0.00  0.00     0.057 A 
ATOM      2  C   UNL d   1     -39.151  14.132  18.238  0.00  0.00     0.094 A 
ATOM      3  C   UNL d   1     -39.549  14.626  16.961  0.00  0.00     0.006 A 
ATOM      4  C   UNL d   1     -38.157  14.496  17.275  0.00  0.00     0.006 A 
ATOM      5  C   UNL d   1     -39.745  14.339  17.710  0.00  0.00     0.020 A 
ATOM      6  C   UNL d   1     -38.348  14.211  18.019  0.00  0.00     0.020 A 
ENDROOT
BRANCH   2   7
ATOM      7  N   UNL d   1     -39.342  13.846  18.983  0.00  0.00    -0.158 NA
BRANCH   7   8
ATOM      8  S   UNL d   1     -39.610  14.367  19.567  0.00  0.00     0.285 S 
ATOM      9  O   UNL d   1     -38.850  14.679  19.645  0.00  0.00    -0.198 OA
ATOM     10  O   UNL d   1     -40.370  14.053  19.487  0.00  0.00    -0.198 OA
BRANCH   8  11
ATOM     11  C   UNL d   1     -39.880  14.884  20.148  0.00  0.00     0.107 A 
ATOM     12  C   UNL d   1     -40.693  15.005  20.250  0.00  0.00     0.043 A 
ATOM     13  C   UNL d   1     -40.965  15.524  20.834  0.00  0.00     0.141 A 
ATOM     14  F   UNL d   1     -41.782  15.650  20.942  0.00  0.00    -0.204 F 
ATOM     15  C   UNL d   1     -40.424  15.921  21.313  0.00  0.00     0.030 A 
ATOM     16  C   UNL d   1     -39.618  15.800  21.211  0.00  0.00     0.003 A 
ATOM     17  C   UNL d   1     -39.342  15.283  20.630  0.00  0.00     0.013 A 
ENDBRANCH   8  11
ENDBRANCH   7   8
ENDBRANCH   2   7
BRANCH   1  18
ATOM     18  C   UNL d   1     -38.551  14.995  15.986  0.00  0.00     0.265 C 
ATOM     19  N   UNL d   1     -38.346  14.463  15.385  0.00  0.00    -0.272 N 
ATOM     20  C   UNL d   1     -38.144  14.749  14.636  0.00  0.00     0.083 A 
ATOM     21  C   UNL d   1     -38.342  13.655  15.530  0.00  0.00     0.083 A 
ATOM     22  C   UNL d   1     -37.939  14.221  14.037  0.00  0.00     0.019 A 
ATOM     23  C   UNL d   1     -37.940  13.419  14.194  0.00  0.00     0.003 A 
ATOM     24  C   UNL d   1     -38.139  13.135  14.935  0.00  0.00     0.019 A 
ATOM     25  O   UNL d   1     -38.555  15.815  15.842  0.00  0.00    -0.267 OA
ENDBRANCH   1  18
TORSDOF 4
ENDMDL
