MODEL 1
REMARK VINA RESULT:      26.2      0.000      0.000
REMARK  3 active torsions:
REMARK  status: ('A' for Active; 'I' for Inactive)
REMARK    1  A    between atoms: C_6  and  N_1 
REMARK    2  A    between atoms: C_7  and  C_6 
REMARK    3  A    between atoms: C_8  and  C_7 
ROOT
ATOM      1  N   UNL d   1      14.390  13.483  -2.202  0.00  0.00    -0.305 N 
ATOM      2  C   UNL d   1      14.649  13.111  -1.289  0.00  0.00     0.064 A 
ATOM      3  C   UNL d   1      14.241  12.449  -1.552  0.00  0.00     0.018 A 
ATOM      4  C   UNL d   1      13.957  13.112  -2.796  0.00  0.00     0.064 A 
ATOM      5  C   UNL d   1      13.896  12.457  -2.310  0.00  0.00     0.018 A 
ATOM      6  C   UNL d   1      14.991  13.103  -0.538  0.00  0.00     0.018 A 
ATOM      7  C   UNL d   1      14.170  11.787  -1.085  0.00  0.00     0.002 A 
ATOM      8  C   UNL d   1      13.611  13.120  -3.554  0.00  0.00     0.018 A 
ATOM      9  C   UNL d   1      13.487  11.791  -2.573  0.00  0.00     0.002 A 
ATOM     10  C   UNL d   1      14.516  11.779  -0.323  0.00  0.00     0.000 A 
ATOM     11  C   UNL d   1      14.923  12.433  -0.055  0.00  0.00     0.002 A 
ATOM     12  C   UNL d   1      13.138  11.779  -3.320  0.00  0.00     0.000 A 
ATOM     13  C   UNL d   1      13.202  12.438  -3.802  0.00  0.00     0.002 A 
ENDROOT
BRANCH   1  14
ATOM     14  C   UNL d   1      14.664  14.255  -2.333  0.00  0.00     0.086 C 
BRANCH  14  15
ATOM     15  C   UNL d   1      14.356  14.884  -1.872  0.00  0.00     0.089 C 
BRANCH  15  16
ATOM     16  C   UNL d   1      14.640  15.654  -1.994  0.00  0.00     0.213 C 
ATOM     17  O   UNL d   1      14.882  16.099  -1.352  0.00  0.00    -0.644 OA
ATOM     18  O   UNL d   1      14.885  16.377  -2.326  0.00  0.00    -0.644 OA
ENDBRANCH  15  16
ENDBRANCH  14  15
ENDBRANCH   1  14
TORSDOF 3
ENDMDL
MODEL 2
REMARK VINA RESULT:      26.8      1.683      3.390
REMARK  3 active torsions:
REMARK  status: ('A' for Active; 'I' for Inactive)
REMARK    1  A    between atoms: C_6  and  N_1 
REMARK    2  A    between atoms: C_7  and  C_6 
REMARK    3  A    between atoms: C_8  and  C_7 
ROOT
ATOM      1  N   UNL d   1      13.687  13.063  -2.846  0.00  0.00    -0.305 N 
ATOM      2  C   UNL d   1      13.303  12.467  -3.580  0.00  0.00     0.064 A 
ATOM      3  C   UNL d   1      13.362  13.151  -4.030  0.00  0.00     0.018 A 
ATOM      4  C   UNL d   1      13.896  13.857  -2.897  0.00  0.00     0.064 A 
ATOM      5  C   UNL d   1      13.661  13.846  -3.680  0.00  0.00     0.018 A 
ATOM      6  C   UNL d   1      13.007  11.780  -3.926  0.00  0.00     0.018 A 
ATOM      7  C   UNL d   1      13.135  13.161  -4.811  0.00  0.00     0.002 A 
ATOM      8  C   UNL d   1      14.195  14.552  -2.547  0.00  0.00     0.018 A 
ATOM      9  C   UNL d   1      13.720  14.531  -4.134  0.00  0.00     0.002 A 
ATOM     10  C   UNL d   1      12.834  12.463  -5.163  0.00  0.00     0.000 A 
ATOM     11  C   UNL d   1      12.772  11.780  -4.721  0.00  0.00     0.002 A 
ATOM     12  C   UNL d   1      14.014  15.229  -3.806  0.00  0.00     0.000 A 
ATOM     13  C   UNL d   1      14.247  15.235  -3.021  0.00  0.00     0.002 A 
ENDROOT
BRANCH   1  14
ATOM     14  C   UNL d   1      13.790  12.670  -2.123  0.00  0.00     0.086 C 
BRANCH  14  15
ATOM     15  C   UNL d   1      14.542  12.351  -1.933  0.00  0.00     0.089 C 
BRANCH  15  16
ATOM     16  C   UNL d   1      14.694  12.108  -1.153  0.00  0.00     0.213 C 
ATOM     17  O   UNL d   1      15.417  12.283  -0.812  0.00  0.00    -0.644 OA
ATOM     18  O   UNL d   1      14.644  11.785  -0.388  0.00  0.00    -0.644 OA
ENDBRANCH  15  16
ENDBRANCH  14  15
ENDBRANCH   1  14
TORSDOF 3
ENDMDL
MODEL 3
REMARK VINA RESULT:      28.2      9.039      9.836
REMARK  3 active torsions:
REMARK  status: ('A' for Active; 'I' for Inactive)
REMARK    1  A    between atoms: C_6  and  N_1 
REMARK    2  A    between atoms: C_7  and  C_6 
REMARK    3  A    between atoms: C_8  and  C_7 
ROOT
ATOM      1  N   UNL d   1      23.675  12.261  -2.431  0.00  0.00    -0.305 N 
ATOM      2  C   UNL d   1      22.793  12.759  -2.545  0.00  0.00     0.064 A 
ATOM      3  C   UNL d   1      22.842  12.832  -1.728  0.00  0.00     0.018 A 
ATOM      4  C   UNL d   1      24.085  12.109  -1.734  0.00  0.00     0.064 A 
ATOM      5  C   UNL d   1      23.494  12.502  -1.328  0.00  0.00     0.018 A 
ATOM      6  C   UNL d   1      22.147  13.085  -2.941  0.00  0.00     0.018 A 
ATOM      7  C   UNL d   1      22.265  13.219  -1.306  0.00  0.00     0.002 A 
ATOM      8  C   UNL d   1      24.737  11.780  -1.333  0.00  0.00     0.018 A 
ATOM      9  C   UNL d   1      23.541  12.576  -0.508  0.00  0.00     0.002 A 
ATOM     10  C   UNL d   1      21.610  13.550  -1.709  0.00  0.00     0.000 A 
ATOM     11  C   UNL d   1      21.554  13.482  -2.519  0.00  0.00     0.002 A 
ATOM     12  C   UNL d   1      24.179  12.257  -0.093  0.00  0.00     0.000 A 
ATOM     13  C   UNL d   1      24.768  11.864  -0.505  0.00  0.00     0.002 A 
ENDROOT
BRANCH   1  14
ATOM     14  C   UNL d   1      23.993  11.987  -3.147  0.00  0.00     0.086 C 
BRANCH  14  15
ATOM     15  C   UNL d   1      24.639  12.397  -3.492  0.00  0.00     0.089 C 
BRANCH  15  16
ATOM     16  C   UNL d   1      24.677  12.473  -4.318  0.00  0.00     0.213 C 
ATOM     17  O   UNL d   1      24.768  11.803  -4.779  0.00  0.00    -0.644 OA
ATOM     18  O   UNL d   1      24.691  12.761  -5.098  0.00  0.00    -0.644 OA
ENDBRANCH  15  16
ENDBRANCH  14  15
ENDBRANCH   1  14
TORSDOF 3
ENDMDL
