MODEL 1
REMARK VINA RESULT:      -7.0      0.000      0.000
REMARK  3 active torsions:
REMARK  status: ('A' for Active; 'I' for Inactive)
REMARK    1  A    between atoms: N_3  and  C_1 
REMARK       I    between atoms: C_5  and  N_3 
REMARK    2  A    between atoms: C_8  and  C_5 
REMARK       I    between atoms: C_11  and  N_12 
REMARK    3  A    between atoms: N_12  and  C_13 
ROOT
ATOM      1  C   UNL d   1     -41.184-123.107 -51.460  0.00  0.00     0.197 A 
ATOM      2  N   UNL d   1     -41.240-123.743 -51.978  0.00  0.00    -0.221 NA
ATOM      3  S   UNL d   1     -41.149-122.422 -51.899  0.00  0.00    -0.047 SA
ATOM      4  C   UNL d   1     -41.183-122.631 -52.687  0.00  0.00     0.051 A 
ATOM      5  C   UNL d   1     -41.240-123.455 -52.736  0.00  0.00     0.090 A 
ATOM      6  C   UNL d   1     -41.170-122.163 -53.380  0.00  0.00     0.027 A 
ATOM      7  C   UNL d   1     -41.213-122.528 -54.116  0.00  0.00     0.085 A 
ATOM      8  C   UNL d   1     -41.283-123.812 -53.478  0.00  0.00     0.021 A 
ATOM      9  C   UNL d   1     -41.270-123.368 -54.166  0.00  0.00     0.021 A 
ENDROOT
BRANCH   1  10
ATOM     10  N   UNL d   1     -41.165-123.142 -50.633  0.00  0.00    -0.182 NA
ATOM     11  C   UNL d   1     -41.879-123.191 -50.230  0.00  0.00     0.287 C 
ATOM     12  O   UNL d   1     -42.600-123.203 -50.672  0.00  0.00    -0.265 OA
BRANCH  11  13
ATOM     13  C   UNL d   1     -41.894-123.227 -49.422  0.00  0.00     0.087 A 
ATOM     14  S   UNL d   1     -41.310-123.422 -48.863  0.00  0.00    -0.082 SA
ATOM     15  C   UNL d   1     -41.624-123.369 -48.122  0.00  0.00     0.036 A 
ATOM     16  C   UNL d   1     -42.402-123.143 -48.184  0.00  0.00     0.008 A 
ATOM     17  C   UNL d   1     -42.582-123.050 -49.007  0.00  0.00     0.012 A 
ENDBRANCH  11  13
ENDBRANCH   1  10
BRANCH   7  18
ATOM     18  N   UNL d   1     -41.198-122.043 -54.804  0.00  0.00    -0.208 NA
ATOM     19  C   UNL d   1     -41.901-121.933 -55.249  0.00  0.00     0.279 C 
ATOM     20  O   UNL d   1     -41.888-121.454 -55.930  0.00  0.00    -0.265 OA
ATOM     21  C   UNL d   1     -42.603-122.301 -55.009  0.00  0.00     0.068 C 
ENDBRANCH   7  18
TORSDOF 3
ENDMDL
MODEL 2
REMARK VINA RESULT:      -5.8      1.397      4.880
REMARK  3 active torsions:
REMARK  status: ('A' for Active; 'I' for Inactive)
REMARK    1  A    between atoms: N_3  and  C_1 
REMARK       I    between atoms: C_5  and  N_3 
REMARK    2  A    between atoms: C_8  and  C_5 
REMARK       I    between atoms: C_11  and  N_12 
REMARK    3  A    between atoms: N_12  and  C_13 
ROOT
ATOM      1  C   UNL d   1     -41.400-122.477 -52.243  0.00  0.00     0.197 A 
ATOM      2  N   UNL d   1     -41.165-123.216 -51.975  0.00  0.00    -0.221 NA
ATOM      3  S   UNL d   1     -41.644-122.038 -51.602  0.00  0.00    -0.047 SA
ATOM      4  C   UNL d   1     -41.560-122.503 -50.938  0.00  0.00     0.051 A 
ATOM      5  C   UNL d   1     -41.262-123.239 -51.171  0.00  0.00     0.090 A 
ATOM      6  C   UNL d   1     -41.723-122.345 -50.132  0.00  0.00     0.027 A 
ATOM      7  C   UNL d   1     -41.584-122.928 -49.569  0.00  0.00     0.085 A 
ATOM      8  C   UNL d   1     -41.125-123.817 -50.599  0.00  0.00     0.021 A 
ATOM      9  C   UNL d   1     -41.279-123.678 -49.807  0.00  0.00     0.021 A 
ENDROOT
BRANCH   1  10
ATOM     10  N   UNL d   1     -41.396-122.210 -53.027  0.00  0.00    -0.182 NA
ATOM     11  C   UNL d   1     -41.753-122.678 -53.600  0.00  0.00     0.287 C 
ATOM     12  O   UNL d   1     -42.109-123.409 -53.367  0.00  0.00    -0.265 OA
BRANCH  11  13
ATOM     13  C   UNL d   1     -41.765-122.445 -54.374  0.00  0.00     0.087 A 
ATOM     14  S   UNL d   1     -41.244-122.587 -55.006  0.00  0.00    -0.082 SA
ATOM     15  C   UNL d   1     -41.522-122.220 -55.668  0.00  0.00     0.036 A 
ATOM     16  C   UNL d   1     -42.216-121.840 -55.482  0.00  0.00     0.008 A 
ATOM     17  C   UNL d   1     -42.377-121.977 -54.662  0.00  0.00     0.012 A 
ENDBRANCH  11  13
ENDBRANCH   1  10
BRANCH   7  18
ATOM     18  N   UNL d   1     -41.753-122.753 -48.763  0.00  0.00    -0.208 NA
ATOM     19  C   UNL d   1     -42.437-123.079 -48.403  0.00  0.00     0.279 C 
ATOM     20  O   UNL d   1     -42.606-122.907 -47.606  0.00  0.00    -0.265 OA
ATOM     21  C   UNL d   1     -42.940-123.570 -48.841  0.00  0.00     0.068 C 
ENDBRANCH   7  18
TORSDOF 3
ENDMDL
