MODEL 1
REMARK VINA RESULT:      -3.0      0.000      0.000
REMARK  6 active torsions:
REMARK  status: ('A' for Active; 'I' for Inactive)
REMARK    1  A    between atoms: N_7  and  C_1 
REMARK    2  A    between atoms: C_10  and  C_3 
REMARK    3  A    between atoms: C_17  and  C_5 
REMARK    4  A    between atoms: C_12  and  N_7 
REMARK    5  A    between atoms: C_8  and  C_9 
REMARK    6  A    between atoms: C_13  and  C_17 
ROOT
ATOM      1  C   UNL d   1      58.558  -0.528  29.696  0.00  0.00     0.165 A 
ATOM      2  N   UNL d   1      57.905  -0.606  30.206  0.00  0.00    -0.208 NA
ATOM      3  C   UNL d   1      57.915  -0.255  30.956  0.00  0.00     0.164 A 
ATOM      4  N   UNL d   1      58.578   0.176  31.201  0.00  0.00    -0.227 NA
ATOM      5  C   UNL d   1      59.217  -0.096  29.947  0.00  0.00     0.054 A 
ATOM      6  C   UNL d   1      59.219   0.249  30.691  0.00  0.00     0.086 A 
ATOM      7  C   UNL d   1      59.884   0.682  30.936  0.00  0.00     0.021 C 
ENDROOT
BRANCH   1   8
ATOM      8  N   UNL d   1      58.545  -0.878  28.949  0.00  0.00    -0.227 NA
BRANCH   8   9
ATOM      9  C   UNL d   1      58.608  -1.708  28.876  0.00  0.00     0.083 A 
ATOM     10  C   UNL d   1      57.969  -2.137  28.622  0.00  0.00     0.019 A 
ATOM     11  C   UNL d   1      58.031  -2.963  28.549  0.00  0.00     0.008 A 
ATOM     12  C   UNL d   1      58.743  -3.337  28.735  0.00  0.00     0.065 A 
ATOM     13  C   UNL d   1      59.386  -2.900  28.991  0.00  0.00     0.008 A 
ATOM     14  C   UNL d   1      59.324  -2.078  29.064  0.00  0.00     0.019 A 
BRANCH  12  15
ATOM     15  C   UNL d   1      58.806  -4.163  28.662  0.00  0.00     0.211 C 
ATOM     16  O   UNL d   1      58.136  -4.614  28.496  0.00  0.00    -0.644 OA
ATOM     17  O   UNL d   1      59.533  -4.532  28.755  0.00  0.00    -0.644 OA
ENDBRANCH  12  15
ENDBRANCH   8   9
ENDBRANCH   1   8
BRANCH   5  18
ATOM     18  C   UNL d   1      59.864  -0.014  29.449  0.00  0.00     0.005 C 
BRANCH  18  19
ATOM     19  C   UNL d   1      60.307   0.672  29.437  0.00  0.00     0.000 C 
ATOM     20  C   UNL d   1      61.121   0.663  29.333  0.00  0.00     0.000 C 
ENDBRANCH  18  19
ENDBRANCH   5  18
BRANCH   3  21
ATOM     21  C   UNL d   1      57.266  -0.334  31.459  0.00  0.00     0.036 A 
ATOM     22  C   UNL d   1      56.992  -1.082  31.662  0.00  0.00     0.003 A 
ATOM     23  C   UNL d   1      56.344  -1.168  32.163  0.00  0.00     0.000 A 
ATOM     24  C   UNL d   1      55.964  -0.487  32.468  0.00  0.00     0.000 A 
ATOM     25  C   UNL d   1      56.238   0.261  32.265  0.00  0.00     0.000 A 
ATOM     26  C   UNL d   1      56.896   0.336  31.756  0.00  0.00     0.003 A 
ENDBRANCH   3  21
TORSDOF 6
ENDMDL
MODEL 2
REMARK VINA RESULT:      -1.4      0.847      1.175
REMARK  6 active torsions:
REMARK  status: ('A' for Active; 'I' for Inactive)
REMARK    1  A    between atoms: N_7  and  C_1 
REMARK    2  A    between atoms: C_10  and  C_3 
REMARK    3  A    between atoms: C_17  and  C_5 
REMARK    4  A    between atoms: C_12  and  N_7 
REMARK    5  A    between atoms: C_8  and  C_9 
REMARK    6  A    between atoms: C_13  and  C_17 
ROOT
ATOM      1  C   UNL d   1      58.150  -0.081  30.647  0.00  0.00     0.165 A 
ATOM      2  N   UNL d   1      57.443  -0.261  31.047  0.00  0.00    -0.208 NA
ATOM      3  C   UNL d   1      57.379  -0.132  31.863  0.00  0.00     0.164 A 
ATOM      4  N   UNL d   1      58.021   0.178  32.283  0.00  0.00    -0.227 NA
ATOM      5  C   UNL d   1      58.788   0.228  31.073  0.00  0.00     0.054 A 
ATOM      6  C   UNL d   1      58.716   0.353  31.880  0.00  0.00     0.086 A 
ATOM      7  C   UNL d   1      59.361   0.664  32.302  0.00  0.00     0.021 C 
ENDROOT
BRANCH   1   8
ATOM      8  N   UNL d   1      58.212  -0.210  29.834  0.00  0.00    -0.227 NA
BRANCH   8   9
ATOM      9  C   UNL d   1      58.315  -0.985  29.541  0.00  0.00     0.083 A 
ATOM     10  C   UNL d   1      58.178  -1.620  30.028  0.00  0.00     0.019 A 
ATOM     11  C   UNL d   1      58.280  -2.391  29.736  0.00  0.00     0.008 A 
ATOM     12  C   UNL d   1      58.520  -2.504  28.953  0.00  0.00     0.065 A 
ATOM     13  C   UNL d   1      58.657  -1.860  28.466  0.00  0.00     0.008 A 
ATOM     14  C   UNL d   1      58.555  -1.093  28.756  0.00  0.00     0.019 A 
BRANCH  12  15
ATOM     15  C   UNL d   1      58.622  -3.275  28.661  0.00  0.00     0.211 C 
ATOM     16  O   UNL d   1      57.964  -3.738  28.480  0.00  0.00    -0.644 OA
ATOM     17  O   UNL d   1      59.377  -3.579  28.553  0.00  0.00    -0.644 OA
ENDBRANCH  12  15
ENDBRANCH   8   9
ENDBRANCH   1   8
BRANCH   5  18
ATOM     18  C   UNL d   1      59.488   0.408  30.685  0.00  0.00     0.005 C 
BRANCH  18  19
ATOM     19  C   UNL d   1      60.189   0.500  31.095  0.00  0.00     0.000 C 
ATOM     20  C   UNL d   1      60.920   0.401  30.734  0.00  0.00     0.000 C 
ENDBRANCH  18  19
ENDBRANCH   5  18
BRANCH   3  21
ATOM     21  C   UNL d   1      56.677  -0.311  32.256  0.00  0.00     0.036 A 
ATOM     22  C   UNL d   1      56.507  -1.089  32.461  0.00  0.00     0.003 A 
ATOM     23  C   UNL d   1      55.807  -1.275  32.854  0.00  0.00     0.000 A 
ATOM     24  C   UNL d   1      55.266  -0.665  33.044  0.00  0.00     0.000 A 
ATOM     25  C   UNL d   1      55.435   0.113  32.839  0.00  0.00     0.000 A 
ATOM     26  C   UNL d   1      56.148   0.289  32.441  0.00  0.00     0.003 A 
ENDBRANCH   3  21
TORSDOF 6
ENDMDL
