MODEL 1
REMARK VINA RESULT:      48.7      0.000      0.000
REMARK  5 active torsions:
REMARK  status: ('A' for Active; 'I' for Inactive)
REMARK    1  A    between atoms: C_10  and  N_3 
REMARK    2  A    between atoms: C_12  and  N_6 
REMARK    3  A    between atoms: C_11  and  C_10 
REMARK    4  A    between atoms: O_18  and  C_11 
REMARK    5  A    between atoms: C_23  and  O_18 
ROOT
ATOM      1  C   UNL d   1     -50.695  25.432  33.448  0.00  0.00     0.172 A 
ATOM      2  C   UNL d   1     -49.870  25.451  33.424  0.00  0.00     0.113 A 
ATOM      3  N   UNL d   1     -49.898  26.870  33.570  0.00  0.00    -0.252 N 
ATOM      4  C   UNL d   1     -49.472  26.165  33.484  0.00  0.00     0.271 A 
ATOM      5  N   UNL d   1     -51.121  26.128  33.533  0.00  0.00    -0.206 NA
ATOM      6  N   UNL d   1     -50.927  24.639  33.374  0.00  0.00    -0.212 N 
ATOM      7  N   UNL d   1     -50.249  24.186  33.306  0.00  0.00    -0.162 NA
ATOM      8  C   UNL d   1     -50.722  26.851  33.595  0.00  0.00     0.187 A 
ATOM      9  C   UNL d   1     -49.608  24.669  33.335  0.00  0.00     0.129 A 
ATOM     10  O   UNL d   1     -48.648  26.184  33.460  0.00  0.00    -0.266 OA
ENDROOT
BRANCH   3  11
ATOM     11  C   UNL d   1     -49.500  27.601  33.633  0.00  0.00     0.132 C 
ATOM     12  C   UNL d   1     -48.684  27.612  33.752  0.00  0.00     0.025 C 
BRANCH  11  13
ATOM     13  C   UNL d   1     -49.926  28.313  33.575  0.00  0.00     0.317 C 
ATOM     14  O   UNL d   1     -50.726  28.295  33.408  0.00  0.00    -0.257 OA
BRANCH  13  15
ATOM     15  O   UNL d   1     -49.529  29.027  33.687  0.00  0.00    -0.270 OA
BRANCH  15  16
ATOM     16  C   UNL d   1     -49.192  29.188  34.430  0.00  0.00     0.126 C 
ATOM     17  C   UNL d   1     -48.763  29.878  34.526  0.00  0.00     0.029 C 
ENDBRANCH  15  16
ENDBRANCH  13  15
ENDBRANCH  11  13
ENDBRANCH   3  11
BRANCH   6  18
ATOM     18  C   UNL d   1     -51.679  24.326  33.366  0.00  0.00     0.085 A 
ATOM     19  C   UNL d   1     -52.335  24.827  33.399  0.00  0.00     0.020 A 
ATOM     20  C   UNL d   1     -53.093  24.508  33.391  0.00  0.00     0.013 A 
ATOM     21  C   UNL d   1     -53.213  23.706  33.350  0.00  0.00     0.058 A 
ATOM     22  C   UNL d   1     -52.545  23.194  33.317  0.00  0.00     0.013 A 
ATOM     23 CL   UNL d   1     -53.994  23.400  33.343  0.00  0.00    -0.082 Cl
ATOM     24  C   UNL d   1     -51.788  23.501  33.324  0.00  0.00     0.020 A 
ENDBRANCH   6  18
TORSDOF 5
ENDMDL
