MODEL 1
REMARK VINA RESULT:      -5.9      0.000      0.000
REMARK  7 active torsions:
REMARK  status: ('A' for Active; 'I' for Inactive)
REMARK       I    between atoms: N_2  and  C_1 
REMARK    1  A    between atoms: C_5  and  N_2 
REMARK    2  A    between atoms: N_4  and  C_9 
REMARK    3  A    between atoms: C_16  and  N_4 
REMARK    4  A    between atoms: O_6  and  C_8 
REMARK    5  A    between atoms: C_10  and  O_6 
REMARK    6  A    between atoms: C_7  and  C_10 
REMARK    7  A    between atoms: C_9  and  C_7 
ROOT
ATOM      1  C   UNL d   1     -45.754  12.397  23.089  0.00  0.00     0.085 A 
ATOM      2  C   UNL d   1     -46.701  13.712  22.795  0.00  0.00     0.100 A 
ATOM      3  C   UNL d   1     -45.706  12.784  22.365  0.00  0.00     0.021 A 
ATOM      4  C   UNL d   1     -46.274  12.661  23.673  0.00  0.00     0.021 A 
ATOM      5  C   UNL d   1     -46.749  13.321  23.526  0.00  0.00     0.026 A 
ATOM      6  C   UNL d   1     -46.178  13.440  22.216  0.00  0.00     0.026 A 
ENDROOT
BRANCH   2   7
ATOM      7  O   UNL d   1     -47.173  14.368  22.646  0.00  0.00    -0.302 OA
BRANCH   7   8
ATOM      8  C   UNL d   1     -47.994  14.296  22.651  0.00  0.00     0.166 C 
BRANCH   8   9
ATOM      9  C   UNL d   1     -48.458  14.956  22.478  0.00  0.00     0.239 C 
ATOM     10  O   UNL d   1     -48.111  15.605  22.107  0.00  0.00    -0.283 OA
BRANCH   9  11
ATOM     11  C   UNL d   1     -49.255  14.971  22.672  0.00  0.00     0.143 C 
BRANCH  11  12
ATOM     12  N   UNL d   1     -49.827  14.875  22.084  0.00  0.00    -0.241 NA
BRANCH  12  13
ATOM     13  C   UNL d   1     -50.605  14.735  22.290  0.00  0.00     0.082 C 
ATOM     14  C   UNL d   1     -51.053  14.195  21.847  0.00  0.00     0.021 C 
ATOM     15  C   UNL d   1     -50.941  15.128  22.932  0.00  0.00     0.021 C 
ENDBRANCH  12  13
ENDBRANCH  11  12
ENDBRANCH   9  11
ENDBRANCH   8   9
ENDBRANCH   7   8
ENDBRANCH   2   7
BRANCH   1  16
ATOM     16  N   UNL d   1     -45.282  11.740  23.238  0.00  0.00    -0.208 NA
ATOM     17  C   UNL d   1     -45.625  11.031  23.504  0.00  0.00     0.279 C 
ATOM     18  O   UNL d   1     -46.434  10.992  23.616  0.00  0.00    -0.265 OA
ATOM     19  C   UNL d   1     -45.142  10.379  23.650  0.00  0.00     0.068 C 
ENDBRANCH   1  16
TORSDOF 7
ENDMDL
MODEL 2
REMARK VINA RESULT:      -5.7      1.553      2.015
REMARK  7 active torsions:
REMARK  status: ('A' for Active; 'I' for Inactive)
REMARK       I    between atoms: N_2  and  C_1 
REMARK    1  A    between atoms: C_5  and  N_2 
REMARK    2  A    between atoms: N_4  and  C_9 
REMARK    3  A    between atoms: C_16  and  N_4 
REMARK    4  A    between atoms: O_6  and  C_8 
REMARK    5  A    between atoms: C_10  and  O_6 
REMARK    6  A    between atoms: C_7  and  C_10 
REMARK    7  A    between atoms: C_9  and  C_7 
ROOT
ATOM      1  C   UNL d   1     -45.750  13.059  22.798  0.00  0.00     0.085 A 
ATOM      2  C   UNL d   1     -47.322  13.001  23.287  0.00  0.00     0.100 A 
ATOM      3  C   UNL d   1     -46.208  13.743  22.794  0.00  0.00     0.021 A 
ATOM      4  C   UNL d   1     -46.073  12.340  23.046  0.00  0.00     0.021 A 
ATOM      5  C   UNL d   1     -46.861  12.310  23.291  0.00  0.00     0.026 A 
ATOM      6  C   UNL d   1     -46.992  13.716  23.038  0.00  0.00     0.026 A 
ENDROOT
BRANCH   2   7
ATOM      7  O   UNL d   1     -48.107  12.974  23.530  0.00  0.00    -0.302 OA
BRANCH   7   8
ATOM      8  C   UNL d   1     -48.706  12.840  22.980  0.00  0.00     0.166 C 
BRANCH   8   9
ATOM      9  C   UNL d   1     -49.493  12.906  23.218  0.00  0.00     0.239 C 
ATOM     10  O   UNL d   1     -49.828  12.304  23.671  0.00  0.00    -0.283 OA
BRANCH   9  11
ATOM     11  C   UNL d   1     -49.941  13.562  23.009  0.00  0.00     0.143 C 
BRANCH  11  12
ATOM     12  N   UNL d   1     -50.563  13.484  22.471  0.00  0.00    -0.241 NA
BRANCH  12  13
ATOM     13  C   UNL d   1     -50.883  14.148  22.118  0.00  0.00     0.082 C 
ATOM     14  C   UNL d   1     -51.041  14.818  22.580  0.00  0.00     0.021 C 
ATOM     15  C   UNL d   1     -51.047  14.149  21.310  0.00  0.00     0.021 C 
ENDBRANCH  12  13
ENDBRANCH  11  12
ENDBRANCH   9  11
ENDBRANCH   8   9
ENDBRANCH   7   8
ENDBRANCH   2   7
BRANCH   1  16
ATOM     16  N   UNL d   1     -44.966  13.086  22.555  0.00  0.00    -0.208 NA
ATOM     17  C   UNL d   1     -44.771  12.943  21.758  0.00  0.00     0.279 C 
ATOM     18  O   UNL d   1     -45.365  12.777  21.222  0.00  0.00    -0.265 OA
ATOM     19  C   UNL d   1     -43.980  12.973  21.526  0.00  0.00     0.068 C 
ENDBRANCH   1  16
TORSDOF 7
ENDMDL
MODEL 3
REMARK VINA RESULT:      -5.5      1.524      5.075
REMARK  7 active torsions:
REMARK  status: ('A' for Active; 'I' for Inactive)
REMARK       I    between atoms: N_2  and  C_1 
REMARK    1  A    between atoms: C_5  and  N_2 
REMARK    2  A    between atoms: N_4  and  C_9 
REMARK    3  A    between atoms: C_16  and  N_4 
REMARK    4  A    between atoms: O_6  and  C_8 
REMARK    5  A    between atoms: C_10  and  O_6 
REMARK    6  A    between atoms: C_7  and  C_10 
REMARK    7  A    between atoms: C_9  and  C_7 
ROOT
ATOM      1  C   UNL d   1     -49.426  13.100  22.711  0.00  0.00     0.085 A 
ATOM      2  C   UNL d   1     -47.918  12.795  23.300  0.00  0.00     0.100 A 
ATOM      3  C   UNL d   1     -49.204  12.329  22.894  0.00  0.00     0.021 A 
ATOM      4  C   UNL d   1     -48.898  13.726  22.820  0.00  0.00     0.021 A 
ATOM      5  C   UNL d   1     -48.142  13.574  23.115  0.00  0.00     0.026 A 
ATOM      6  C   UNL d   1     -48.452  12.175  23.187  0.00  0.00     0.026 A 
ENDROOT
BRANCH   2   7
ATOM      7  O   UNL d   1     -47.166  12.641  23.593  0.00  0.00    -0.302 OA
BRANCH   7   8
ATOM      8  C   UNL d   1     -46.743  11.987  23.324  0.00  0.00     0.166 C 
BRANCH   8   9
ATOM      9  C   UNL d   1     -45.930  11.950  23.458  0.00  0.00     0.239 C 
ATOM     10  O   UNL d   1     -45.482  12.639  23.407  0.00  0.00    -0.283 OA
BRANCH   9  11
ATOM     11  C   UNL d   1     -45.567  11.236  23.640  0.00  0.00     0.143 C 
BRANCH  11  12
ATOM     12  N   UNL d   1     -44.824  11.057  23.326  0.00  0.00    -0.241 NA
BRANCH  12  13
ATOM     13  C   UNL d   1     -44.442  10.369  23.548  0.00  0.00     0.082 C 
ATOM     14  C   UNL d   1     -44.888   9.686  23.698  0.00  0.00     0.021 C 
ATOM     15  C   UNL d   1     -43.622  10.355  23.620  0.00  0.00     0.021 C 
ENDBRANCH  12  13
ENDBRANCH  11  12
ENDBRANCH   9  11
ENDBRANCH   8   9
ENDBRANCH   7   8
ENDBRANCH   2   7
BRANCH   1  16
ATOM     16  N   UNL d   1     -50.178  13.254  22.418  0.00  0.00    -0.208 NA
ATOM     17  C   UNL d   1     -50.303  13.306  21.597  0.00  0.00     0.279 C 
ATOM     18  O   UNL d   1     -49.673  13.203  21.086  0.00  0.00    -0.265 OA
ATOM     19  C   UNL d   1     -51.062  13.461  21.314  0.00  0.00     0.068 C 
ENDBRANCH   1  16
TORSDOF 7
ENDMDL
MODEL 4
REMARK VINA RESULT:      -5.4      1.510      4.938
REMARK  7 active torsions:
REMARK  status: ('A' for Active; 'I' for Inactive)
REMARK       I    between atoms: N_2  and  C_1 
REMARK    1  A    between atoms: C_5  and  N_2 
REMARK    2  A    between atoms: N_4  and  C_9 
REMARK    3  A    between atoms: C_16  and  N_4 
REMARK    4  A    between atoms: O_6  and  C_8 
REMARK    5  A    between atoms: C_10  and  O_6 
REMARK    6  A    between atoms: C_7  and  C_10 
REMARK    7  A    between atoms: C_9  and  C_7 
ROOT
ATOM      1  C   UNL d   1     -49.153  13.950  22.706  0.00  0.00     0.085 A 
ATOM      2  C   UNL d   1     -47.613  13.452  23.007  0.00  0.00     0.100 A 
ATOM      3  C   UNL d   1     -49.013  13.179  22.958  0.00  0.00     0.021 A 
ATOM      4  C   UNL d   1     -48.528  14.479  22.603  0.00  0.00     0.021 A 
ATOM      5  C   UNL d   1     -47.755  14.230  22.753  0.00  0.00     0.026 A 
ATOM      6  C   UNL d   1     -48.244  12.929  23.108  0.00  0.00     0.026 A 
ENDROOT
BRANCH   2   7
ATOM      7  O   UNL d   1     -46.845  13.201  23.158  0.00  0.00    -0.302 OA
BRANCH   7   8
ATOM      8  C   UNL d   1     -46.289  13.185  22.550  0.00  0.00     0.166 C 
BRANCH   8   9
ATOM      9  C   UNL d   1     -45.556  12.829  22.682  0.00  0.00     0.239 C 
ATOM     10  O   UNL d   1     -45.472  12.305  23.313  0.00  0.00    -0.283 OA
BRANCH   9  11
ATOM     11  C   UNL d   1     -44.916  12.992  22.195  0.00  0.00     0.143 C 
BRANCH  11  12
ATOM     12  N   UNL d   1     -44.338  12.417  22.065  0.00  0.00    -0.241 NA
BRANCH  12  13
ATOM     13  C   UNL d   1     -43.651  12.611  21.665  0.00  0.00     0.082 C 
ATOM     14  C   UNL d   1     -43.674  13.196  21.077  0.00  0.00     0.021 C 
ATOM     15  C   UNL d   1     -42.944  12.229  21.846  0.00  0.00     0.021 C 
ENDBRANCH  12  13
ENDBRANCH  11  12
ENDBRANCH   9  11
ENDBRANCH   8   9
ENDBRANCH   7   8
ENDBRANCH   2   7
BRANCH   1  16
ATOM     16  N   UNL d   1     -49.922  14.201  22.556  0.00  0.00    -0.208 NA
ATOM     17  C   UNL d   1     -50.293  14.000  21.839  0.00  0.00     0.279 C 
ATOM     18  O   UNL d   1     -49.889  13.552  21.288  0.00  0.00    -0.265 OA
ATOM     19  C   UNL d   1     -51.064  14.257  21.699  0.00  0.00     0.068 C 
ENDBRANCH   1  16
TORSDOF 7
ENDMDL
MODEL 5
REMARK VINA RESULT:      -4.7      7.983      9.619
REMARK  7 active torsions:
REMARK  status: ('A' for Active; 'I' for Inactive)
REMARK       I    between atoms: N_2  and  C_1 
REMARK    1  A    between atoms: C_5  and  N_2 
REMARK    2  A    between atoms: N_4  and  C_9 
REMARK    3  A    between atoms: C_16  and  N_4 
REMARK    4  A    between atoms: O_6  and  C_8 
REMARK    5  A    between atoms: C_10  and  O_6 
REMARK    6  A    between atoms: C_7  and  C_10 
REMARK    7  A    between atoms: C_9  and  C_7 
ROOT
ATOM      1  C   UNL d   1     -39.472  14.753  16.962  0.00  0.00     0.085 A 
ATOM      2  C   UNL d   1     -40.140  15.274  18.374  0.00  0.00     0.100 A 
ATOM      3  C   UNL d   1     -39.373  15.535  17.200  0.00  0.00     0.021 A 
ATOM      4  C   UNL d   1     -39.905  14.225  17.425  0.00  0.00     0.021 A 
ATOM      5  C   UNL d   1     -40.240  14.485  18.134  0.00  0.00     0.026 A 
ATOM      6  C   UNL d   1     -39.705  15.796  17.904  0.00  0.00     0.026 A 
ENDROOT
BRANCH   2   7
ATOM      7  O   UNL d   1     -40.473  15.536  19.078  0.00  0.00    -0.302 OA
BRANCH   7   8
ATOM      8  C   UNL d   1     -40.336  15.123  19.778  0.00  0.00     0.166 C 
BRANCH   8   9
ATOM      9  C   UNL d   1     -40.537  15.473  20.498  0.00  0.00     0.239 C 
ATOM     10  O   UNL d   1     -41.321  15.680  20.641  0.00  0.00    -0.283 OA
BRANCH   9  11
ATOM     11  C   UNL d   1     -39.964  15.616  21.069  0.00  0.00     0.143 C 
BRANCH  11  12
ATOM     12  N   UNL d   1     -39.895  15.115  21.721  0.00  0.00    -0.241 NA
BRANCH  12  13
ATOM     13  C   UNL d   1     -39.257  15.188  22.228  0.00  0.00     0.082 C 
ATOM     14  C   UNL d   1     -38.804  14.519  22.412  0.00  0.00     0.021 C 
ATOM     15  C   UNL d   1     -39.069  15.922  22.552  0.00  0.00     0.021 C 
ENDBRANCH  12  13
ENDBRANCH  11  12
ENDBRANCH   9  11
ENDBRANCH   8   9
ENDBRANCH   7   8
ENDBRANCH   2   7
BRANCH   1  16
ATOM     16  N   UNL d   1     -39.139  14.491  16.257  0.00  0.00    -0.208 NA
ATOM     17  C   UNL d   1     -38.369  14.177  16.252  0.00  0.00     0.279 C 
ATOM     18  O   UNL d   1     -37.947  14.130  16.950  0.00  0.00    -0.265 OA
ATOM     19  C   UNL d   1     -38.045  13.917  15.539  0.00  0.00     0.068 C 
ENDBRANCH   1  16
TORSDOF 7
ENDMDL
MODEL 6
REMARK VINA RESULT:      -4.6      2.580      5.358
REMARK  7 active torsions:
REMARK  status: ('A' for Active; 'I' for Inactive)
REMARK       I    between atoms: N_2  and  C_1 
REMARK    1  A    between atoms: C_5  and  N_2 
REMARK    2  A    between atoms: N_4  and  C_9 
REMARK    3  A    between atoms: C_16  and  N_4 
REMARK    4  A    between atoms: O_6  and  C_8 
REMARK    5  A    between atoms: C_10  and  O_6 
REMARK    6  A    between atoms: C_7  and  C_10 
REMARK    7  A    between atoms: C_9  and  C_7 
ROOT
ATOM      1  C   UNL d   1     -46.971  13.593  23.012  0.00  0.00     0.085 A 
ATOM      2  C   UNL d   1     -45.539  12.943  22.523  0.00  0.00     0.100 A 
ATOM      3  C   UNL d   1     -46.470  14.024  22.522  0.00  0.00     0.021 A 
ATOM      4  C   UNL d   1     -46.763  12.834  23.263  0.00  0.00     0.021 A 
ATOM      5  C   UNL d   1     -46.045  12.507  23.018  0.00  0.00     0.026 A 
ATOM      6  C   UNL d   1     -45.755  13.701  22.277  0.00  0.00     0.026 A 
ENDROOT
BRANCH   2   7
ATOM      7  O   UNL d   1     -44.824  12.620  22.278  0.00  0.00    -0.302 OA
BRANCH   7   8
ATOM      8  C   UNL d   1     -44.295  13.074  21.838  0.00  0.00     0.166 C 
BRANCH   8   9
ATOM      9  C   UNL d   1     -43.556  12.760  21.647  0.00  0.00     0.239 C 
ATOM     10  O   UNL d   1     -43.346  12.019  21.941  0.00  0.00    -0.283 OA
BRANCH   9  11
ATOM     11  C   UNL d   1     -43.033  13.177  21.172  0.00  0.00     0.143 C 
BRANCH  11  12
ATOM     12  N   UNL d   1     -42.234  13.225  21.377  0.00  0.00    -0.241 NA
BRANCH  12  13
ATOM     13  C   UNL d   1     -41.735  13.722  20.962  0.00  0.00     0.082 C 
ATOM     14  C   UNL d   1     -41.182  14.181  21.375  0.00  0.00     0.021 C 
ATOM     15  C   UNL d   1     -41.782  13.765  20.140  0.00  0.00     0.021 C 
ENDBRANCH  12  13
ENDBRANCH  11  12
ENDBRANCH   9  11
ENDBRANCH   8   9
ENDBRANCH   7   8
ENDBRANCH   2   7
BRANCH   1  16
ATOM     16  N   UNL d   1     -47.686  13.915  23.257  0.00  0.00    -0.208 NA
ATOM     17  C   UNL d   1     -48.359  13.857  22.770  0.00  0.00     0.279 C 
ATOM     18  O   UNL d   1     -48.302  13.477  22.049  0.00  0.00    -0.265 OA
ATOM     19  C   UNL d   1     -49.071  14.185  23.027  0.00  0.00     0.068 C 
ENDBRANCH   1  16
TORSDOF 7
ENDMDL
MODEL 7
REMARK VINA RESULT:      -4.5      8.580      9.811
REMARK  7 active torsions:
REMARK  status: ('A' for Active; 'I' for Inactive)
REMARK       I    between atoms: N_2  and  C_1 
REMARK    1  A    between atoms: C_5  and  N_2 
REMARK    2  A    between atoms: N_4  and  C_9 
REMARK    3  A    between atoms: C_16  and  N_4 
REMARK    4  A    between atoms: O_6  and  C_8 
REMARK    5  A    between atoms: C_10  and  O_6 
REMARK    6  A    between atoms: C_7  and  C_10 
REMARK    7  A    between atoms: C_9  and  C_7 
ROOT
ATOM      1  C   UNL d   1     -40.140  15.087  17.506  0.00  0.00     0.085 A 
ATOM      2  C   UNL d   1     -39.211  14.664  18.799  0.00  0.00     0.100 A 
ATOM      3  C   UNL d   1     -39.737  15.666  17.930  0.00  0.00     0.021 A 
ATOM      4  C   UNL d   1     -40.083  14.292  17.723  0.00  0.00     0.021 A 
ATOM      5  C   UNL d   1     -39.618  14.079  18.371  0.00  0.00     0.026 A 
ATOM      6  C   UNL d   1     -39.274  15.457  18.576  0.00  0.00     0.026 A 
ENDROOT
BRANCH   2   7
ATOM      7  O   UNL d   1     -38.747  14.455  19.445  0.00  0.00    -0.302 OA
BRANCH   7   8
ATOM      8  C   UNL d   1     -39.066  13.998  20.052  0.00  0.00     0.166 C 
BRANCH   8   9
ATOM      9  C   UNL d   1     -38.592  13.797  20.696  0.00  0.00     0.239 C 
ATOM     10  O   UNL d   1     -37.957  13.284  20.585  0.00  0.00    -0.283 OA
BRANCH   9  11
ATOM     11  C   UNL d   1     -38.748  14.101  21.443  0.00  0.00     0.143 C 
BRANCH  11  12
ATOM     12  N   UNL d   1     -38.516  13.685  22.117  0.00  0.00    -0.241 NA
BRANCH  12  13
ATOM     13  C   UNL d   1     -38.721  13.961  22.859  0.00  0.00     0.082 C 
ATOM     14  C   UNL d   1     -38.601  14.761  23.043  0.00  0.00     0.021 C 
ATOM     15  C   UNL d   1     -39.045  13.448  23.417  0.00  0.00     0.021 C 
ENDBRANCH  12  13
ENDBRANCH  11  12
ENDBRANCH   9  11
ENDBRANCH   8   9
ENDBRANCH   7   8
ENDBRANCH   2   7
BRANCH   1  16
ATOM     16  N   UNL d   1     -40.604  15.296  16.861  0.00  0.00    -0.208 NA
ATOM     17  C   UNL d   1     -41.312  15.717  16.975  0.00  0.00     0.279 C 
ATOM     18  O   UNL d   1     -41.542  15.921  17.733  0.00  0.00    -0.265 OA
ATOM     19  C   UNL d   1     -41.769  15.922  16.320  0.00  0.00     0.068 C 
ENDBRANCH   1  16
TORSDOF 7
ENDMDL
