MODEL 1
REMARK VINA RESULT:      90.9      0.000      0.000
REMARK  7 active torsions:
REMARK  status: ('A' for Active; 'I' for Inactive)
REMARK    1  A    between atoms: C_8  and  N_1 
REMARK    2  A    between atoms: C_7  and  C_3 
REMARK    3  A    between atoms: C_10  and  C_6 
REMARK    4  A    between atoms: C_11  and  C_7 
REMARK    5  A    between atoms: C_14  and  C_8 
REMARK    6  A    between atoms: C_12  and  C_14 
REMARK       I    between atoms: N_17  and  C_12 
REMARK    7  A    between atoms: C_20  and  N_17 
ROOT
ATOM      1  C   UNL d   1     -54.996-100.185 -41.937  0.00  0.00     0.089 C 
ENDROOT
BRANCH   1   2
ATOM      2  N   UNL d   1     -54.948-100.564 -41.206  0.00  0.00    -0.259 N 
ATOM      3  C   UNL d   1     -54.980-100.222 -40.443  0.00  0.00     0.153 A 
ATOM      4  S   UNL d   1     -54.909-100.825 -39.872  0.00  0.00    -0.053 SA
ATOM      5  S   UNL d   1     -55.070 -99.403 -40.287  0.00  0.00    -0.052 SA
ATOM      6  C   UNL d   1     -54.831-101.554 -40.278  0.00  0.00     0.090 A 
ATOM      7  C   UNL d   1     -54.855-101.394 -41.085  0.00  0.00     0.272 A 
ATOM      8  O   UNL d   1     -54.794-101.985 -41.696  0.00  0.00    -0.266 OA
BRANCH   6   9
ATOM      9  C   UNL d   1     -54.746-102.289 -39.913  0.00  0.00     0.036 C 
BRANCH   9  10
ATOM     10  C   UNL d   1     -55.098-102.406 -39.165  0.00  0.00     0.101 A 
ATOM     11  O   UNL d   1     -54.876-102.879 -38.520  0.00  0.00    -0.305 OA
ATOM     12  C   UNL d   1     -55.467-102.753 -37.927  0.00  0.00     0.123 A 
ATOM     13  C   UNL d   1     -55.997-102.242 -38.205  0.00  0.00     0.029 A 
ATOM     14  C   UNL d   1     -55.796-102.010 -38.968  0.00  0.00     0.027 A 
ENDBRANCH   9  10
ENDBRANCH   6   9
ENDBRANCH   1   2
BRANCH   1  15
ATOM     15  C   UNL d   1     -55.232-100.610 -42.637  0.00  0.00     0.082 C 
BRANCH  15  16
ATOM     16  C   UNL d   1     -55.946-100.435 -43.000  0.00  0.00     0.281 C 
ATOM     17  N   UNL d   1     -55.965 -99.892 -43.622  0.00  0.00    -0.208 NA
ATOM     18  O   UNL d   1     -56.638-100.804 -42.737  0.00  0.00    -0.265 OA
BRANCH  17  19
ATOM     19  C   UNL d   1     -56.683 -99.716 -43.986  0.00  0.00     0.088 A 
ATOM     20  C   UNL d   1     -57.368 -99.735 -43.550  0.00  0.00     0.061 A 
ATOM     21  C   UNL d   1     -58.087 -99.566 -43.887  0.00  0.00     0.203 A 
ATOM     22  O   UNL d   1     -58.789 -99.591 -43.419  0.00  0.00    -0.286 OA
ATOM     23  C   UNL d   1     -58.090 -99.364 -44.727  0.00  0.00     0.103 A 
ATOM     24  C   UNL d   1     -57.409 -99.343 -45.164  0.00  0.00     0.011 A 
ATOM     25  C   UNL d   1     -56.688 -99.527 -44.771  0.00  0.00     0.020 A 
BRANCH  23  26
ATOM     26  C   UNL d   1     -58.803 -99.182 -45.116  0.00  0.00     0.214 C 
ATOM     27  O   UNL d   1     -58.804 -99.007 -45.945  0.00  0.00    -0.644 OA
ATOM     28  O   UNL d   1     -59.522 -99.166 -44.718  0.00  0.00    -0.644 OA
ENDBRANCH  23  26
ENDBRANCH  17  19
ENDBRANCH  15  16
ENDBRANCH   1  15
TORSDOF 7
ENDMDL
