MODEL 1
REMARK VINA RESULT:      -5.1      0.000      0.000
REMARK  4 active torsions:
REMARK  status: ('A' for Active; 'I' for Inactive)
REMARK    1  A    between atoms: S_6  and  C_1 
REMARK    2  A    between atoms: C_7  and  S_6 
REMARK    3  A    between atoms: C_10  and  C_7 
REMARK    4  A    between atoms: C_11  and  C_10 
ROOT
ATOM      1  C   UNL d   1     -41.472-122.463 -52.625  0.00  0.00     0.194 A 
ATOM      2  N   UNL d   1     -41.191-123.019 -53.192  0.00  0.00    -0.220 NA
ATOM      3  N   UNL d   1     -41.894-121.883 -53.034  0.00  0.00    -0.220 NA
ATOM      4  C   UNL d   1     -41.439-122.779 -53.922  0.00  0.00     0.101 A 
ATOM      5  C   UNL d   1     -41.883-122.061 -53.822  0.00  0.00     0.101 A 
ATOM      6  C   UNL d   1     -41.356-123.067 -54.698  0.00  0.00     0.021 A 
ATOM      7  C   UNL d   1     -42.209-121.684 -54.479  0.00  0.00     0.021 A 
ATOM      8  C   UNL d   1     -42.104-122.002 -55.233  0.00  0.00     0.002 A 
ATOM      9  C   UNL d   1     -41.675-122.695 -55.329  0.00  0.00     0.002 A 
ENDROOT
BRANCH   1  10
ATOM     10  S   UNL d   1     -41.148-122.837 -51.967  0.00  0.00    -0.048 SA
BRANCH  10  11
ATOM     11  C   UNL d   1     -41.468-122.720 -51.214  0.00  0.00     0.038 C 
BRANCH  11  12
ATOM     12  C   UNL d   1     -41.146-123.119 -50.568  0.00  0.00     0.007 C 
BRANCH  12  13
ATOM     13  C   UNL d   1     -41.539-123.086 -49.857  0.00  0.00     0.001 C 
ATOM     14  C   UNL d   1     -41.125-123.277 -49.169  0.00  0.00     0.000 C 
ATOM     15  C   UNL d   1     -42.293-122.903 -49.587  0.00  0.00     0.000 C 
ENDBRANCH  12  13
ENDBRANCH  11  12
ENDBRANCH  10  11
ENDBRANCH   1  10
TORSDOF 4
ENDMDL
MODEL 2
REMARK VINA RESULT:      -4.7      0.777      4.085
REMARK  4 active torsions:
REMARK  status: ('A' for Active; 'I' for Inactive)
REMARK    1  A    between atoms: S_6  and  C_1 
REMARK    2  A    between atoms: C_7  and  S_6 
REMARK    3  A    between atoms: C_10  and  C_7 
REMARK    4  A    between atoms: C_11  and  C_10 
ROOT
ATOM      1  C   UNL d   1     -41.474-122.575 -52.180  0.00  0.00     0.194 A 
ATOM      2  N   UNL d   1     -41.123-123.269 -51.857  0.00  0.00    -0.220 NA
ATOM      3  N   UNL d   1     -41.865-122.185 -51.565  0.00  0.00    -0.220 NA
ATOM      4  C   UNL d   1     -41.298-123.296 -51.069  0.00  0.00     0.101 A 
ATOM      5  C   UNL d   1     -41.766-122.611 -50.885  0.00  0.00     0.101 A 
ATOM      6  C   UNL d   1     -41.127-123.817 -50.444  0.00  0.00     0.021 A 
ATOM      7  C   UNL d   1     -42.030-122.489 -50.113  0.00  0.00     0.021 A 
ATOM      8  C   UNL d   1     -41.839-123.030 -49.520  0.00  0.00     0.002 A 
ATOM      9  C   UNL d   1     -41.387-123.691 -49.699  0.00  0.00     0.002 A 
ENDROOT
BRANCH   1  10
ATOM     10  S   UNL d   1     -41.213-122.694 -52.951  0.00  0.00    -0.048 SA
BRANCH  10  11
ATOM     11  C   UNL d   1     -41.629-122.379 -53.592  0.00  0.00     0.038 C 
BRANCH  11  12
ATOM     12  C   UNL d   1     -41.418-122.594 -54.360  0.00  0.00     0.007 C 
BRANCH  12  13
ATOM     13  C   UNL d   1     -41.872-122.321 -54.977  0.00  0.00     0.001 C 
ATOM     14  C   UNL d   1     -41.496-121.930 -55.599  0.00  0.00     0.000 C 
ATOM     15  C   UNL d   1     -42.665-122.313 -55.192  0.00  0.00     0.000 C 
ENDBRANCH  12  13
ENDBRANCH  11  12
ENDBRANCH  10  11
ENDBRANCH   1  10
TORSDOF 4
ENDMDL
MODEL 3
REMARK VINA RESULT:      -4.3      0.875      1.582
REMARK  4 active torsions:
REMARK  status: ('A' for Active; 'I' for Inactive)
REMARK    1  A    between atoms: S_6  and  C_1 
REMARK    2  A    between atoms: C_7  and  S_6 
REMARK    3  A    between atoms: C_10  and  C_7 
REMARK    4  A    between atoms: C_11  and  C_10 
ROOT
ATOM      1  C   UNL d   1     -41.490-123.100 -51.609  0.00  0.00     0.194 A 
ATOM      2  N   UNL d   1     -41.664-122.431 -52.090  0.00  0.00    -0.220 NA
ATOM      3  N   UNL d   1     -41.262-123.715 -52.111  0.00  0.00    -0.220 NA
ATOM      4  C   UNL d   1     -41.544-122.638 -52.861  0.00  0.00     0.101 A 
ATOM      5  C   UNL d   1     -41.290-123.449 -52.874  0.00  0.00     0.101 A 
ATOM      6  C   UNL d   1     -41.612-122.251 -53.594  0.00  0.00     0.021 A 
ATOM      7  C   UNL d   1     -41.124-123.817 -53.593  0.00  0.00     0.021 A 
ATOM      8  C   UNL d   1     -41.203-123.399 -54.300  0.00  0.00     0.002 A 
ATOM      9  C   UNL d   1     -41.448-122.616 -54.287  0.00  0.00     0.002 A 
ENDROOT
BRANCH   1  10
ATOM     10  S   UNL d   1     -41.655-122.736 -50.889  0.00  0.00    -0.048 SA
BRANCH  10  11
ATOM     11  C   UNL d   1     -41.770-123.185 -50.205  0.00  0.00     0.038 C 
BRANCH  11  12
ATOM     12  C   UNL d   1     -41.988-122.810 -49.503  0.00  0.00     0.007 C 
BRANCH  12  13
ATOM     13  C   UNL d   1     -42.085-123.263 -48.835  0.00  0.00     0.001 C 
ATOM     14  C   UNL d   1     -42.852-123.452 -48.595  0.00  0.00     0.000 C 
ATOM     15  C   UNL d   1     -41.609-123.626 -48.272  0.00  0.00     0.000 C 
ENDBRANCH  12  13
ENDBRANCH  11  12
ENDBRANCH  10  11
ENDBRANCH   1  10
TORSDOF 4
ENDMDL
MODEL 4
REMARK VINA RESULT:      -2.5      1.593      4.666
REMARK  4 active torsions:
REMARK  status: ('A' for Active; 'I' for Inactive)
REMARK    1  A    between atoms: S_6  and  C_1 
REMARK    2  A    between atoms: C_7  and  S_6 
REMARK    3  A    between atoms: C_10  and  C_7 
REMARK    4  A    between atoms: C_11  and  C_10 
ROOT
ATOM      1  C   UNL d   1     -42.136-122.896 -50.419  0.00  0.00     0.194 A 
ATOM      2  N   UNL d   1     -41.718-122.564 -49.767  0.00  0.00    -0.220 NA
ATOM      3  N   UNL d   1     -42.730-123.381 -50.113  0.00  0.00    -0.220 NA
ATOM      4  C   UNL d   1     -42.052-122.843 -49.087  0.00  0.00     0.101 A 
ATOM      5  C   UNL d   1     -42.691-123.358 -49.305  0.00  0.00     0.101 A 
ATOM      6  C   UNL d   1     -41.912-122.738 -48.274  0.00  0.00     0.021 A 
ATOM      7  C   UNL d   1     -43.140-123.728 -48.721  0.00  0.00     0.021 A 
ATOM      8  C   UNL d   1     -42.969-123.599 -47.924  0.00  0.00     0.002 A 
ATOM      9  C   UNL d   1     -42.351-123.100 -47.714  0.00  0.00     0.002 A 
ENDROOT
BRANCH   1  10
ATOM     10  S   UNL d   1     -41.690-122.528 -51.005  0.00  0.00    -0.048 SA
BRANCH  10  11
ATOM     11  C   UNL d   1     -41.873-122.635 -51.804  0.00  0.00     0.038 C 
BRANCH  11  12
ATOM     12  C   UNL d   1     -41.409-122.270 -52.381  0.00  0.00     0.007 C 
BRANCH  12  13
ATOM     13  C   UNL d   1     -41.650-122.312 -53.157  0.00  0.00     0.001 C 
ATOM     14  C   UNL d   1     -41.890-123.042 -53.456  0.00  0.00     0.000 C 
ATOM     15  C   UNL d   1     -41.736-121.801 -53.795  0.00  0.00     0.000 C 
ENDBRANCH  12  13
ENDBRANCH  11  12
ENDBRANCH  10  11
ENDBRANCH   1  10
TORSDOF 4
ENDMDL
