MODEL 1
REMARK VINA RESULT:       9.8      0.000      0.000
REMARK  5 active torsions:
REMARK  status: ('A' for Active; 'I' for Inactive)
REMARK       I    between atoms: C_2  and  N_6 
REMARK    1  A    between atoms: C_7  and  C_2 
REMARK    2  A    between atoms: N_3  and  C_4 
REMARK    3  A    between atoms: C_12  and  N_5 
REMARK    4  A    between atoms: N_6  and  C_18 
REMARK    5  A    between atoms: O_33  and  C_30 
ROOT
ATOM      1  C   UNL d   1      56.592  -1.020  32.271  0.00  0.00     0.086 A 
ATOM      2  C   UNL d   1      56.313  -0.255  32.378  0.00  0.00     0.074 A 
ATOM      3  C   UNL d   1      56.188  -1.658  32.594  0.00  0.00     0.102 C 
ATOM      4  N   UNL d   1      55.782  -2.294  32.920  0.00  0.00    -0.191 NA
ATOM      5  C   UNL d   1      56.717   0.383  32.054  0.00  0.00     0.020 A 
ATOM      6  C   UNL d   1      57.286  -1.152  31.833  0.00  0.00     0.031 A 
ATOM      7  C   UNL d   1      57.695  -0.518  31.507  0.00  0.00     0.085 A 
ATOM      8  C   UNL d   1      57.411   0.261  31.615  0.00  0.00     0.021 A 
ENDROOT
BRANCH   2   9
ATOM      9  N   UNL d   1      55.623  -0.116  32.812  0.00  0.00    -0.301 N 
ATOM     10  C   UNL d   1      55.440  -0.613  33.441  0.00  0.00     0.100 A 
ATOM     11  C   UNL d   1      54.748  -0.479  33.881  0.00  0.00     0.100 A 
ATOM     12  N   UNL d   1      54.253   0.152  33.681  0.00  0.00    -0.301 N 
ATOM     13  C   UNL d   1      54.444   0.647  33.048  0.00  0.00     0.100 A 
ATOM     14  C   UNL d   1      55.128   0.515  32.612  0.00  0.00     0.100 A 
BRANCH  12  15
ATOM     15  C   UNL d   1      53.562   0.285  34.122  0.00  0.00     0.064 A 
ATOM     16  C   UNL d   1      53.615   0.493  34.915  0.00  0.00     0.020 A 
ATOM     17  C   UNL d   1      52.927   0.626  35.355  0.00  0.00     0.026 A 
ATOM     18  C   UNL d   1      52.178   0.550  34.999  0.00  0.00     0.094 A 
ATOM     19  C   UNL d   1      52.120   0.340  34.195  0.00  0.00     0.026 A 
ATOM     20  C   UNL d   1      52.812   0.207  33.758  0.00  0.00     0.020 A 
BRANCH  18  21
ATOM     21  O   UNL d   1      51.486   0.682  35.432  0.00  0.00    -0.328 OA
ATOM     22  C   UNL d   1      50.758   0.553  35.072  0.00  0.00     0.181 C 
ENDBRANCH  18  21
ENDBRANCH  12  15
ENDBRANCH   2   9
BRANCH   7  23
ATOM     23  N   UNL d   1      58.384  -0.645  31.072  0.00  0.00    -0.208 NA
ATOM     24  C   UNL d   1      58.341  -0.752  30.259  0.00  0.00     0.279 C 
ATOM     25  O   UNL d   1      57.615  -0.733  29.876  0.00  0.00    -0.265 OA
BRANCH  24  26
ATOM     26  C   UNL d   1      59.034  -0.879  29.825  0.00  0.00     0.060 A 
ATOM     27  C   UNL d   1      59.253  -1.635  29.620  0.00  0.00     0.031 A 
ATOM     28  C   UNL d   1      59.945  -1.758  29.187  0.00  0.00     0.119 A 
ATOM     29  O   UNL d   1      60.301  -2.437  28.906  0.00  0.00    -0.300 OA
ATOM     30  C   UNL d   1      60.402  -1.118  28.967  0.00  0.00     0.119 A 
ATOM     31  C   UNL d   1      60.987  -2.219  28.508  0.00  0.00     0.304 A 
ATOM     32  O   UNL d   1      61.050  -1.404  28.545  0.00  0.00    -0.300 OA
ATOM     33  C   UNL d   1      60.184  -0.353  29.172  0.00  0.00     0.026 A 
ATOM     34  C   UNL d   1      59.498  -0.232  29.602  0.00  0.00     0.007 A 
ENDBRANCH  24  26
ENDBRANCH   7  23
TORSDOF 5
ENDMDL
