MODEL 1
REMARK VINA RESULT:      42.7      0.000      0.000
REMARK  6 active torsions:
REMARK  status: ('A' for Active; 'I' for Inactive)
REMARK    1  A    between atoms: N_2  and  S_1 
REMARK    2  A    between atoms: C_4  and  S_1 
REMARK    3  A    between atoms: C_3  and  N_2 
REMARK    4  A    between atoms: N_7  and  C_3 
REMARK    5  A    between atoms: C_14  and  N_7 
REMARK    6  A    between atoms: C_15  and  C_13 
ROOT
ATOM      1  S   UNL d   1     -56.665 -99.487 -44.470  0.00  0.00     0.287 S 
ATOM      2  O   UNL d   1     -56.669-100.223 -44.862  0.00  0.00    -0.198 OA
ATOM      3  O   UNL d   1     -56.662 -98.758 -44.083  0.00  0.00    -0.198 OA
ENDROOT
BRANCH   1   4
ATOM      4  N   UNL d   1     -55.928 -99.668 -44.137  0.00  0.00    -0.128 NA
BRANCH   4   5
ATOM      5  C   UNL d   1     -55.163 -99.956 -44.232  0.00  0.00     0.232 C 
ATOM      6  S   UNL d   1     -54.846-100.047 -44.988  0.00  0.00    -0.036 SA
BRANCH   5   7
ATOM      7  N   UNL d   1     -54.714-100.152 -43.570  0.00  0.00    -0.217 NA
BRANCH   7   8
ATOM      8  C   UNL d   1     -54.717-100.929 -43.292  0.00  0.00     0.084 A 
ATOM      9  C   UNL d   1     -54.722-101.071 -42.480  0.00  0.00     0.019 A 
ATOM     10  C   UNL d   1     -54.725-101.845 -42.200  0.00  0.00     0.002 A 
ATOM     11  C   UNL d   1     -54.723-102.474 -42.727  0.00  0.00     0.000 A 
ATOM     12  C   UNL d   1     -54.718-102.332 -43.538  0.00  0.00     0.002 A 
ATOM     13  C   UNL d   1     -54.715-101.562 -43.822  0.00  0.00     0.019 A 
ENDBRANCH   7   8
ENDBRANCH   5   7
ENDBRANCH   4   5
ENDBRANCH   1   4
BRANCH   1  14
ATOM     14  C   UNL d   1     -57.407 -99.305 -44.805  0.00  0.00     0.105 A 
ATOM     15  C   UNL d   1     -58.016 -99.033 -44.320  0.00  0.00     0.013 A 
ATOM     16  C   UNL d   1     -58.761 -98.849 -44.648  0.00  0.00     0.001 A 
ATOM     17  C   UNL d   1     -58.888 -98.942 -45.467  0.00  0.00     0.000 A 
ATOM     18  C   UNL d   1     -58.271 -99.217 -45.949  0.00  0.00     0.001 A 
ATOM     19  C   UNL d   1     -57.535 -99.398 -45.624  0.00  0.00     0.013 A 
BRANCH  17  20
ATOM     20  C   UNL d   1     -59.623 -98.762 -45.795  0.00  0.00     0.000 C 
ATOM     21  C   UNL d   1     -59.959 -98.799 -46.555  0.00  0.00     0.000 C 
ENDBRANCH  17  20
ENDBRANCH   1  14
TORSDOF 6
ENDMDL
MODEL 2
REMARK VINA RESULT:      42.7      2.576      3.752
REMARK  6 active torsions:
REMARK  status: ('A' for Active; 'I' for Inactive)
REMARK    1  A    between atoms: N_2  and  S_1 
REMARK    2  A    between atoms: C_4  and  S_1 
REMARK    3  A    between atoms: C_3  and  N_2 
REMARK    4  A    between atoms: N_7  and  C_3 
REMARK    5  A    between atoms: C_14  and  N_7 
REMARK    6  A    between atoms: C_15  and  C_13 
ROOT
ATOM      1  S   UNL d   1     -54.912-101.534 -42.991  0.00  0.00     0.287 S 
ATOM      2  O   UNL d   1     -54.763-100.978 -42.388  0.00  0.00    -0.198 OA
ATOM      3  O   UNL d   1     -55.058-102.083 -43.589  0.00  0.00    -0.198 OA
ENDROOT
BRANCH   1   4
ATOM      4  N   UNL d   1     -54.890-102.146 -42.433  0.00  0.00    -0.128 NA
BRANCH   4   5
ATOM      5  C   UNL d   1     -55.192-102.487 -41.747  0.00  0.00     0.232 C 
ATOM      6  S   UNL d   1     -55.973-102.753 -41.727  0.00  0.00    -0.036 SA
BRANCH   5   7
ATOM      7  N   UNL d   1     -54.713-102.562 -41.081  0.00  0.00    -0.217 NA
BRANCH   7   8
ATOM      8  C   UNL d   1     -55.032-102.427 -40.333  0.00  0.00     0.084 A 
ATOM      9  C   UNL d   1     -54.714-101.836 -39.855  0.00  0.00     0.019 A 
ATOM     10  C   UNL d   1     -55.030-101.699 -39.107  0.00  0.00     0.002 A 
ATOM     11  C   UNL d   1     -55.662-102.150 -38.839  0.00  0.00     0.000 A 
ATOM     12  C   UNL d   1     -55.980-102.740 -39.316  0.00  0.00     0.002 A 
ATOM     13  C   UNL d   1     -55.667-102.880 -40.063  0.00  0.00     0.019 A 
ENDBRANCH   7   8
ENDBRANCH   5   7
ENDBRANCH   4   5
ENDBRANCH   1   4
BRANCH   1  14
ATOM     14  C   UNL d   1     -54.933-100.917 -43.552  0.00  0.00     0.105 A 
ATOM     15  C   UNL d   1     -54.904-101.098 -44.356  0.00  0.00     0.013 A 
ATOM     16  C   UNL d   1     -54.925-100.487 -44.923  0.00  0.00     0.001 A 
ATOM     17  C   UNL d   1     -54.977 -99.693 -44.676  0.00  0.00     0.000 A 
ATOM     18  C   UNL d   1     -55.006 -99.518 -43.866  0.00  0.00     0.001 A 
ATOM     19  C   UNL d   1     -54.985-100.122 -43.305  0.00  0.00     0.013 A 
BRANCH  17  20
ATOM     20  C   UNL d   1     -54.998 -99.085 -45.233  0.00  0.00     0.000 C 
ATOM     21  C   UNL d   1     -55.577 -98.759 -45.734  0.00  0.00     0.000 C 
ENDBRANCH  17  20
ENDBRANCH   1  14
TORSDOF 6
ENDMDL
