MODEL 1
REMARK VINA RESULT:      -8.6      0.000      0.000
REMARK  3 active torsions:
REMARK  status: ('A' for Active; 'I' for Inactive)
REMARK    1  A    between atoms: N_7  and  C_1 
REMARK    2  A    between atoms: C_11  and  N_3 
REMARK       I    between atoms: C_9  and  N_7 
REMARK    3  A    between atoms: C_12  and  C_9 
ROOT
ATOM      1  C   UNL d   1     -48.599  13.085  23.228  0.00  0.00     0.169 A 
ATOM      2  C   UNL d   1     -49.155  12.551  23.376  0.00  0.00     0.067 A 
ATOM      3  N   UNL d   1     -47.918  12.705  23.141  0.00  0.00    -0.212 N 
ATOM      4  C   UNL d   1     -48.815  11.836  23.380  0.00  0.00     0.116 A 
ATOM      5  N   UNL d   1     -48.053  11.934  23.235  0.00  0.00    -0.163 NA
ATOM      6  S   UNL d   1     -50.057  11.694  23.615  0.00  0.00     0.213 S 
ATOM      7  C   UNL d   1     -49.374  11.309  23.528  0.00  0.00     0.120 A 
ATOM      8  C   UNL d   1     -49.920  12.461  23.521  0.00  0.00     0.103 A 
ATOM      9  O   UNL d   1     -50.113  10.917  23.696  0.00  0.00    -0.217 OA
ATOM     10  O   UNL d   1     -50.620  12.069  23.682  0.00  0.00    -0.217 OA
ENDROOT
BRANCH   1  11
ATOM     11  N   UNL d   1     -49.052  13.634  23.259  0.00  0.00    -0.187 NA
ATOM     12  C   UNL d   1     -49.287  14.422  22.663  0.00  0.00     0.303 C 
ATOM     13  O   UNL d   1     -48.938  14.535  21.988  0.00  0.00    -0.263 OA
BRANCH  12  14
ATOM     14  C   UNL d   1     -49.869  14.958  22.912  0.00  0.00     0.158 A 
ATOM     15  O   UNL d   1     -50.625  15.085  22.552  0.00  0.00    -0.300 OA
ATOM     16  C   UNL d   1     -51.025  15.675  22.990  0.00  0.00     0.123 A 
ATOM     17  C   UNL d   1     -50.528  15.920  23.621  0.00  0.00     0.029 A 
ATOM     18  C   UNL d   1     -49.815  15.483  23.579  0.00  0.00     0.032 A 
ENDBRANCH  12  14
ENDBRANCH   1  11
BRANCH   3  19
ATOM     19  C   UNL d   1     -47.174  13.056  22.976  0.00  0.00     0.085 A 
ATOM     20  C   UNL d   1     -46.744  12.814  22.294  0.00  0.00     0.031 A 
ATOM     21  C   UNL d   1     -46.013  13.160  22.132  0.00  0.00     0.059 A 
ATOM     22 CL   UNL d   1     -45.573  12.929  21.457  0.00  0.00    -0.082 Cl
ATOM     23  C   UNL d   1     -45.699  13.754  22.649  0.00  0.00     0.011 A 
ATOM     24  C   UNL d   1     -46.139  13.984  23.323  0.00  0.00     0.002 A 
ATOM     25  C   UNL d   1     -46.869  13.635  23.479  0.00  0.00     0.019 A 
ENDBRANCH   3  19
TORSDOF 3
ENDMDL
MODEL 2
REMARK VINA RESULT:      -7.2      1.646      3.410
REMARK  3 active torsions:
REMARK  status: ('A' for Active; 'I' for Inactive)
REMARK    1  A    between atoms: N_7  and  C_1 
REMARK    2  A    between atoms: C_11  and  N_3 
REMARK       I    between atoms: C_9  and  N_7 
REMARK    3  A    between atoms: C_12  and  C_9 
ROOT
ATOM      1  C   UNL d   1     -48.620  13.136  23.116  0.00  0.00     0.169 A 
ATOM      2  C   UNL d   1     -48.534  12.370  23.258  0.00  0.00     0.067 A 
ATOM      3  N   UNL d   1     -49.376  13.318  23.226  0.00  0.00    -0.212 N 
ATOM      4  C   UNL d   1     -49.242  12.074  23.457  0.00  0.00     0.116 A 
ATOM      5  N   UNL d   1     -49.758  12.661  23.436  0.00  0.00    -0.163 NA
ATOM      6  S   UNL d   1     -48.390  11.131  23.485  0.00  0.00     0.213 S 
ATOM      7  C   UNL d   1     -49.149  11.311  23.596  0.00  0.00     0.120 A 
ATOM      8  C   UNL d   1     -48.011  11.786  23.276  0.00  0.00     0.103 A 
ATOM      9  O   UNL d   1     -48.835  10.524  23.698  0.00  0.00    -0.217 OA
ATOM     10  O   UNL d   1     -47.727  11.026  23.378  0.00  0.00    -0.217 OA
ENDROOT
BRANCH   1  11
ATOM     11  N   UNL d   1     -47.931  13.233  22.961  0.00  0.00    -0.187 NA
ATOM     12  C   UNL d   1     -47.404  13.614  22.182  0.00  0.00     0.303 C 
ATOM     13  O   UNL d   1     -47.752  13.892  21.556  0.00  0.00    -0.263 OA
BRANCH  12  14
ATOM     14  C   UNL d   1     -46.575  13.626  22.222  0.00  0.00     0.158 A 
ATOM     15  O   UNL d   1     -46.040  13.166  21.753  0.00  0.00    -0.300 OA
ATOM     16  C   UNL d   1     -45.260  13.360  21.984  0.00  0.00     0.123 A 
ATOM     17  C   UNL d   1     -45.299  13.937  22.593  0.00  0.00     0.029 A 
ATOM     18  C   UNL d   1     -46.105  14.106  22.744  0.00  0.00     0.032 A 
ENDBRANCH  12  14
ENDBRANCH   1  11
BRANCH   3  19
ATOM     19  C   UNL d   1     -49.719  14.079  23.135  0.00  0.00     0.085 A 
ATOM     20  C   UNL d   1     -50.207  14.236  22.468  0.00  0.00     0.031 A 
ATOM     21  C   UNL d   1     -50.544  14.983  22.380  0.00  0.00     0.059 A 
ATOM     22 CL   UNL d   1     -51.033  15.154  21.721  0.00  0.00    -0.082 Cl
ATOM     23  C   UNL d   1     -50.398  15.587  22.956  0.00  0.00     0.011 A 
ATOM     24  C   UNL d   1     -49.910  15.415  23.615  0.00  0.00     0.002 A 
ATOM     25  C   UNL d   1     -49.576  14.666  23.697  0.00  0.00     0.019 A 
ENDBRANCH   3  19
TORSDOF 3
ENDMDL
MODEL 3
REMARK VINA RESULT:      -7.1      9.302     10.610
REMARK  3 active torsions:
REMARK  status: ('A' for Active; 'I' for Inactive)
REMARK    1  A    between atoms: N_7  and  C_1 
REMARK    2  A    between atoms: C_11  and  N_3 
REMARK       I    between atoms: C_9  and  N_7 
REMARK    3  A    between atoms: C_12  and  C_9 
ROOT
ATOM      1  C   UNL d   1     -40.078  14.888  18.684  0.00  0.00     0.169 A 
ATOM      2  C   UNL d   1     -40.474  15.090  18.038  0.00  0.00     0.067 A 
ATOM      3  N   UNL d   1     -40.333  15.339  19.274  0.00  0.00    -0.212 N 
ATOM      4  C   UNL d   1     -40.978  15.670  18.229  0.00  0.00     0.116 A 
ATOM      5  N   UNL d   1     -40.888  15.821  18.991  0.00  0.00    -0.163 NA
ATOM      6  S   UNL d   1     -41.112  15.413  16.991  0.00  0.00     0.213 S 
ATOM      7  C   UNL d   1     -41.369  15.867  17.581  0.00  0.00     0.120 A 
ATOM      8  C   UNL d   1     -40.559  14.933  17.275  0.00  0.00     0.103 A 
ATOM      9  O   UNL d   1     -41.669  15.922  16.785  0.00  0.00    -0.217 OA
ATOM     10  O   UNL d   1     -40.857  14.998  16.516  0.00  0.00    -0.217 OA
ENDROOT
BRANCH   1  11
ATOM     11  N   UNL d   1     -39.696  14.387  18.350  0.00  0.00    -0.187 NA
ATOM     12  C   UNL d   1     -38.709  14.192  18.212  0.00  0.00     0.303 C 
ATOM     13  O   UNL d   1     -38.163  14.646  18.507  0.00  0.00    -0.263 OA
BRANCH  12  14
ATOM     14  C   UNL d   1     -38.487  13.526  17.771  0.00  0.00     0.158 A 
ATOM     15  O   UNL d   1     -38.654  12.717  17.957  0.00  0.00    -0.300 OA
ATOM     16  C   UNL d   1     -38.323  12.238  17.357  0.00  0.00     0.123 A 
ATOM     17  C   UNL d   1     -37.948  12.738  16.795  0.00  0.00     0.029 A 
ATOM     18  C   UNL d   1     -38.045  13.532  17.044  0.00  0.00     0.032 A 
ENDBRANCH  12  14
ENDBRANCH   1  11
BRANCH   3  19
ATOM     19  C   UNL d   1     -40.062  15.313  20.068  0.00  0.00     0.085 A 
ATOM     20  C   UNL d   1     -40.276  14.663  20.558  0.00  0.00     0.031 A 
ATOM     21  C   UNL d   1     -40.010  14.638  21.337  0.00  0.00     0.059 A 
ATOM     22 CL   UNL d   1     -40.216  13.997  21.837  0.00  0.00    -0.082 Cl
ATOM     23  C   UNL d   1     -39.525  15.262  21.642  0.00  0.00     0.011 A 
ATOM     24  C   UNL d   1     -39.320  15.902  21.142  0.00  0.00     0.002 A 
ATOM     25  C   UNL d   1     -39.589  15.921  20.364  0.00  0.00     0.019 A 
ENDBRANCH   3  19
TORSDOF 3
ENDMDL
MODEL 4
REMARK VINA RESULT:      -6.6      1.458      2.846
REMARK  3 active torsions:
REMARK  status: ('A' for Active; 'I' for Inactive)
REMARK    1  A    between atoms: N_7  and  C_1 
REMARK    2  A    between atoms: C_11  and  N_3 
REMARK       I    between atoms: C_9  and  N_7 
REMARK    3  A    between atoms: C_12  and  C_9 
ROOT
ATOM      1  C   UNL d   1     -47.809  13.410  22.834  0.00  0.00     0.169 A 
ATOM      2  C   UNL d   1     -48.187  14.088  22.717  0.00  0.00     0.067 A 
ATOM      3  N   UNL d   1     -47.041  13.545  22.744  0.00  0.00    -0.212 N 
ATOM      4  C   UNL d   1     -47.649  14.645  22.553  0.00  0.00     0.116 A 
ATOM      5  N   UNL d   1     -46.944  14.308  22.570  0.00  0.00    -0.163 NA
ATOM      6  S   UNL d   1     -48.803  15.179  22.528  0.00  0.00     0.213 S 
ATOM      7  C   UNL d   1     -48.032  15.317  22.437  0.00  0.00     0.120 A 
ATOM      8  C   UNL d   1     -48.897  14.420  22.701  0.00  0.00     0.103 A 
ATOM      9  O   UNL d   1     -48.628  15.922  22.353  0.00  0.00    -0.217 OA
ATOM     10  O   UNL d   1     -49.455  15.011  22.616  0.00  0.00    -0.217 OA
ENDROOT
BRANCH   1  11
ATOM     11  N   UNL d   1     -48.407  13.044  22.961  0.00  0.00    -0.187 NA
ATOM     12  C   UNL d   1     -48.832  12.193  22.606  0.00  0.00     0.303 C 
ATOM     13  O   UNL d   1     -48.494  11.771  22.060  0.00  0.00    -0.263 OA
BRANCH  12  14
ATOM     14  C   UNL d   1     -49.562  11.948  22.913  0.00  0.00     0.158 A 
ATOM     15  O   UNL d   1     -50.330  12.149  22.615  0.00  0.00    -0.300 OA
ATOM     16  C   UNL d   1     -50.902  11.776  23.099  0.00  0.00     0.123 A 
ATOM     17  C   UNL d   1     -50.502  11.343  23.697  0.00  0.00     0.029 A 
ATOM     18  C   UNL d   1     -49.678  11.443  23.589  0.00  0.00     0.032 A 
ENDBRANCH  12  14
ENDBRANCH   1  11
BRANCH   3  19
ATOM     19  C   UNL d   1     -46.428  12.976  22.819  0.00  0.00     0.085 A 
ATOM     20  C   UNL d   1     -45.747  13.034  22.327  0.00  0.00     0.031 A 
ATOM     21  C   UNL d   1     -45.146  12.476  22.401  0.00  0.00     0.059 A 
ATOM     22 CL   UNL d   1     -44.462  12.521  21.919  0.00  0.00    -0.082 Cl
ATOM     23  C   UNL d   1     -45.213  11.849  22.968  0.00  0.00     0.011 A 
ATOM     24  C   UNL d   1     -45.897  11.805  23.449  0.00  0.00     0.002 A 
ATOM     25  C   UNL d   1     -46.495  12.366  23.371  0.00  0.00     0.019 A 
ENDBRANCH   3  19
TORSDOF 3
ENDMDL
MODEL 5
REMARK VINA RESULT:      -6.2      2.325      4.393
REMARK  3 active torsions:
REMARK  status: ('A' for Active; 'I' for Inactive)
REMARK    1  A    between atoms: N_7  and  C_1 
REMARK    2  A    between atoms: C_11  and  N_3 
REMARK       I    between atoms: C_9  and  N_7 
REMARK    3  A    between atoms: C_12  and  C_9 
ROOT
ATOM      1  C   UNL d   1     -47.980  13.353  22.964  0.00  0.00     0.169 A 
ATOM      2  C   UNL d   1     -47.428  13.900  22.861  0.00  0.00     0.067 A 
ATOM      3  N   UNL d   1     -48.679  13.691  22.848  0.00  0.00    -0.212 N 
ATOM      4  C   UNL d   1     -47.787  14.583  22.680  0.00  0.00     0.116 A 
ATOM      5  N   UNL d   1     -48.558  14.450  22.673  0.00  0.00    -0.163 NA
ATOM      6  S   UNL d   1     -46.532  14.781  22.696  0.00  0.00     0.213 S 
ATOM      7  C   UNL d   1     -47.232  15.123  22.579  0.00  0.00     0.120 A 
ATOM      8  C   UNL d   1     -46.654  14.026  22.870  0.00  0.00     0.103 A 
ATOM      9  O   UNL d   1     -46.491  15.542  22.517  0.00  0.00    -0.217 OA
ATOM     10  O   UNL d   1     -45.953  14.442  22.807  0.00  0.00    -0.217 OA
ENDROOT
BRANCH   1  11
ATOM     11  N   UNL d   1     -47.510  12.838  23.111  0.00  0.00    -0.187 NA
ATOM     12  C   UNL d   1     -47.391  11.862  22.856  0.00  0.00     0.303 C 
ATOM     13  O   UNL d   1     -47.887  11.503  22.392  0.00  0.00    -0.263 OA
BRANCH  12  14
ATOM     14  C   UNL d   1     -46.743  11.442  23.158  0.00  0.00     0.158 A 
ATOM     15  O   UNL d   1     -45.947  11.724  23.231  0.00  0.00    -0.300 OA
ATOM     16  C   UNL d   1     -45.484  11.111  23.562  0.00  0.00     0.123 A 
ATOM     17  C   UNL d   1     -45.980  10.447  23.698  0.00  0.00     0.029 A 
ATOM     18  C   UNL d   1     -46.756  10.643  23.451  0.00  0.00     0.032 A 
ENDBRANCH  12  14
ENDBRANCH   1  11
BRANCH   3  19
ATOM     19  C   UNL d   1     -49.426  13.312  22.901  0.00  0.00     0.085 A 
ATOM     20  C   UNL d   1     -49.868  13.169  22.199  0.00  0.00     0.031 A 
ATOM     21  C   UNL d   1     -50.601  12.797  22.250  0.00  0.00     0.059 A 
ATOM     22 CL   UNL d   1     -51.053  12.648  21.560  0.00  0.00    -0.082 Cl
ATOM     23  C   UNL d   1     -50.907  12.560  23.005  0.00  0.00     0.011 A 
ATOM     24  C   UNL d   1     -50.455  12.709  23.694  0.00  0.00     0.002 A 
ATOM     25  C   UNL d   1     -49.722  13.082  23.636  0.00  0.00     0.019 A 
ENDBRANCH   3  19
TORSDOF 3
ENDMDL
