MODEL 1
REMARK VINA RESULT:      -5.0      0.000      0.000
REMARK  5 active torsions:
REMARK  status: ('A' for Active; 'I' for Inactive)
REMARK    1  A    between atoms: C_13  and  C_2 
REMARK       I    between atoms: N_7  and  C_10 
REMARK    2  A    between atoms: S_14  and  C_8 
REMARK    3  A    between atoms: C_20  and  N_9 
REMARK    4  A    between atoms: C_10  and  C_19 
REMARK    5  A    between atoms: C_19  and  S_14 
ROOT
ATOM      1  S   UNL d   1     -45.520  13.042  22.354  0.00  0.00    -0.061 SA
ENDROOT
BRANCH   1   2
ATOM      2  C   UNL d   1     -46.147  13.563  22.485  0.00  0.00     0.131 A 
ATOM      3  N   UNL d   1     -46.925  13.287  22.474  0.00  0.00    -0.156 NA
ATOM      4  N   UNL d   1     -47.562  13.816  22.608  0.00  0.00    -0.191 N 
ATOM      5  C   UNL d   1     -48.372  13.697  22.628  0.00  0.00     0.187 A 
ATOM      6  C   UNL d   1     -47.403  14.607  22.748  0.00  0.00     0.187 A 
ATOM      7  N   UNL d   1     -48.728  14.419  22.783  0.00  0.00    -0.127 NA
ATOM      8  N   UNL d   1     -48.135  14.989  22.859  0.00  0.00    -0.127 NA
ATOM      9  C   UNL d   1     -46.625  14.884  22.759  0.00  0.00     0.043 A 
ATOM     10  C   UNL d   1     -45.998  14.362  22.628  0.00  0.00     0.031 A 
BRANCH   5  11
ATOM     11  C   UNL d   1     -48.765  12.987  22.515  0.00  0.00     0.038 A 
ATOM     12  C   UNL d   1     -48.903  12.484  23.146  0.00  0.00     0.003 A 
ATOM     13  C   UNL d   1     -49.299  11.766  23.035  0.00  0.00     0.000 A 
ATOM     14  C   UNL d   1     -49.557  11.561  22.275  0.00  0.00     0.000 A 
ATOM     15  C   UNL d   1     -49.420  12.064  21.636  0.00  0.00     0.000 A 
ATOM     16  C   UNL d   1     -49.023  12.781  21.756  0.00  0.00     0.003 A 
ENDBRANCH   5  11
ENDBRANCH   1   2
BRANCH   1  17
ATOM     17  C   UNL d   1     -44.831  13.312  21.994  0.00  0.00     0.098 C 
BRANCH  17  18
ATOM     18  C   UNL d   1     -44.199  12.803  21.895  0.00  0.00     0.272 C 
ATOM     19  N   UNL d   1     -43.482  13.095  21.608  0.00  0.00    -0.269 N 
ATOM     20  C   UNL d   1     -42.853  12.587  21.510  0.00  0.00     0.102 A 
ATOM     21  C   UNL d   1     -43.410  13.897  21.424  0.00  0.00     0.102 A 
ATOM     22  C   UNL d   1     -42.146  12.872  21.228  0.00  0.00     0.100 A 
ATOM     23  N   UNL d   1     -42.058  13.672  21.039  0.00  0.00    -0.301 N 
ATOM     24  C   UNL d   1     -42.699  14.182  21.140  0.00  0.00     0.100 A 
ATOM     25  O   UNL d   1     -44.274  12.005  22.080  0.00  0.00    -0.266 OA
BRANCH  23  26
ATOM     26  C   UNL d   1     -41.343  13.952  20.755  0.00  0.00     0.064 A 
ATOM     27  C   UNL d   1     -41.236  14.079  19.950  0.00  0.00     0.018 A 
ATOM     28  C   UNL d   1     -40.511  14.362  19.669  0.00  0.00     0.002 A 
ATOM     29  C   UNL d   1     -39.904  14.515  20.194  0.00  0.00     0.000 A 
ATOM     30  C   UNL d   1     -40.007  14.388  21.013  0.00  0.00     0.002 A 
ATOM     31  C   UNL d   1     -40.728  14.106  21.286  0.00  0.00     0.018 A 
ENDBRANCH  23  26
ENDBRANCH  17  18
ENDBRANCH   1  17
TORSDOF 5
ENDMDL
MODEL 2
REMARK VINA RESULT:      -5.0      1.691      6.882
REMARK  5 active torsions:
REMARK  status: ('A' for Active; 'I' for Inactive)
REMARK    1  A    between atoms: C_13  and  C_2 
REMARK       I    between atoms: N_7  and  C_10 
REMARK    2  A    between atoms: S_14  and  C_8 
REMARK    3  A    between atoms: C_20  and  N_9 
REMARK    4  A    between atoms: C_10  and  C_19 
REMARK    5  A    between atoms: C_19  and  S_14 
ROOT
ATOM      1  S   UNL d   1     -42.021  13.473  20.789  0.00  0.00    -0.061 SA
ENDROOT
BRANCH   1   2
ATOM      2  C   UNL d   1     -41.471  14.088  20.756  0.00  0.00     0.131 A 
ATOM      3  N   UNL d   1     -41.186  14.350  20.027  0.00  0.00    -0.156 NA
ATOM      4  N   UNL d   1     -40.627  14.975  19.993  0.00  0.00    -0.191 N 
ATOM      5  C   UNL d   1     -40.257  15.339  19.359  0.00  0.00     0.187 A 
ATOM      6  C   UNL d   1     -40.369  15.320  20.690  0.00  0.00     0.187 A 
ATOM      7  N   UNL d   1     -39.761  15.920  19.658  0.00  0.00    -0.127 NA
ATOM      8  N   UNL d   1     -39.824  15.915  20.481  0.00  0.00    -0.127 NA
ATOM      9  C   UNL d   1     -40.654  15.059  21.419  0.00  0.00     0.043 A 
ATOM     10  C   UNL d   1     -41.205  14.444  21.452  0.00  0.00     0.031 A 
BRANCH   5  11
ATOM     11  C   UNL d   1     -40.358  15.161  18.566  0.00  0.00     0.038 A 
ATOM     12  C   UNL d   1     -40.903  15.573  18.114  0.00  0.00     0.003 A 
ATOM     13  C   UNL d   1     -41.007  15.395  17.313  0.00  0.00     0.000 A 
ATOM     14  C   UNL d   1     -40.553  14.794  16.970  0.00  0.00     0.000 A 
ATOM     15  C   UNL d   1     -40.002  14.376  17.420  0.00  0.00     0.000 A 
ATOM     16  C   UNL d   1     -39.904  14.560  18.223  0.00  0.00     0.003 A 
ENDBRANCH   5  11
ENDBRANCH   1   2
BRANCH   1  17
ATOM     17  C   UNL d   1     -42.725  13.574  21.205  0.00  0.00     0.098 C 
BRANCH  17  18
ATOM     18  C   UNL d   1     -43.173  12.921  21.408  0.00  0.00     0.272 C 
ATOM     19  N   UNL d   1     -43.936  13.029  21.702  0.00  0.00    -0.269 N 
ATOM     20  C   UNL d   1     -44.382  12.377  21.905  0.00  0.00     0.102 A 
ATOM     21  C   UNL d   1     -44.240  13.792  21.788  0.00  0.00     0.102 A 
ATOM     22  C   UNL d   1     -45.134  12.479  22.195  0.00  0.00     0.100 A 
ATOM     23  N   UNL d   1     -45.453  13.237  22.287  0.00  0.00    -0.301 N 
ATOM     24  C   UNL d   1     -44.997  13.892  22.080  0.00  0.00     0.100 A 
ATOM     25  O   UNL d   1     -42.867  12.163  21.322  0.00  0.00    -0.266 OA
BRANCH  23  26
ATOM     26  C   UNL d   1     -46.212  13.332  22.579  0.00  0.00     0.064 A 
ATOM     27  C   UNL d   1     -46.592  14.059  22.524  0.00  0.00     0.018 A 
ATOM     28  C   UNL d   1     -47.358  14.149  22.821  0.00  0.00     0.002 A 
ATOM     29  C   UNL d   1     -47.735  13.513  23.170  0.00  0.00     0.000 A 
ATOM     30  C   UNL d   1     -47.355  12.772  23.229  0.00  0.00     0.002 A 
ATOM     31  C   UNL d   1     -46.594  12.689  22.932  0.00  0.00     0.018 A 
ENDBRANCH  23  26
ENDBRANCH  17  18
ENDBRANCH   1  17
TORSDOF 5
ENDMDL
MODEL 3
REMARK VINA RESULT:      -4.8      1.697      7.014
REMARK  5 active torsions:
REMARK  status: ('A' for Active; 'I' for Inactive)
REMARK    1  A    between atoms: C_13  and  C_2 
REMARK       I    between atoms: N_7  and  C_10 
REMARK    2  A    between atoms: S_14  and  C_8 
REMARK    3  A    between atoms: C_20  and  N_9 
REMARK    4  A    between atoms: C_10  and  C_19 
REMARK    5  A    between atoms: C_19  and  S_14 
ROOT
ATOM      1  S   UNL d   1     -42.076  13.448  20.952  0.00  0.00    -0.061 SA
ENDROOT
BRANCH   1   2
ATOM      2  C   UNL d   1     -41.561  14.093  20.958  0.00  0.00     0.131 A 
ATOM      3  N   UNL d   1     -40.784  14.001  21.222  0.00  0.00    -0.156 NA
ATOM      4  N   UNL d   1     -40.261  14.657  21.228  0.00  0.00    -0.191 N 
ATOM      5  C   UNL d   1     -39.477  14.724  21.456  0.00  0.00     0.187 A 
ATOM      6  C   UNL d   1     -40.530  15.386  20.969  0.00  0.00     0.187 A 
ATOM      7  N   UNL d   1     -39.248  15.504  21.341  0.00  0.00    -0.127 NA
ATOM      8  N   UNL d   1     -39.894  15.920  21.039  0.00  0.00    -0.127 NA
ATOM      9  C   UNL d   1     -41.306  15.478  20.705  0.00  0.00     0.043 A 
ATOM     10  C   UNL d   1     -41.821  14.833  20.699  0.00  0.00     0.031 A 
BRANCH   5  11
ATOM     11  C   UNL d   1     -39.000  14.126  21.749  0.00  0.00     0.038 A 
ATOM     12  C   UNL d   1     -39.023  13.927  22.543  0.00  0.00     0.003 A 
ATOM     13  C   UNL d   1     -38.542  13.324  22.841  0.00  0.00     0.000 A 
ATOM     14  C   UNL d   1     -38.035  12.921  22.327  0.00  0.00     0.000 A 
ATOM     15  C   UNL d   1     -38.007  13.117  21.526  0.00  0.00     0.000 A 
ATOM     16  C   UNL d   1     -38.492  13.723  21.235  0.00  0.00     0.003 A 
ENDBRANCH   5  11
ENDBRANCH   1   2
BRANCH   1  17
ATOM     17  C   UNL d   1     -42.812  13.507  21.316  0.00  0.00     0.098 C 
BRANCH  17  18
ATOM     18  C   UNL d   1     -43.201  12.830  21.558  0.00  0.00     0.272 C 
ATOM     19  N   UNL d   1     -43.981  12.882  21.823  0.00  0.00    -0.269 N 
ATOM     20  C   UNL d   1     -44.367  12.206  22.063  0.00  0.00     0.102 A 
ATOM     21  C   UNL d   1     -44.360  13.615  21.841  0.00  0.00     0.102 A 
ATOM     22  C   UNL d   1     -45.135  12.254  22.325  0.00  0.00     0.100 A 
ATOM     23  N   UNL d   1     -45.529  12.980  22.349  0.00  0.00    -0.301 N 
ATOM     24  C   UNL d   1     -45.133  13.661  22.104  0.00  0.00     0.100 A 
ATOM     25  O   UNL d   1     -42.820  12.102  21.538  0.00  0.00    -0.266 OA
BRANCH  23  26
ATOM     26  C   UNL d   1     -46.303  13.021  22.614  0.00  0.00     0.064 A 
ATOM     27  C   UNL d   1     -46.858  13.475  22.212  0.00  0.00     0.018 A 
ATOM     28  C   UNL d   1     -47.638  13.512  22.483  0.00  0.00     0.002 A 
ATOM     29  C   UNL d   1     -47.854  13.095  23.153  0.00  0.00     0.000 A 
ATOM     30  C   UNL d   1     -47.296  12.633  23.566  0.00  0.00     0.002 A 
ATOM     31  C   UNL d   1     -46.522  12.600  23.291  0.00  0.00     0.018 A 
ENDBRANCH  23  26
ENDBRANCH  17  18
ENDBRANCH   1  17
TORSDOF 5
ENDMDL
MODEL 4
REMARK VINA RESULT:      -4.1      1.823      2.966
REMARK  5 active torsions:
REMARK  status: ('A' for Active; 'I' for Inactive)
REMARK    1  A    between atoms: C_13  and  C_2 
REMARK       I    between atoms: N_7  and  C_10 
REMARK    2  A    between atoms: S_14  and  C_8 
REMARK    3  A    between atoms: C_20  and  N_9 
REMARK    4  A    between atoms: C_10  and  C_19 
REMARK    5  A    between atoms: C_19  and  S_14 
ROOT
ATOM      1  S   UNL d   1     -43.418  12.859  21.202  0.00  0.00    -0.061 SA
ENDROOT
BRANCH   1   2
ATOM      2  C   UNL d   1     -43.821  12.465  21.806  0.00  0.00     0.131 A 
ATOM      3  N   UNL d   1     -44.568  12.725  22.043  0.00  0.00    -0.156 NA
ATOM      4  N   UNL d   1     -44.977  12.325  22.657  0.00  0.00    -0.191 N 
ATOM      5  C   UNL d   1     -45.711  12.459  22.997  0.00  0.00     0.187 A 
ATOM      6  C   UNL d   1     -44.628  11.677  23.016  0.00  0.00     0.187 A 
ATOM      7  N   UNL d   1     -45.825  11.890  23.577  0.00  0.00    -0.127 NA
ATOM      8  N   UNL d   1     -45.160  11.402  23.595  0.00  0.00    -0.127 NA
ATOM      9  C   UNL d   1     -43.882  11.417  22.779  0.00  0.00     0.043 A 
ATOM     10  C   UNL d   1     -43.479  11.811  22.175  0.00  0.00     0.031 A 
BRANCH   5  11
ATOM     11  C   UNL d   1     -46.241  13.053  22.801  0.00  0.00     0.038 A 
ATOM     12  C   UNL d   1     -46.840  12.911  22.261  0.00  0.00     0.003 A 
ATOM     13  C   UNL d   1     -47.376  13.509  22.060  0.00  0.00     0.000 A 
ATOM     14  C   UNL d   1     -47.301  14.254  22.413  0.00  0.00     0.000 A 
ATOM     15  C   UNL d   1     -46.699  14.401  22.957  0.00  0.00     0.000 A 
ATOM     16  C   UNL d   1     -46.166  13.798  23.153  0.00  0.00     0.003 A 
ENDBRANCH   5  11
ENDBRANCH   1   2
BRANCH   1  17
ATOM     17  C   UNL d   1     -42.661  13.152  21.338  0.00  0.00     0.098 C 
BRANCH  17  18
ATOM     18  C   UNL d   1     -42.213  13.422  20.710  0.00  0.00     0.272 C 
ATOM     19  N   UNL d   1     -41.500  13.812  20.857  0.00  0.00    -0.269 N 
ATOM     20  C   UNL d   1     -41.054  14.080  20.230  0.00  0.00     0.102 A 
ATOM     21  C   UNL d   1     -41.247  13.924  21.636  0.00  0.00     0.102 A 
ATOM     22  C   UNL d   1     -40.352  14.464  20.373  0.00  0.00     0.100 A 
ATOM     23  N   UNL d   1     -40.084  14.585  21.146  0.00  0.00    -0.301 N 
ATOM     24  C   UNL d   1     -40.541  14.310  21.776  0.00  0.00     0.100 A 
ATOM     25  O   UNL d   1     -42.468  13.308  19.937  0.00  0.00    -0.266 OA
BRANCH  23  26
ATOM     26  C   UNL d   1     -39.376  14.972  21.282  0.00  0.00     0.064 A 
ATOM     27  C   UNL d   1     -38.718  14.813  20.815  0.00  0.00     0.018 A 
ATOM     28  C   UNL d   1     -38.005  15.207  20.956  0.00  0.00     0.002 A 
ATOM     29  C   UNL d   1     -37.958  15.755  21.562  0.00  0.00     0.000 A 
ATOM     30  C   UNL d   1     -38.622  15.921  22.039  0.00  0.00     0.002 A 
ATOM     31  C   UNL d   1     -39.328  15.527  21.894  0.00  0.00     0.018 A 
ENDBRANCH  23  26
ENDBRANCH  17  18
ENDBRANCH   1  17
TORSDOF 5
ENDMDL
MODEL 5
REMARK VINA RESULT:      -4.1      1.509      2.713
REMARK  5 active torsions:
REMARK  status: ('A' for Active; 'I' for Inactive)
REMARK    1  A    between atoms: C_13  and  C_2 
REMARK       I    between atoms: N_7  and  C_10 
REMARK    2  A    between atoms: S_14  and  C_8 
REMARK    3  A    between atoms: C_20  and  N_9 
REMARK    4  A    between atoms: C_10  and  C_19 
REMARK    5  A    between atoms: C_19  and  S_14 
ROOT
ATOM      1  S   UNL d   1     -47.402  12.107  23.417  0.00  0.00    -0.061 SA
ENDROOT
BRANCH   1   2
ATOM      2  C   UNL d   1     -48.149  12.136  23.065  0.00  0.00     0.131 A 
ATOM      3  N   UNL d   1     -48.559  12.850  23.022  0.00  0.00    -0.156 NA
ATOM      4  N   UNL d   1     -49.318  12.879  22.664  0.00  0.00    -0.191 N 
ATOM      5  C   UNL d   1     -49.840  13.500  22.547  0.00  0.00     0.187 A 
ATOM      6  C   UNL d   1     -49.644  12.192  22.360  0.00  0.00     0.187 A 
ATOM      7  N   UNL d   1     -50.502  13.202  22.165  0.00  0.00    -0.127 NA
ATOM      8  N   UNL d   1     -50.389  12.393  22.046  0.00  0.00    -0.127 NA
ATOM      9  C   UNL d   1     -49.234  11.478  22.403  0.00  0.00     0.043 A 
ATOM     10  C   UNL d   1     -48.487  11.449  22.756  0.00  0.00     0.031 A 
BRANCH   5  11
ATOM     11  C   UNL d   1     -49.728  14.281  22.768  0.00  0.00     0.038 A 
ATOM     12  C   UNL d   1     -50.038  14.562  23.473  0.00  0.00     0.003 A 
ATOM     13  C   UNL d   1     -49.927  15.349  23.698  0.00  0.00     0.000 A 
ATOM     14  C   UNL d   1     -49.498  15.855  23.202  0.00  0.00     0.000 A 
ATOM     15  C   UNL d   1     -49.184  15.578  22.491  0.00  0.00     0.000 A 
ATOM     16  C   UNL d   1     -49.300  14.787  22.272  0.00  0.00     0.003 A 
ENDBRANCH   5  11
ENDBRANCH   1   2
BRANCH   1  17
ATOM     17  C   UNL d   1     -46.742  12.365  22.999  0.00  0.00     0.098 C 
BRANCH  17  18
ATOM     18  C   UNL d   1     -46.023  11.991  23.107  0.00  0.00     0.272 C 
ATOM     19  N   UNL d   1     -45.355  12.274  22.713  0.00  0.00    -0.269 N 
ATOM     20  C   UNL d   1     -44.638  11.901  22.823  0.00  0.00     0.102 A 
ATOM     21  C   UNL d   1     -45.418  12.930  22.215  0.00  0.00     0.102 A 
ATOM     22  C   UNL d   1     -43.979  12.177  22.436  0.00  0.00     0.100 A 
ATOM     23  N   UNL d   1     -44.026  12.832  21.933  0.00  0.00    -0.301 N 
ATOM     24  C   UNL d   1     -44.754  13.205  21.827  0.00  0.00     0.100 A 
ATOM     25  O   UNL d   1     -45.963  11.339  23.604  0.00  0.00    -0.266 OA
BRANCH  23  26
ATOM     26  C   UNL d   1     -43.357  13.105  21.547  0.00  0.00     0.064 A 
ATOM     27  C   UNL d   1     -43.236  13.911  21.443  0.00  0.00     0.018 A 
ATOM     28  C   UNL d   1     -42.559  14.181  21.053  0.00  0.00     0.002 A 
ATOM     29  C   UNL d   1     -42.012  13.642  20.771  0.00  0.00     0.000 A 
ATOM     30  C   UNL d   1     -42.129  12.822  20.874  0.00  0.00     0.002 A 
ATOM     31  C   UNL d   1     -42.804  12.560  21.263  0.00  0.00     0.018 A 
ENDBRANCH  23  26
ENDBRANCH  17  18
ENDBRANCH   1  17
TORSDOF 5
ENDMDL
MODEL 6
REMARK VINA RESULT:      -2.2      1.574      2.414
REMARK  5 active torsions:
REMARK  status: ('A' for Active; 'I' for Inactive)
REMARK    1  A    between atoms: C_13  and  C_2 
REMARK       I    between atoms: N_7  and  C_10 
REMARK    2  A    between atoms: S_14  and  C_8 
REMARK    3  A    between atoms: C_20  and  N_9 
REMARK    4  A    between atoms: C_10  and  C_19 
REMARK    5  A    between atoms: C_19  and  S_14 
ROOT
ATOM      1  S   UNL d   1     -46.719  12.715  23.363  0.00  0.00    -0.061 SA
ENDROOT
BRANCH   1   2
ATOM      2  C   UNL d   1     -47.405  12.258  23.411  0.00  0.00     0.131 A 
ATOM      3  N   UNL d   1     -48.137  12.589  23.223  0.00  0.00    -0.156 NA
ATOM      4  N   UNL d   1     -48.834  12.124  23.273  0.00  0.00    -0.191 N 
ATOM      5  C   UNL d   1     -49.619  12.305  23.122  0.00  0.00     0.187 A 
ATOM      6  C   UNL d   1     -48.779  11.342  23.509  0.00  0.00     0.187 A 
ATOM      7  N   UNL d   1     -50.063  11.631  23.264  0.00  0.00    -0.127 NA
ATOM      8  N   UNL d   1     -49.550  11.029  23.504  0.00  0.00    -0.127 NA
ATOM      9  C   UNL d   1     -48.046  11.011  23.697  0.00  0.00     0.043 A 
ATOM     10  C   UNL d   1     -47.360  11.469  23.648  0.00  0.00     0.031 A 
BRANCH   5  11
ATOM     11  C   UNL d   1     -49.916  13.028  22.874  0.00  0.00     0.038 A 
ATOM     12  C   UNL d   1     -50.045  13.631  23.413  0.00  0.00     0.003 A 
ATOM     13  C   UNL d   1     -50.345  14.360  23.164  0.00  0.00     0.000 A 
ATOM     14  C   UNL d   1     -50.513  14.476  22.362  0.00  0.00     0.000 A 
ATOM     15  C   UNL d   1     -50.385  13.872  21.816  0.00  0.00     0.000 A 
ATOM     16  C   UNL d   1     -50.084  13.144  22.072  0.00  0.00     0.003 A 
ENDBRANCH   5  11
ENDBRANCH   1   2
BRANCH   1  17
ATOM     17  C   UNL d   1     -46.340  12.811  22.638  0.00  0.00     0.098 C 
BRANCH  17  18
ATOM     18  C   UNL d   1     -45.971  13.519  22.463  0.00  0.00     0.272 C 
ATOM     19  N   UNL d   1     -45.199  13.514  22.174  0.00  0.00    -0.269 N 
ATOM     20  C   UNL d   1     -44.833  14.222  22.000  0.00  0.00     0.102 A 
ATOM     21  C   UNL d   1     -44.806  12.796  22.063  0.00  0.00     0.102 A 
ATOM     22  C   UNL d   1     -44.071  14.220  21.714  0.00  0.00     0.100 A 
ATOM     23  N   UNL d   1     -43.664  13.510  21.598  0.00  0.00    -0.301 N 
ATOM     24  C   UNL d   1     -44.040  12.797  21.776  0.00  0.00     0.100 A 
ATOM     25  O   UNL d   1     -46.366  14.232  22.574  0.00  0.00    -0.266 OA
BRANCH  23  26
ATOM     26  C   UNL d   1     -42.897  13.516  21.311  0.00  0.00     0.064 A 
ATOM     27  C   UNL d   1     -42.512  12.811  21.136  0.00  0.00     0.018 A 
ATOM     28  C   UNL d   1     -41.738  12.824  20.846  0.00  0.00     0.002 A 
ATOM     29  C   UNL d   1     -41.359  13.539  20.733  0.00  0.00     0.000 A 
ATOM     30  C   UNL d   1     -41.745  14.259  20.909  0.00  0.00     0.002 A 
ATOM     31  C   UNL d   1     -42.514  14.240  21.197  0.00  0.00     0.018 A 
ENDBRANCH  23  26
ENDBRANCH  17  18
ENDBRANCH   1  17
TORSDOF 5
ENDMDL
