MODEL 1
REMARK VINA RESULT:      -6.1      0.000      0.000
REMARK  3 active torsions:
REMARK  status: ('A' for Active; 'I' for Inactive)
REMARK    1  A    between atoms: C_8  and  C_2 
REMARK    2  A    between atoms: O_11  and  C_8 
REMARK    3  A    between atoms: C_12  and  O_11 
ROOT
ATOM      1  O   UNL d   1      57.382  -1.203  30.800  0.00  0.00    -0.302 OA
ENDROOT
BRANCH   1   2
ATOM      2  C   UNL d   1      57.963  -0.840  30.334  0.00  0.00     0.161 C 
BRANCH   2   3
ATOM      3  C   UNL d   1      58.487  -1.302  29.896  0.00  0.00     0.188 A 
ATOM      4  N   UNL d   1      59.263  -1.067  29.647  0.00  0.00    -0.224 NA
ATOM      5  C   UNL d   1      59.586  -1.682  29.234  0.00  0.00     0.101 A 
ATOM      6  C   UNL d   1      59.012  -2.316  29.217  0.00  0.00     0.101 A 
ATOM      7  C   UNL d   1      60.313  -1.814  28.848  0.00  0.00     0.021 A 
ATOM      8  C   UNL d   1      59.190  -3.022  28.830  0.00  0.00     0.021 A 
ATOM      9  N   UNL d   1      58.359  -2.067  29.621  0.00  0.00    -0.224 NA
ATOM     10  C   UNL d   1      59.920  -3.117  28.459  0.00  0.00     0.002 A 
ATOM     11  C   UNL d   1      60.474  -2.505  28.475  0.00  0.00     0.002 A 
ENDBRANCH   2   3
ENDBRANCH   1   2
BRANCH   1  12
ATOM     12  C   UNL d   1      57.018  -0.750  31.386  0.00  0.00     0.100 A 
ATOM     13  C   UNL d   1      56.569  -1.071  31.970  0.00  0.00     0.025 A 
ATOM     14  C   UNL d   1      56.217  -0.594  32.544  0.00  0.00     0.002 A 
ATOM     15  C   UNL d   1      55.748  -0.954  33.149  0.00  0.00     0.000 A 
ATOM     16  C   UNL d   1      56.314   0.205  32.533  0.00  0.00     0.000 A 
ATOM     17  C   UNL d   1      55.396  -0.477  33.723  0.00  0.00     0.000 A 
ATOM     18  C   UNL d   1      55.499   0.378  33.711  0.00  0.00     0.000 A 
ATOM     19  C   UNL d   1      55.961   0.682  33.106  0.00  0.00     0.000 A 
ATOM     20  C   UNL d   1      56.785   0.569  31.925  0.00  0.00     0.002 A 
ATOM     21  C   UNL d   1      57.137   0.092  31.352  0.00  0.00     0.025 A 
ENDBRANCH   1  12
TORSDOF 3
ENDMDL
MODEL 2
REMARK VINA RESULT:      -5.6      1.190      5.047
REMARK  3 active torsions:
REMARK  status: ('A' for Active; 'I' for Inactive)
REMARK    1  A    between atoms: C_8  and  C_2 
REMARK    2  A    between atoms: O_11  and  C_8 
REMARK    3  A    between atoms: C_12  and  O_11 
ROOT
ATOM      1  O   UNL d   1      57.766  -0.660  30.167  0.00  0.00    -0.302 OA
ENDROOT
BRANCH   1   2
ATOM      2  C   UNL d   1      57.762  -0.098  30.777  0.00  0.00     0.161 C 
BRANCH   2   3
ATOM      3  C   UNL d   1      57.203  -0.152  31.382  0.00  0.00     0.188 A 
ATOM      4  N   UNL d   1      56.861   0.504  31.796  0.00  0.00    -0.224 NA
ATOM      5  C   UNL d   1      56.343   0.207  32.340  0.00  0.00     0.101 A 
ATOM      6  C   UNL d   1      56.354  -0.646  32.275  0.00  0.00     0.101 A 
ATOM      7  C   UNL d   1      55.837   0.541  32.913  0.00  0.00     0.021 A 
ATOM      8  C   UNL d   1      55.876  -1.103  32.767  0.00  0.00     0.021 A 
ATOM      9  N   UNL d   1      56.878  -0.840  31.693  0.00  0.00    -0.224 NA
ATOM     10  C   UNL d   1      55.386  -0.738  33.322  0.00  0.00     0.002 A 
ATOM     11  C   UNL d   1      55.376   0.085  33.386  0.00  0.00     0.002 A 
ENDBRANCH   2   3
ENDBRANCH   1   2
BRANCH   1  12
ATOM     12  C   UNL d   1      58.482  -0.811  29.786  0.00  0.00     0.100 A 
ATOM     13  C   UNL d   1      58.738  -1.553  29.615  0.00  0.00     0.025 A 
ATOM     14  C   UNL d   1      59.459  -1.676  29.233  0.00  0.00     0.002 A 
ATOM     15  C   UNL d   1      59.707  -2.467  29.064  0.00  0.00     0.000 A 
ATOM     16  C   UNL d   1      59.924  -1.055  29.022  0.00  0.00     0.000 A 
ATOM     17  C   UNL d   1      60.428  -2.589  28.682  0.00  0.00     0.000 A 
ATOM     18  C   UNL d   1      60.927  -1.924  28.455  0.00  0.00     0.000 A 
ATOM     19  C   UNL d   1      60.645  -1.177  28.639  0.00  0.00     0.000 A 
ATOM     20  C   UNL d   1      59.676  -0.259  29.191  0.00  0.00     0.002 A 
ATOM     21  C   UNL d   1      58.955  -0.137  29.573  0.00  0.00     0.025 A 
ENDBRANCH   1  12
TORSDOF 3
ENDMDL
MODEL 3
REMARK VINA RESULT:      -5.4      1.214      1.689
REMARK  3 active torsions:
REMARK  status: ('A' for Active; 'I' for Inactive)
REMARK    1  A    between atoms: C_8  and  C_2 
REMARK    2  A    between atoms: O_11  and  C_8 
REMARK    3  A    between atoms: C_12  and  O_11 
ROOT
ATOM      1  O   UNL d   1      57.208  -0.356  31.690  0.00  0.00    -0.302 OA
ENDROOT
BRANCH   1   2
ATOM      2  C   UNL d   1      57.309   0.200  31.083  0.00  0.00     0.161 C 
BRANCH   2   3
ATOM      3  C   UNL d   1      57.841   0.049  30.471  0.00  0.00     0.188 A 
ATOM      4  N   UNL d   1      58.381   0.611  30.136  0.00  0.00    -0.224 NA
ATOM      5  C   UNL d   1      58.797   0.235  29.554  0.00  0.00     0.101 A 
ATOM      6  C   UNL d   1      58.521  -0.573  29.515  0.00  0.00     0.101 A 
ATOM      7  C   UNL d   1      59.398   0.461  29.022  0.00  0.00     0.021 A 
ATOM      8  C   UNL d   1      58.849  -1.094  28.967  0.00  0.00     0.021 A 
ATOM      9  N   UNL d   1      57.947  -0.664  30.075  0.00  0.00    -0.224 NA
ATOM     10  C   UNL d   1      59.443  -0.836  28.455  0.00  0.00     0.002 A 
ATOM     11  C   UNL d   1      59.709  -0.055  28.493  0.00  0.00     0.002 A 
ENDBRANCH   2   3
ENDBRANCH   1   2
BRANCH   1  12
ATOM     12  C   UNL d   1      56.851  -0.103  32.390  0.00  0.00     0.100 A 
ATOM     13  C   UNL d   1      56.062  -0.171  32.526  0.00  0.00     0.025 A 
ATOM     14  C   UNL d   1      55.731   0.090  33.235  0.00  0.00     0.002 A 
ATOM     15  C   UNL d   1      54.898   0.008  33.357  0.00  0.00     0.000 A 
ATOM     16  C   UNL d   1      56.190   0.420  33.808  0.00  0.00     0.000 A 
ATOM     17  C   UNL d   1      54.567   0.269  34.067  0.00  0.00     0.000 A 
ATOM     18  C   UNL d   1      55.058   0.623  34.679  0.00  0.00     0.000 A 
ATOM     19  C   UNL d   1      55.859   0.682  34.517  0.00  0.00     0.000 A 
ATOM     20  C   UNL d   1      57.028   0.505  33.687  0.00  0.00     0.002 A 
ATOM     21  C   UNL d   1      57.358   0.243  32.978  0.00  0.00     0.025 A 
ENDBRANCH   1  12
TORSDOF 3
ENDMDL
MODEL 4
REMARK VINA RESULT:      -3.8      8.532      9.615
REMARK  3 active torsions:
REMARK  status: ('A' for Active; 'I' for Inactive)
REMARK    1  A    between atoms: C_8  and  C_2 
REMARK    2  A    between atoms: O_11  and  C_8 
REMARK    3  A    between atoms: C_12  and  O_11 
ROOT
ATOM      1  O   UNL d   1      58.651  -9.818  32.813  0.00  0.00    -0.302 OA
ENDROOT
BRANCH   1   2
ATOM      2  C   UNL d   1      59.314  -9.335  32.929  0.00  0.00     0.161 C 
BRANCH   2   3
ATOM      3  C   UNL d   1      59.549  -9.135  33.694  0.00  0.00     0.188 A 
ATOM      4  N   UNL d   1      60.007  -9.626  34.213  0.00  0.00    -0.224 NA
ATOM      5  C   UNL d   1      60.111  -9.221  34.904  0.00  0.00     0.101 A 
ATOM      6  C   UNL d   1      59.718  -8.466  34.828  0.00  0.00     0.101 A 
ATOM      7  C   UNL d   1      60.498  -9.380  35.626  0.00  0.00     0.021 A 
ATOM      8  C   UNL d   1      59.731  -7.929  35.454  0.00  0.00     0.021 A 
ATOM      9  N   UNL d   1      59.386  -8.435  34.093  0.00  0.00    -0.224 NA
ATOM     10  C   UNL d   1      60.124  -8.121  36.154  0.00  0.00     0.002 A 
ATOM     11  C   UNL d   1      60.504  -8.850  36.228  0.00  0.00     0.002 A 
ENDBRANCH   2   3
ENDBRANCH   1   2
BRANCH   1  12
ATOM     12  C   UNL d   1      58.291  -9.808  32.070  0.00  0.00     0.100 A 
ATOM     13  C   UNL d   1      58.709  -9.812  31.383  0.00  0.00     0.025 A 
ATOM     14  C   UNL d   1      58.323  -9.802  30.654  0.00  0.00     0.002 A 
ATOM     15  C   UNL d   1      58.784  -9.807  29.944  0.00  0.00     0.000 A 
ATOM     16  C   UNL d   1      57.520  -9.787  30.611  0.00  0.00     0.000 A 
ATOM     17  C   UNL d   1      58.398  -9.796  29.214  0.00  0.00     0.000 A 
ATOM     18  C   UNL d   1      57.539  -9.780  29.169  0.00  0.00     0.000 A 
ATOM     19  C   UNL d   1      57.135  -9.776  29.882  0.00  0.00     0.000 A 
ATOM     20  C   UNL d   1      57.055  -9.782  31.324  0.00  0.00     0.002 A 
ATOM     21  C   UNL d   1      57.441  -9.792  32.053  0.00  0.00     0.025 A 
ENDBRANCH   1  12
TORSDOF 3
ENDMDL
MODEL 5
REMARK VINA RESULT:      -3.7      1.051      5.243
REMARK  3 active torsions:
REMARK  status: ('A' for Active; 'I' for Inactive)
REMARK    1  A    between atoms: C_8  and  C_2 
REMARK    2  A    between atoms: O_11  and  C_8 
REMARK    3  A    between atoms: C_12  and  O_11 
ROOT
ATOM      1  O   UNL d   1      58.122  -1.892  29.427  0.00  0.00    -0.302 OA
ENDROOT
BRANCH   1   2
ATOM      2  C   UNL d   1      58.432  -1.358  29.980  0.00  0.00     0.161 C 
BRANCH   2   3
ATOM      3  C   UNL d   1      57.928  -0.972  30.507  0.00  0.00     0.188 A 
ATOM      4  N   UNL d   1      57.421  -1.352  31.071  0.00  0.00    -0.224 NA
ATOM      5  C   UNL d   1      57.025  -0.774  31.473  0.00  0.00     0.101 A 
ATOM      6  C   UNL d   1      57.279  -0.018  31.164  0.00  0.00     0.101 A 
ATOM      7  C   UNL d   1      56.457  -0.766  32.084  0.00  0.00     0.021 A 
ATOM      8  C   UNL d   1      56.965   0.679  31.471  0.00  0.00     0.021 A 
ATOM      9  N   UNL d   1      57.822  -0.161  30.584  0.00  0.00    -0.224 NA
ATOM     10  C   UNL d   1      56.405   0.649  32.077  0.00  0.00     0.002 A 
ATOM     11  C   UNL d   1      56.159  -0.081  32.375  0.00  0.00     0.002 A 
ENDBRANCH   2   3
ENDBRANCH   1   2
BRANCH   1  12
ATOM     12  C   UNL d   1      58.598  -2.524  29.192  0.00  0.00     0.100 A 
ATOM     13  C   UNL d   1      59.393  -2.539  29.310  0.00  0.00     0.025 A 
ATOM     14  C   UNL d   1      59.845  -3.183  29.065  0.00  0.00     0.002 A 
ATOM     15  C   UNL d   1      60.681  -3.177  29.200  0.00  0.00     0.000 A 
ATOM     16  C   UNL d   1      59.503  -3.813  28.701  0.00  0.00     0.000 A 
ATOM     17  C   UNL d   1      61.133  -3.822  28.955  0.00  0.00     0.000 A 
ATOM     18  C   UNL d   1      60.767  -4.496  28.565  0.00  0.00     0.000 A 
ATOM     19  C   UNL d   1      59.956  -4.458  28.455  0.00  0.00     0.000 A 
ATOM     20  C   UNL d   1      58.663  -3.822  28.563  0.00  0.00     0.002 A 
ATOM     21  C   UNL d   1      58.211  -3.177  28.809  0.00  0.00     0.025 A 
ENDBRANCH   1  12
TORSDOF 3
ENDMDL
