MODEL 1
REMARK VINA RESULT:      -5.0      0.000      0.000
REMARK  3 active torsions:
REMARK  status: ('A' for Active; 'I' for Inactive)
REMARK    1  A    between atoms: C_9  and  N_1 
REMARK    2  A    between atoms: C_5  and  C_9 
REMARK       I    between atoms: N_8  and  C_5 
REMARK    3  A    between atoms: O_14  and  C_12 
ROOT
ATOM      1  N   UNL d   1      57.616  -0.167  30.978  0.00  0.00    -0.268 N 
ATOM      2  C   UNL d   1      57.778  -0.832  30.525  0.00  0.00     0.265 A 
ATOM      3  C   UNL d   1      58.328  -0.781  29.907  0.00  0.00     0.059 A 
ATOM      4  C   UNL d   1      58.709  -0.068  29.751  0.00  0.00     0.028 A 
ATOM      5  C   UNL d   1      58.547   0.596  30.205  0.00  0.00     0.021 A 
ATOM      6  C   UNL d   1      58.003   0.551  30.817  0.00  0.00     0.083 A 
ATOM      7  O   UNL d   1      57.398  -1.545  30.680  0.00  0.00    -0.267 OA
ATOM      8  C   UNL d   1      59.255  -0.025  29.135  0.00  0.00     0.094 A 
ATOM      9  C   UNL d   1      58.486  -1.452  29.455  0.00  0.00     0.005 A 
ATOM     10  C   UNL d   1      59.034  -1.411  28.836  0.00  0.00     0.002 A 
ATOM     11  C   UNL d   1      59.417  -0.701  28.677  0.00  0.00     0.024 A 
ENDROOT
BRANCH   1  12
ATOM     12  C   UNL d   1      57.072  -0.213  31.590  0.00  0.00     0.144 C 
BRANCH  12  13
ATOM     13  C   UNL d   1      57.233   0.147  32.323  0.00  0.00     0.283 C 
ATOM     14  N   UNL d   1      56.652   0.157  32.903  0.00  0.00    -0.271 N 
ATOM     15  C   UNL d   1      56.898   0.546  33.627  0.00  0.00     0.083 A 
ATOM     16  C   UNL d   1      56.016  -0.173  32.700  0.00  0.00     0.083 A 
ATOM     17  C   UNL d   1      56.582   0.680  34.259  0.00  0.00     0.019 A 
ATOM     18  C   UNL d   1      55.806   0.474  34.494  0.00  0.00     0.002 A 
ATOM     19  C   UNL d   1      55.213   0.043  34.001  0.00  0.00     0.002 A 
ATOM     20  C   UNL d   1      55.306  -0.259  33.168  0.00  0.00     0.019 A 
ATOM     21  O   UNL d   1      57.957   0.487  32.467  0.00  0.00    -0.265 OA
ENDBRANCH  12  13
ENDBRANCH   1  12
BRANCH   8  22
ATOM     22  O   UNL d   1      59.642   0.682  28.969  0.00  0.00    -0.328 OA
ATOM     23  C   UNL d   1      60.333   0.679  28.536  0.00  0.00     0.181 C 
ENDBRANCH   8  22
TORSDOF 3
ENDMDL
MODEL 2
REMARK VINA RESULT:      -4.0      1.154      5.092
REMARK  3 active torsions:
REMARK  status: ('A' for Active; 'I' for Inactive)
REMARK    1  A    between atoms: C_9  and  N_1 
REMARK    2  A    between atoms: C_5  and  C_9 
REMARK       I    between atoms: N_8  and  C_5 
REMARK    3  A    between atoms: O_14  and  C_12 
ROOT
ATOM      1  N   UNL d   1      56.717   0.466  32.645  0.00  0.00    -0.268 N 
ATOM      2  C   UNL d   1      56.875   0.526  33.448  0.00  0.00     0.265 A 
ATOM      3  C   UNL d   1      56.246   0.574  33.985  0.00  0.00     0.059 A 
ATOM      4  C   UNL d   1      55.470   0.561  33.714  0.00  0.00     0.028 A 
ATOM      5  C   UNL d   1      55.312   0.501  32.910  0.00  0.00     0.021 A 
ATOM      6  C   UNL d   1      55.932   0.454  32.375  0.00  0.00     0.083 A 
ATOM      7  O   UNL d   1      57.652   0.538  33.720  0.00  0.00    -0.267 OA
ATOM      8  C   UNL d   1      54.849   0.609  34.254  0.00  0.00     0.094 A 
ATOM      9  C   UNL d   1      56.412   0.634  34.791  0.00  0.00     0.005 A 
ATOM     10  C   UNL d   1      55.789   0.682  35.335  0.00  0.00     0.002 A 
ATOM     11  C   UNL d   1      55.012   0.670  35.068  0.00  0.00     0.024 A 
ENDROOT
BRANCH   1  12
ATOM     12  C   UNL d   1      57.337   0.418  32.109  0.00  0.00     0.144 C 
BRANCH  12  13
ATOM     13  C   UNL d   1      57.322  -0.147  31.499  0.00  0.00     0.283 C 
ATOM     14  N   UNL d   1      57.875  -0.100  30.893  0.00  0.00    -0.271 N 
ATOM     15  C   UNL d   1      57.790  -0.718  30.305  0.00  0.00     0.083 A 
ATOM     16  C   UNL d   1      58.350   0.469  30.960  0.00  0.00     0.083 A 
ATOM     17  C   UNL d   1      58.140  -0.888  29.700  0.00  0.00     0.019 A 
ATOM     18  C   UNL d   1      58.794  -0.493  29.361  0.00  0.00     0.002 A 
ATOM     19  C   UNL d   1      59.190   0.226  29.688  0.00  0.00     0.002 A 
ATOM     20  C   UNL d   1      58.988   0.676  30.430  0.00  0.00     0.019 A 
ATOM     21  O   UNL d   1      56.767  -0.741  31.498  0.00  0.00    -0.265 OA
ENDBRANCH  12  13
ENDBRANCH   1  12
BRANCH   8  22
ATOM     22  O   UNL d   1      54.069   0.598  33.995  0.00  0.00    -0.328 OA
ATOM     23  C   UNL d   1      53.457   0.644  34.533  0.00  0.00     0.181 C 
ENDBRANCH   8  22
TORSDOF 3
ENDMDL
MODEL 3
REMARK VINA RESULT:      -3.3      9.758      9.911
REMARK  3 active torsions:
REMARK  status: ('A' for Active; 'I' for Inactive)
REMARK    1  A    between atoms: C_9  and  N_1 
REMARK    2  A    between atoms: C_5  and  C_9 
REMARK       I    between atoms: N_8  and  C_5 
REMARK    3  A    between atoms: O_14  and  C_12 
ROOT
ATOM      1  N   UNL d   1      58.811  -9.810  32.380  0.00  0.00    -0.268 N 
ATOM      2  C   UNL d   1      58.046  -9.809  32.083  0.00  0.00     0.265 A 
ATOM      3  C   UNL d   1      57.926  -9.811  31.263  0.00  0.00     0.059 A 
ATOM      4  C   UNL d   1      58.570  -9.814  30.751  0.00  0.00     0.028 A 
ATOM      5  C   UNL d   1      59.336  -9.814  31.049  0.00  0.00     0.021 A 
ATOM      6  C   UNL d   1      59.459  -9.812  31.860  0.00  0.00     0.083 A 
ATOM      7  O   UNL d   1      57.400  -9.807  32.594  0.00  0.00    -0.267 OA
ATOM      8  C   UNL d   1      58.444  -9.815  29.937  0.00  0.00     0.094 A 
ATOM      9  C   UNL d   1      57.155  -9.811  30.971  0.00  0.00     0.005 A 
ATOM     10  C   UNL d   1      57.026  -9.812  30.153  0.00  0.00     0.002 A 
ATOM     11  C   UNL d   1      57.667  -9.815  29.639  0.00  0.00     0.024 A 
ENDROOT
BRANCH   1  12
ATOM     12  C   UNL d   1      58.934  -9.808  33.191  0.00  0.00     0.144 C 
BRANCH  12  13
ATOM     13  C   UNL d   1      59.614  -9.452  33.511  0.00  0.00     0.283 C 
ATOM     14  N   UNL d   1      59.697  -9.406  34.328  0.00  0.00    -0.271 N 
ATOM     15  C   UNL d   1      60.425  -9.025  34.575  0.00  0.00     0.083 A 
ATOM     16  C   UNL d   1      59.129  -9.700  34.707  0.00  0.00     0.083 A 
ATOM     17  C   UNL d   1      60.720  -8.869  35.213  0.00  0.00     0.019 A 
ATOM     18  C   UNL d   1      60.407  -9.030  35.972  0.00  0.00     0.002 A 
ATOM     19  C   UNL d   1      59.638  -9.430  36.140  0.00  0.00     0.002 A 
ATOM     20  C   UNL d   1      59.041  -9.743  35.556  0.00  0.00     0.019 A 
ATOM     21  O   UNL d   1      60.193  -9.152  33.026  0.00  0.00    -0.265 OA
ENDBRANCH  12  13
ENDBRANCH   1  12
BRANCH   8  22
ATOM     22  O   UNL d   1      59.080  -9.818  29.416  0.00  0.00    -0.328 OA
ATOM     23  C   UNL d   1      58.964  -9.649  28.626  0.00  0.00     0.181 C 
ENDBRANCH   8  22
TORSDOF 3
ENDMDL
