MODEL 1
REMARK VINA RESULT:       2.4      0.000      0.000
REMARK  5 active torsions:
REMARK  status: ('A' for Active; 'I' for Inactive)
REMARK    1  A    between atoms: N_2  and  S_1 
REMARK    2  A    between atoms: C_4  and  S_1 
REMARK    3  A    between atoms: C_5  and  C_9 
REMARK       I    between atoms: N_8  and  C_5 
REMARK    4  A    between atoms: C_17  and  N_8 
REMARK    5  A    between atoms: C_18  and  C_17 
ROOT
ATOM      1  C   UNL d   1     -41.534-122.672 -52.382  0.00  0.00     0.104 A 
ATOM      2  C   UNL d   1     -41.447-122.494 -50.799  0.00  0.00     0.058 A 
ATOM      3  C   UNL d   1     -41.858-122.024 -52.038  0.00  0.00     0.013 A 
ATOM      4  C   UNL d   1     -41.161-123.242 -51.934  0.00  0.00     0.013 A 
ATOM      5  C   UNL d   1     -41.814-121.935 -51.244  0.00  0.00     0.005 A 
ATOM      6  C   UNL d   1     -41.125-123.139 -51.136  0.00  0.00     0.005 A 
ENDROOT
BRANCH   1   7
ATOM      7  S   UNL d   1     -41.573-122.770 -53.179  0.00  0.00     0.271 S 
ATOM      8  O   UNL d   1     -41.950-122.077 -53.260  0.00  0.00    -0.200 OA
ATOM      9  O   UNL d   1     -41.124-123.583 -53.011  0.00  0.00    -0.200 OA
BRANCH   7  10
ATOM     10  N   UNL d   1     -41.573-122.956 -54.035  0.00  0.00    -0.231 N 
ATOM     11  C   UNL d   1     -42.029-122.441 -54.581  0.00  0.00     0.075 A 
ATOM     12  C   UNL d   1     -42.032-122.622 -55.437  0.00  0.00     0.017 A 
ATOM     13  C   UNL d   1     -42.476-121.760 -54.294  0.00  0.00     0.018 A 
ATOM     14  C   UNL d   1     -42.480-122.122 -55.995  0.00  0.00     0.002 A 
ATOM     15  C   UNL d   1     -41.582-123.313 -55.748  0.00  0.00     0.003 A 
ATOM     16  C   UNL d   1     -42.925-121.441 -55.696  0.00  0.00     0.000 A 
ATOM     17  C   UNL d   1     -42.926-121.255 -54.839  0.00  0.00     0.002 A 
ATOM     18  C   UNL d   1     -41.132-123.817 -55.196  0.00  0.00     0.020 A 
ATOM     19  C   UNL d   1     -41.128-123.636 -54.334  0.00  0.00     0.092 A 
ENDBRANCH   7  10
ENDBRANCH   1   7
BRANCH   2  20
ATOM     20  C   UNL d   1     -41.404-122.402 -49.997  0.00  0.00     0.279 C 
ATOM     21  N   UNL d   1     -41.375-123.052 -49.519  0.00  0.00    -0.206 NA
ATOM     22  O   UNL d   1     -41.391-121.674 -49.672  0.00  0.00    -0.265 OA
BRANCH  21  23
ATOM     23  C   UNL d   1     -41.332-122.964 -48.725  0.00  0.00     0.102 C 
BRANCH  23  24
ATOM     24  C   UNL d   1     -41.933-123.249 -48.237  0.00  0.00     0.019 A 
ATOM     25  C   UNL d   1     -41.812-123.277 -47.425  0.00  0.00     0.002 A 
ATOM     26  C   UNL d   1     -42.408-123.560 -46.932  0.00  0.00     0.000 A 
ATOM     27  C   UNL d   1     -43.135-123.817 -47.257  0.00  0.00     0.000 A 
ATOM     28  C   UNL d   1     -43.245-123.784 -48.074  0.00  0.00     0.000 A 
ATOM     29  C   UNL d   1     -42.643-123.499 -48.567  0.00  0.00     0.002 A 
ENDBRANCH  23  24
ENDBRANCH  21  23
ENDBRANCH   2  20
TORSDOF 5
ENDMDL
MODEL 2
REMARK VINA RESULT:       4.2      1.080      5.813
REMARK  5 active torsions:
REMARK  status: ('A' for Active; 'I' for Inactive)
REMARK    1  A    between atoms: N_2  and  S_1 
REMARK    2  A    between atoms: C_4  and  S_1 
REMARK    3  A    between atoms: C_5  and  C_9 
REMARK       I    between atoms: N_8  and  C_5 
REMARK    4  A    between atoms: C_17  and  N_8 
REMARK    5  A    between atoms: C_18  and  C_17 
ROOT
ATOM      1  C   UNL d   1     -41.571-122.512 -50.509  0.00  0.00     0.104 A 
ATOM      2  C   UNL d   1     -41.433-121.909 -51.980  0.00  0.00     0.058 A 
ATOM      3  C   UNL d   1     -41.213-122.944 -51.082  0.00  0.00     0.013 A 
ATOM      4  C   UNL d   1     -41.867-121.768 -50.667  0.00  0.00     0.013 A 
ATOM      5  C   UNL d   1     -41.143-122.641 -51.819  0.00  0.00     0.005 A 
ATOM      6  C   UNL d   1     -41.790-121.477 -51.415  0.00  0.00     0.005 A 
ENDROOT
BRANCH   1   7
ATOM      7  S   UNL d   1     -41.646-122.808 -49.765  0.00  0.00     0.271 S 
ATOM      8  O   UNL d   1     -41.192-123.431 -49.952  0.00  0.00    -0.200 OA
ATOM      9  O   UNL d   1     -42.176-122.043 -49.610  0.00  0.00    -0.200 OA
BRANCH   7  10
ATOM     10  N   UNL d   1     -41.778-123.058 -48.936  0.00  0.00    -0.231 N 
ATOM     11  C   UNL d   1     -42.583-123.310 -48.692  0.00  0.00     0.075 A 
ATOM     12  C   UNL d   1     -42.721-123.561 -47.866  0.00  0.00     0.017 A 
ATOM     13  C   UNL d   1     -43.243-123.317 -49.249  0.00  0.00     0.018 A 
ATOM     14  C   UNL d   1     -43.514-123.815 -47.605  0.00  0.00     0.002 A 
ATOM     15  C   UNL d   1     -42.059-123.560 -47.283  0.00  0.00     0.003 A 
ATOM     16  C   UNL d   1     -44.170-123.817 -48.171  0.00  0.00     0.000 A 
ATOM     17  C   UNL d   1     -44.037-123.567 -49.002  0.00  0.00     0.002 A 
ATOM     18  C   UNL d   1     -41.262-123.308 -47.537  0.00  0.00     0.020 A 
ATOM     19  C   UNL d   1     -41.122-123.055 -48.369  0.00  0.00     0.092 A 
ENDBRANCH   7  10
ENDBRANCH   1   7
BRANCH   2  20
ATOM     20  C   UNL d   1     -41.362-121.605 -52.725  0.00  0.00     0.279 C 
ATOM     21  N   UNL d   1     -41.511-122.073 -53.366  0.00  0.00    -0.206 NA
ATOM     22  O   UNL d   1     -41.145-120.845 -52.836  0.00  0.00    -0.265 OA
BRANCH  21  23
ATOM     23  C   UNL d   1     -41.442-121.776 -54.105  0.00  0.00     0.102 C 
BRANCH  23  24
ATOM     24  C   UNL d   1     -41.864-122.106 -54.732  0.00  0.00     0.019 A 
ATOM     25  C   UNL d   1     -42.221-121.609 -55.281  0.00  0.00     0.002 A 
ATOM     26  C   UNL d   1     -42.644-121.931 -55.910  0.00  0.00     0.000 A 
ATOM     27  C   UNL d   1     -42.710-122.761 -55.990  0.00  0.00     0.000 A 
ATOM     28  C   UNL d   1     -42.348-123.249 -55.433  0.00  0.00     0.000 A 
ATOM     29  C   UNL d   1     -41.923-122.922 -54.802  0.00  0.00     0.002 A 
ENDBRANCH  23  24
ENDBRANCH  21  23
ENDBRANCH   2  20
TORSDOF 5
ENDMDL
