MODEL 1
REMARK VINA RESULT:      59.9      0.000      0.000
REMARK  2 active torsions:
REMARK  status: ('A' for Active; 'I' for Inactive)
REMARK    1  A    between atoms: C_6  and  C_1 
REMARK    2  A    between atoms: C_8  and  N_3 
REMARK       I    between atoms: N_7  and  C_6 
ROOT
ATOM      1  C   UNL d   1     -54.864-101.205 -42.590  0.00  0.00     0.124 A 
ATOM      2  C   UNL d   1     -54.917-101.776 -41.977  0.00  0.00     0.181 A 
ATOM      3  N   UNL d   1     -54.868-101.365 -41.246  0.00  0.00    -0.276 N 
ATOM      4  C   UNL d   1     -54.787-100.559 -41.404  0.00  0.00     0.152 A 
ATOM      5  S   UNL d   1     -54.782-100.445 -42.235  0.00  0.00    -0.051 SA
ATOM      6  S   UNL d   1     -54.720 -99.965 -40.845  0.00  0.00    -0.052 SA
ATOM      7  N   UNL d   1     -55.000-102.572 -42.165  0.00  0.00    -0.128 N 
ENDROOT
BRANCH   1   8
ATOM      8  C   UNL d   1     -54.893-101.425 -43.380  0.00  0.00     0.274 C 
ATOM      9  N   UNL d   1     -54.990-100.849 -43.959  0.00  0.00    -0.267 N 
ATOM     10  C   UNL d   1     -55.058-100.038 -43.752  0.00  0.00     0.110 A 
ATOM     11  C   UNL d   1     -55.022-101.064 -44.768  0.00  0.00     0.110 A 
ATOM     12  C   UNL d   1     -55.156 -99.461 -44.347  0.00  0.00     0.142 A 
ATOM     13  O   UNL d   1     -55.185 -99.689 -45.138  0.00  0.00    -0.300 OA
ATOM     14  C   UNL d   1     -55.118-100.487 -45.347  0.00  0.00     0.142 A 
ATOM     15  O   UNL d   1     -54.828-102.213 -43.593  0.00  0.00    -0.266 OA
ENDBRANCH   1   8
BRANCH   3  16
ATOM     16  C   UNL d   1     -54.898-101.724 -40.493  0.00  0.00     0.067 A 
ATOM     17  C   UNL d   1     -55.043-102.527 -40.425  0.00  0.00     0.018 A 
ATOM     18  C   UNL d   1     -55.071-102.878 -39.664  0.00  0.00     0.002 A 
ATOM     19  C   UNL d   1     -54.955-102.421 -38.999  0.00  0.00     0.000 A 
ATOM     20  C   UNL d   1     -54.808-101.607 -39.073  0.00  0.00     0.002 A 
ATOM     21  C   UNL d   1     -54.983-102.771 -38.252  0.00  0.00     0.000 C 
ATOM     22  C   UNL d   1     -54.779-101.256 -39.817  0.00  0.00     0.018 A 
ENDBRANCH   3  16
TORSDOF 2
ENDMDL
