MODEL 1
REMARK VINA RESULT:      -9.1      0.000      0.000
REMARK  3 active torsions:
REMARK  status: ('A' for Active; 'I' for Inactive)
REMARK    1  A    between atoms: C_9  and  C_4 
REMARK       I    between atoms: C_6  and  N_8 
REMARK    2  A    between atoms: C_13  and  C_6 
REMARK    3  A    between atoms: N_8  and  C_16 
ROOT
ATOM      1  C   UNL d   1      52.082  34.405  53.483  0.00  0.00     0.019 A 
ATOM      2  C   UNL d   1      52.753  34.814  53.253  0.00  0.00     0.003 A 
ATOM      3  C   UNL d   1      52.061  34.003  54.195  0.00  0.00     0.003 A 
ATOM      4  C   UNL d   1      53.397  34.416  54.463  0.00  0.00     0.085 A 
ATOM      5  C   UNL d   1      52.724  34.009  54.688  0.00  0.00     0.019 A 
ATOM      6  C   UNL d   1      53.413  34.820  53.743  0.00  0.00     0.019 A 
ENDROOT
BRANCH   1   7
ATOM      7  C   UNL d   1      51.415  34.398  52.988  0.00  0.00     0.101 A 
ATOM      8  N   UNL d   1      50.676  34.640  53.230  0.00  0.00    -0.221 NA
ATOM      9  C   UNL d   1      50.155  34.556  52.596  0.00  0.00     0.179 A 
ATOM     10  N   UNL d   1      50.570  34.260  51.955  0.00  0.00    -0.282 N 
ATOM     11  S   UNL d   1      49.366  34.659  52.365  0.00  0.00    -0.048 SA
ATOM     12  C   UNL d   1      51.358  34.160  52.199  0.00  0.00     0.101 A 
ATOM     13  C   UNL d   1      50.048  34.176  51.321  0.00  0.00     0.089 A 
ATOM     14  C   UNL d   1      49.303  34.425  51.581  0.00  0.00     0.057 A 
ENDBRANCH   1   7
BRANCH   4  15
ATOM     15  N   UNL d   1      54.066  34.423  54.957  0.00  0.00    -0.208 NA
ATOM     16  C   UNL d   1      54.601  33.785  54.952  0.00  0.00     0.279 C 
ATOM     17  O   UNL d   1      55.256  33.788  55.434  0.00  0.00    -0.265 OA
BRANCH  16  18
ATOM     18  C   UNL d   1      54.458  33.148  54.450  0.00  0.00     0.058 A 
ATOM     19  C   UNL d   1      54.872  33.074  53.739  0.00  0.00     0.005 A 
ATOM     20  C   UNL d   1      54.609  32.388  53.363  0.00  0.00     0.000 A 
ATOM     21  C   UNL d   1      54.040  32.036  53.828  0.00  0.00     0.000 A 
ATOM     22  C   UNL d   1      53.939  32.504  54.508  0.00  0.00     0.005 A 
ENDBRANCH  16  18
ENDBRANCH   4  15
TORSDOF 3
ENDMDL
MODEL 2
REMARK VINA RESULT:      -8.5      1.519      2.481
REMARK  3 active torsions:
REMARK  status: ('A' for Active; 'I' for Inactive)
REMARK    1  A    between atoms: C_9  and  C_4 
REMARK       I    between atoms: C_6  and  N_8 
REMARK    2  A    between atoms: C_13  and  C_6 
REMARK    3  A    between atoms: N_8  and  C_16 
ROOT
ATOM      1  C   UNL d   1      50.375  34.311  52.712  0.00  0.00     0.019 A 
ATOM      2  C   UNL d   1      50.466  33.750  53.301  0.00  0.00     0.003 A 
ATOM      3  C   UNL d   1      50.968  34.442  52.163  0.00  0.00     0.003 A 
ATOM      4  C   UNL d   1      51.762  33.440  52.789  0.00  0.00     0.085 A 
ATOM      5  C   UNL d   1      51.666  34.002  52.203  0.00  0.00     0.019 A 
ATOM      6  C   UNL d   1      51.161  33.312  53.340  0.00  0.00     0.019 A 
ENDROOT
BRANCH   1   7
ATOM      7  C   UNL d   1      49.674  34.754  52.671  0.00  0.00     0.101 A 
ATOM      8  N   UNL d   1      49.410  35.233  53.274  0.00  0.00    -0.221 NA
ATOM      9  C   UNL d   1      48.702  35.583  53.038  0.00  0.00     0.179 A 
ATOM     10  N   UNL d   1      48.521  35.321  52.284  0.00  0.00    -0.282 N 
ATOM     11  S   UNL d   1      48.102  36.101  53.280  0.00  0.00    -0.048 SA
ATOM     12  C   UNL d   1      49.128  34.803  52.052  0.00  0.00     0.101 A 
ATOM     13  C   UNL d   1      47.812  35.671  52.047  0.00  0.00     0.089 A 
ATOM     14  C   UNL d   1      47.557  36.154  52.669  0.00  0.00     0.057 A 
ENDBRANCH   1   7
BRANCH   4  15
ATOM     15  N   UNL d   1      52.464  32.996  52.830  0.00  0.00    -0.208 NA
ATOM     16  C   UNL d   1      53.118  33.280  53.260  0.00  0.00     0.279 C 
ATOM     17  O   UNL d   1      53.806  32.849  53.304  0.00  0.00    -0.265 OA
BRANCH  16  18
ATOM     18  C   UNL d   1      53.057  34.006  53.644  0.00  0.00     0.058 A 
ATOM     19  C   UNL d   1      53.010  34.042  54.469  0.00  0.00     0.005 A 
ATOM     20  C   UNL d   1      52.955  34.836  54.684  0.00  0.00     0.000 A 
ATOM     21  C   UNL d   1      52.968  35.293  54.009  0.00  0.00     0.000 A 
ATOM     22  C   UNL d   1      53.032  34.783  53.356  0.00  0.00     0.005 A 
ENDBRANCH  16  18
ENDBRANCH   4  15
TORSDOF 3
ENDMDL
MODEL 3
REMARK VINA RESULT:      -8.5      2.347      3.806
REMARK  3 active torsions:
REMARK  status: ('A' for Active; 'I' for Inactive)
REMARK    1  A    between atoms: C_9  and  C_4 
REMARK       I    between atoms: C_6  and  N_8 
REMARK    2  A    between atoms: C_13  and  C_6 
REMARK    3  A    between atoms: N_8  and  C_16 
ROOT
ATOM      1  C   UNL d   1      53.578  32.287  53.989  0.00  0.00     0.019 A 
ATOM      2  C   UNL d   1      54.036  32.736  53.481  0.00  0.00     0.003 A 
ATOM      3  C   UNL d   1      53.255  32.618  54.665  0.00  0.00     0.003 A 
ATOM      4  C   UNL d   1      53.851  33.867  54.332  0.00  0.00     0.085 A 
ATOM      5  C   UNL d   1      53.394  33.414  54.837  0.00  0.00     0.019 A 
ATOM      6  C   UNL d   1      54.174  33.528  53.652  0.00  0.00     0.019 A 
ENDROOT
BRANCH   1   7
ATOM      7  C   UNL d   1      53.437  31.486  53.818  0.00  0.00     0.101 A 
ATOM      8  N   UNL d   1      53.627  30.880  54.327  0.00  0.00    -0.221 NA
ATOM      9  C   UNL d   1      53.409  30.167  53.974  0.00  0.00     0.179 A 
ATOM     10  N   UNL d   1      53.082  30.329  53.241  0.00  0.00    -0.282 N 
ATOM     11  S   UNL d   1      53.397  29.346  54.084  0.00  0.00    -0.048 SA
ATOM     12  C   UNL d   1      53.099  31.154  53.142  0.00  0.00     0.101 A 
ATOM     13  C   UNL d   1      52.864  29.615  52.888  0.00  0.00     0.089 A 
ATOM     14  C   UNL d   1      53.062  29.009  53.415  0.00  0.00     0.057 A 
ENDBRANCH   1   7
BRANCH   4  15
ATOM     15  N   UNL d   1      53.992  34.669  54.503  0.00  0.00    -0.208 NA
ATOM     16  C   UNL d   1      53.480  35.258  54.213  0.00  0.00     0.279 C 
ATOM     17  O   UNL d   1      53.614  36.043  54.378  0.00  0.00    -0.265 OA
BRANCH  16  18
ATOM     18  C   UNL d   1      52.833  35.034  53.754  0.00  0.00     0.058 A 
ATOM     19  C   UNL d   1      52.075  35.010  54.083  0.00  0.00     0.005 A 
ATOM     20  C   UNL d   1      51.552  34.768  53.493  0.00  0.00     0.000 A 
ATOM     21  C   UNL d   1      51.971  34.643  52.805  0.00  0.00     0.000 A 
ATOM     22  C   UNL d   1      52.771  34.806  52.960  0.00  0.00     0.005 A 
ENDBRANCH  16  18
ENDBRANCH   4  15
TORSDOF 3
ENDMDL
