MODEL 1
REMARK VINA RESULT:      61.9      0.000      0.000
REMARK  6 active torsions:
REMARK  status: ('A' for Active; 'I' for Inactive)
REMARK       I    between atoms: C_6  and  N_1 
REMARK    1  A    between atoms: C_10  and  C_2 
REMARK    2  A    between atoms: O_16  and  C_8 
REMARK    3  A    between atoms: O_14  and  C_10 
REMARK    4  A    between atoms: O_17  and  C_11 
REMARK    5  A    between atoms: C_15  and  O_14 
REMARK    6  A    between atoms: C_24  and  C_18 
ROOT
ATOM      1  N   UNL d   1      60.058  49.650  51.831  0.00  0.00    -0.271 N 
ATOM      2  C   UNL d   1      59.837  49.592  51.038  0.00  0.00     0.092 A 
ATOM      3  C   UNL d   1      59.045  49.592  50.836  0.00  0.00     0.020 A 
ATOM      4  C   UNL d   1      58.466  49.650  51.421  0.00  0.00     0.005 A 
ATOM      5  C   UNL d   1      58.828  49.534  50.046  0.00  0.00     0.028 A 
ATOM      6  C   UNL d   1      60.866  49.650  52.042  0.00  0.00     0.265 C 
ATOM      7  C   UNL d   1      59.479  49.708  52.416  0.00  0.00     0.083 A 
ATOM      8  C   UNL d   1      58.029  49.534  49.838  0.00  0.00     0.116 A 
ATOM      9  C   UNL d   1      57.671  49.650  51.217  0.00  0.00     0.026 A 
ATOM     10  C   UNL d   1      57.451  49.592  50.424  0.00  0.00     0.116 A 
ATOM     11  C   UNL d   1      58.680  49.707  52.209  0.00  0.00     0.019 A 
ATOM     12  O   UNL d   1      61.445  49.592  51.456  0.00  0.00    -0.267 OA
ATOM     13  C   UNL d   1      61.080  49.708  52.829  0.00  0.00     0.066 C 
ENDROOT
BRANCH   2  14
ATOM     14  C   UNL d   1      60.415  49.534  50.452  0.00  0.00     0.140 C 
BRANCH  14  15
ATOM     15  O   UNL d   1      61.140  49.175  50.621  0.00  0.00    -0.304 OA
BRANCH  15  16
ATOM     16  C   UNL d   1      61.312  48.429  50.315  0.00  0.00     0.100 A 
ATOM     17  C   UNL d   1      61.236  48.289  49.505  0.00  0.00     0.025 A 
ATOM     18  C   UNL d   1      61.408  47.542  49.198  0.00  0.00     0.002 A 
ATOM     19  C   UNL d   1      61.656  46.936  49.701  0.00  0.00     0.000 A 
ATOM     20  C   UNL d   1      61.732  47.078  50.511  0.00  0.00     0.002 A 
ATOM     21  C   UNL d   1      61.559  47.824  50.818  0.00  0.00     0.025 A 
BRANCH  19  22
ATOM     22  C   UNL d   1      61.828  46.190  49.395  0.00  0.00     0.000 C 
ATOM     23  C   UNL d   1      61.220  45.666  49.220  0.00  0.00     0.000 C 
ENDBRANCH  19  22
ENDBRANCH  15  16
ENDBRANCH  14  15
ENDBRANCH   2  14
BRANCH   8  24
ATOM     24  O   UNL d   1      57.808  49.475  49.038  0.00  0.00    -0.326 OA
ATOM     25  C   UNL d   1      57.009  49.484  48.830  0.00  0.00     0.181 C 
ENDBRANCH   8  24
BRANCH  10  26
ATOM     26  O   UNL d   1      56.642  49.592  50.219  0.00  0.00    -0.326 OA
ATOM     27  C   UNL d   1      56.072  49.478  50.806  0.00  0.00     0.181 C 
ENDBRANCH  10  26
TORSDOF 6
ENDMDL
