MODEL 1
REMARK VINA RESULT:      -3.0      0.000      0.000
REMARK  6 active torsions:
REMARK  status: ('A' for Active; 'I' for Inactive)
REMARK    1  A    between atoms: C_6  and  C_2 
REMARK    2  A    between atoms: C_7  and  C_6 
REMARK    3  A    between atoms: C_8  and  C_15 
REMARK       I    between atoms: N_9  and  C_8 
REMARK    4  A    between atoms: C_16  and  N_9 
REMARK    5  A    between atoms: O_13  and  C_12 
REMARK    6  A    between atoms: C_15  and  O_13 
ROOT
ATOM      1  C   UNL d   1      33.218  20.906 -22.213  0.00  0.00     0.023 A 
ATOM      2  C   UNL d   1      33.233  20.157 -22.551  0.00  0.00     0.100 A 
ATOM      3  C   UNL d   1      33.211  20.992 -21.399  0.00  0.00     0.002 A 
ATOM      4  C   UNL d   1      33.241  19.489 -22.073  0.00  0.00     0.025 A 
ATOM      5  C   UNL d   1      33.219  20.327 -20.913  0.00  0.00     0.000 A 
ATOM      6  C   UNL d   1      33.234  19.574 -21.256  0.00  0.00     0.002 A 
ENDROOT
BRANCH   2   7
ATOM      7  O   UNL d   1      33.240  20.072 -23.373  0.00  0.00    -0.300 OA
BRANCH   7   8
ATOM      8  C   UNL d   1      33.045  19.339 -23.706  0.00  0.00     0.185 C 
BRANCH   8   9
ATOM      9  C   UNL d   1      33.035  19.253 -24.530  0.00  0.00     0.304 C 
ATOM     10  N   UNL d   1      32.828  18.524 -24.859  0.00  0.00    -0.206 NA
ATOM     11  O   UNL d   1      33.229  19.888 -25.013  0.00  0.00    -0.263 OA
BRANCH  10  12
ATOM     12  C   UNL d   1      32.634  17.889 -24.376  0.00  0.00     0.085 A 
ATOM     13  C   UNL d   1      31.850  17.745 -24.169  0.00  0.00     0.021 A 
ATOM     14  C   UNL d   1      31.654  17.104 -23.682  0.00  0.00     0.031 A 
ATOM     15  C   UNL d   1      32.253  16.605 -23.400  0.00  0.00     0.140 A 
ATOM     16  C   UNL d   1      33.041  16.751 -23.609  0.00  0.00     0.031 A 
ATOM     17  F   UNL d   1      32.066  15.965 -22.914  0.00  0.00    -0.204 F 
ATOM     18  C   UNL d   1      33.232  17.390 -24.095  0.00  0.00     0.021 A 
ENDBRANCH  10  12
ENDBRANCH   8   9
ENDBRANCH   7   8
ENDBRANCH   2   7
BRANCH   1  19
ATOM     19  C   UNL d   1      33.210  21.579 -22.691  0.00  0.00     0.013 C 
BRANCH  19  20
ATOM     20  C   UNL d   1      32.960  22.301 -22.391  0.00  0.00     0.092 A 
ATOM     21  C   UNL d   1      32.891  23.001 -22.807  0.00  0.00     0.288 A 
ATOM     22  N   UNL d   1      32.622  23.580 -22.294  0.00  0.00    -0.163 NA
ATOM     23  O   UNL d   1      33.064  23.107 -23.606  0.00  0.00    -0.265 OA
ATOM     24  C   UNL d   1      32.522  23.235 -21.551  0.00  0.00     0.313 A 
ATOM     25  S   UNL d   1      32.732  22.441 -21.611  0.00  0.00    -0.021 SA
ATOM     26  O   UNL d   1      32.259  23.618 -20.866  0.00  0.00    -0.258 OA
ENDBRANCH  19  20
ENDBRANCH   1  19
TORSDOF 6
ENDMDL
MODEL 2
REMARK VINA RESULT:      -1.1      3.510      5.532
REMARK  6 active torsions:
REMARK  status: ('A' for Active; 'I' for Inactive)
REMARK    1  A    between atoms: C_6  and  C_2 
REMARK    2  A    between atoms: C_7  and  C_6 
REMARK    3  A    between atoms: C_8  and  C_15 
REMARK       I    between atoms: N_9  and  C_8 
REMARK    4  A    between atoms: C_16  and  N_9 
REMARK    5  A    between atoms: O_13  and  C_12 
REMARK    6  A    between atoms: C_15  and  O_13 
ROOT
ATOM      1  C   UNL d   1      30.109  16.361 -23.981  0.00  0.00     0.023 A 
ATOM      2  C   UNL d   1      30.930  16.335 -23.942  0.00  0.00     0.100 A 
ATOM      3  C   UNL d   1      29.709  15.935 -24.554  0.00  0.00     0.002 A 
ATOM      4  C   UNL d   1      31.353  15.880 -24.480  0.00  0.00     0.025 A 
ATOM      5  C   UNL d   1      30.126  15.477 -25.097  0.00  0.00     0.000 A 
ATOM      6  C   UNL d   1      30.953  15.453 -25.056  0.00  0.00     0.002 A 
ENDROOT
BRANCH   2   7
ATOM      7  O   UNL d   1      31.332  16.765 -23.364  0.00  0.00    -0.300 OA
BRANCH   7   8
ATOM      8  C   UNL d   1      32.109  17.013 -23.510  0.00  0.00     0.185 C 
BRANCH   8   9
ATOM      9  C   UNL d   1      32.632  17.120 -22.876  0.00  0.00     0.304 C 
ATOM     10  N   UNL d   1      33.058  17.825 -22.816  0.00  0.00    -0.206 NA
ATOM     11  O   UNL d   1      32.724  16.529 -22.314  0.00  0.00    -0.263 OA
BRANCH  10  12
ATOM     12  C   UNL d   1      32.966  18.416 -23.378  0.00  0.00     0.085 A 
ATOM     13  C   UNL d   1      33.241  18.310 -24.147  0.00  0.00     0.021 A 
ATOM     14  C   UNL d   1      33.148  18.907 -24.714  0.00  0.00     0.031 A 
ATOM     15  C   UNL d   1      32.775  19.616 -24.505  0.00  0.00     0.140 A 
ATOM     16  C   UNL d   1      32.499  19.722 -23.732  0.00  0.00     0.031 A 
ATOM     17  F   UNL d   1      32.678  20.216 -25.064  0.00  0.00    -0.204 F 
ATOM     18  C   UNL d   1      32.593  19.126 -23.169  0.00  0.00     0.021 A 
ENDBRANCH  10  12
ENDBRANCH   8   9
ENDBRANCH   7   8
ENDBRANCH   2   7
BRANCH   1  19
ATOM     19  C   UNL d   1      29.681  16.816 -23.443  0.00  0.00     0.013 C 
BRANCH  19  20
ATOM     20  C   UNL d   1      28.860  16.823 -23.461  0.00  0.00     0.092 A 
ATOM     21  C   UNL d   1      28.386  17.448 -23.691  0.00  0.00     0.288 A 
ATOM     22  N   UNL d   1      27.603  17.215 -23.624  0.00  0.00    -0.163 NA
ATOM     23  O   UNL d   1      28.649  18.186 -23.945  0.00  0.00    -0.265 OA
ATOM     24  C   UNL d   1      27.592  16.436 -23.351  0.00  0.00     0.313 A 
ATOM     25  S   UNL d   1      28.372  16.193 -23.249  0.00  0.00    -0.021 SA
ATOM     26  O   UNL d   1      26.917  15.980 -23.203  0.00  0.00    -0.258 OA
ENDBRANCH  19  20
ENDBRANCH   1  19
TORSDOF 6
ENDMDL
