MODEL 1
REMARK VINA RESULT:      -9.1      0.000      0.000
REMARK  1 active torsions:
REMARK  status: ('A' for Active; 'I' for Inactive)
REMARK    1  A    between atoms: C_13  and  N_3 
ROOT
ATOM      1  C   UNL d   1     -48.620  13.994  22.908  0.00  0.00     0.166 A 
ATOM      2  C   UNL d   1     -48.659  13.191  23.075  0.00  0.00     0.117 A 
ATOM      3  N   UNL d   1     -49.398  14.277  22.946  0.00  0.00    -0.289 N 
ATOM      4  C   UNL d   1     -49.429  12.982  23.211  0.00  0.00     0.038 A 
ATOM      5  N   UNL d   1     -47.896  14.369  22.744  0.00  0.00    -0.225 NA
ATOM      6  C   UNL d   1     -49.890  13.659  23.131  0.00  0.00     0.067 A 
ATOM      7  N   UNL d   1     -47.947  12.769  23.074  0.00  0.00    -0.241 NA
ATOM      8  C   UNL d   1     -47.212  13.940  22.747  0.00  0.00     0.101 A 
ATOM      9  C   UNL d   1     -47.245  13.129  22.915  0.00  0.00     0.099 A 
ATOM     10  C   UNL d   1     -50.709  13.617  23.239  0.00  0.00     0.018 A 
ATOM     11  C   UNL d   1     -49.788  12.264  23.400  0.00  0.00     0.015 A 
ATOM     12  C   UNL d   1     -50.603  12.217  23.509  0.00  0.00     0.058 A 
ATOM     13  C   UNL d   1     -51.064  12.894  23.429  0.00  0.00     0.013 A 
ATOM     14 CL   UNL d   1     -50.963  11.499  23.698  0.00  0.00    -0.082 Cl
ATOM     15  C   UNL d   1     -46.504  14.295  22.589  0.00  0.00     0.021 A 
ATOM     16  C   UNL d   1     -46.554  12.693  22.919  0.00  0.00     0.021 A 
ATOM     17  C   UNL d   1     -45.802  13.835  22.597  0.00  0.00     0.002 A 
ATOM     18  C   UNL d   1     -45.814  13.043  22.758  0.00  0.00     0.002 A 
ENDROOT
BRANCH   3  19
ATOM     19  C   UNL d   1     -49.623  15.043  22.819  0.00  0.00     0.082 C 
ATOM     20  C   UNL d   1     -49.722  15.546  23.490  0.00  0.00     0.021 C 
ENDBRANCH   3  19
TORSDOF 1
ENDMDL
MODEL 2
REMARK VINA RESULT:      -9.0      1.119      1.986
REMARK  1 active torsions:
REMARK  status: ('A' for Active; 'I' for Inactive)
REMARK    1  A    between atoms: C_13  and  N_3 
ROOT
ATOM      1  C   UNL d   1     -48.718  13.225  22.958  0.00  0.00     0.166 A 
ATOM      2  C   UNL d   1     -48.697  14.038  23.070  0.00  0.00     0.117 A 
ATOM      3  N   UNL d   1     -49.511  12.999  23.046  0.00  0.00    -0.289 N 
ATOM      4  C   UNL d   1     -49.444  14.308  23.222  0.00  0.00     0.038 A 
ATOM      5  N   UNL d   1     -48.029  12.792  22.792  0.00  0.00    -0.225 NA
ATOM      6  C   UNL d   1     -49.952  13.660  23.207  0.00  0.00     0.067 A 
ATOM      7  N   UNL d   1     -47.959  14.409  23.011  0.00  0.00    -0.241 NA
ATOM      8  C   UNL d   1     -47.318  13.171  22.738  0.00  0.00     0.101 A 
ATOM      9  C   UNL d   1     -47.291  13.992  22.850  0.00  0.00     0.099 A 
ATOM     10  C   UNL d   1     -50.761  13.766  23.345  0.00  0.00     0.018 A 
ATOM     11  C   UNL d   1     -49.747  15.060  23.374  0.00  0.00     0.015 A 
ATOM     12  C   UNL d   1     -50.552  15.170  23.512  0.00  0.00     0.058 A 
ATOM     13  C   UNL d   1     -51.059  14.522  23.497  0.00  0.00     0.013 A 
ATOM     14 CL   UNL d   1     -50.854  15.922  23.665  0.00  0.00    -0.082 Cl
ATOM     15  C   UNL d   1     -46.643  12.758  22.577  0.00  0.00     0.021 A 
ATOM     16  C   UNL d   1     -46.573  14.379  22.796  0.00  0.00     0.021 A 
ATOM     17  C   UNL d   1     -45.912  13.170  22.524  0.00  0.00     0.002 A 
ATOM     18  C   UNL d   1     -45.865  13.969  22.630  0.00  0.00     0.002 A 
ENDROOT
BRANCH   3  19
ATOM     19  C   UNL d   1     -49.790  12.244  22.982  0.00  0.00     0.082 C 
ATOM     20  C   UNL d   1     -49.816  11.767  23.679  0.00  0.00     0.021 C 
ENDBRANCH   3  19
TORSDOF 1
ENDMDL
MODEL 3
REMARK VINA RESULT:      -8.9      1.589      3.731
REMARK  1 active torsions:
REMARK  status: ('A' for Active; 'I' for Inactive)
REMARK    1  A    between atoms: C_13  and  N_3 
ROOT
ATOM      1  C   UNL d   1     -48.873  13.345  23.079  0.00  0.00     0.166 A 
ATOM      2  C   UNL d   1     -48.359  13.983  23.028  0.00  0.00     0.117 A 
ATOM      3  N   UNL d   1     -48.411  12.666  22.966  0.00  0.00    -0.289 N 
ATOM      4  C   UNL d   1     -47.609  13.714  22.889  0.00  0.00     0.038 A 
ATOM      5  N   UNL d   1     -49.685  13.451  23.219  0.00  0.00    -0.225 NA
ATOM      6  C   UNL d   1     -47.641  12.893  22.851  0.00  0.00     0.067 A 
ATOM      7  N   UNL d   1     -48.684  14.739  23.122  0.00  0.00    -0.241 NA
ATOM      8  C   UNL d   1     -49.983  14.196  23.308  0.00  0.00     0.101 A 
ATOM      9  C   UNL d   1     -49.469  14.845  23.258  0.00  0.00     0.099 A 
ATOM     10  C   UNL d   1     -46.950  12.457  22.713  0.00  0.00     0.018 A 
ATOM     11  C   UNL d   1     -46.886  14.099  22.790  0.00  0.00     0.015 A 
ATOM     12  C   UNL d   1     -46.196  13.670  22.653  0.00  0.00     0.058 A 
ATOM     13  C   UNL d   1     -46.228  12.848  22.614  0.00  0.00     0.013 A 
ATOM     14 CL   UNL d   1     -45.473  14.055  22.554  0.00  0.00    -0.082 Cl
ATOM     15  C   UNL d   1     -50.771  14.310  23.445  0.00  0.00     0.021 A 
ATOM     16  C   UNL d   1     -49.768  15.600  23.348  0.00  0.00     0.021 A 
ATOM     17  C   UNL d   1     -51.064  15.092  23.535  0.00  0.00     0.002 A 
ATOM     18  C   UNL d   1     -50.579  15.736  23.490  0.00  0.00     0.002 A 
ENDROOT
BRANCH   3  19
ATOM     19  C   UNL d   1     -48.688  11.907  22.971  0.00  0.00     0.082 C 
ATOM     20  C   UNL d   1     -48.661  11.477  23.698  0.00  0.00     0.021 C 
ENDBRANCH   3  19
TORSDOF 1
ENDMDL
MODEL 4
REMARK VINA RESULT:      -8.4      1.682      3.952
REMARK  1 active torsions:
REMARK  status: ('A' for Active; 'I' for Inactive)
REMARK    1  A    between atoms: C_13  and  N_3 
ROOT
ATOM      1  C   UNL d   1     -48.105  12.337  23.410  0.00  0.00     0.166 A 
ATOM      2  C   UNL d   1     -48.263  13.091  23.129  0.00  0.00     0.117 A 
ATOM      3  N   UNL d   1     -47.279  12.269  23.442  0.00  0.00    -0.289 N 
ATOM      4  C   UNL d   1     -47.566  13.478  22.991  0.00  0.00     0.038 A 
ATOM      5  N   UNL d   1     -48.716  11.808  23.602  0.00  0.00    -0.225 NA
ATOM      6  C   UNL d   1     -46.952  12.965  23.186  0.00  0.00     0.067 A 
ATOM      7  N   UNL d   1     -49.058  13.305  23.044  0.00  0.00    -0.241 NA
ATOM      8  C   UNL d   1     -49.486  12.034  23.512  0.00  0.00     0.101 A 
ATOM      9  C   UNL d   1     -49.652  12.795  23.229  0.00  0.00     0.099 A 
ATOM     10  C   UNL d   1     -46.166  13.210  23.101  0.00  0.00     0.018 A 
ATOM     11  C   UNL d   1     -47.392  14.235  22.711  0.00  0.00     0.015 A 
ATOM     12  C   UNL d   1     -46.610  14.482  22.625  0.00  0.00     0.058 A 
ATOM     13  C   UNL d   1     -45.997  13.969  22.820  0.00  0.00     0.013 A 
ATOM     14 CL   UNL d   1     -46.436  15.238  22.346  0.00  0.00    -0.082 Cl
ATOM     15  C   UNL d   1     -50.088  11.527  23.696  0.00  0.00     0.021 A 
ATOM     16  C   UNL d   1     -50.430  13.027  23.137  0.00  0.00     0.021 A 
ATOM     17  C   UNL d   1     -50.883  11.779  23.597  0.00  0.00     0.002 A 
ATOM     18  C   UNL d   1     -51.064  12.517  23.321  0.00  0.00     0.002 A 
ENDROOT
BRANCH   3  19
ATOM     19  C   UNL d   1     -46.874  11.615  23.688  0.00  0.00     0.082 C 
ATOM     20  C   UNL d   1     -46.564  11.092  23.100  0.00  0.00     0.021 C 
ENDBRANCH   3  19
TORSDOF 1
ENDMDL
MODEL 5
REMARK VINA RESULT:      -8.3      1.248      3.199
REMARK  1 active torsions:
REMARK  status: ('A' for Active; 'I' for Inactive)
REMARK    1  A    between atoms: C_13  and  N_3 
ROOT
ATOM      1  C   UNL d   1     -48.002  13.959  23.006  0.00  0.00     0.166 A 
ATOM      2  C   UNL d   1     -48.394  13.244  23.101  0.00  0.00     0.117 A 
ATOM      3  N   UNL d   1     -47.195  13.797  23.112  0.00  0.00    -0.289 N 
ATOM      4  C   UNL d   1     -47.855  12.661  23.260  0.00  0.00     0.038 A 
ATOM      5  N   UNL d   1     -48.413  14.661  22.837  0.00  0.00    -0.225 NA
ATOM      6  C   UNL d   1     -47.108  13.006  23.267  0.00  0.00     0.067 A 
ATOM      7  N   UNL d   1     -49.218  13.251  23.021  0.00  0.00    -0.241 NA
ATOM      8  C   UNL d   1     -49.217  14.648  22.763  0.00  0.00     0.101 A 
ATOM      9  C   UNL d   1     -49.618  13.929  22.858  0.00  0.00     0.099 A 
ATOM     10  C   UNL d   1     -46.439  12.542  23.416  0.00  0.00     0.018 A 
ATOM     11  C   UNL d   1     -47.933  11.853  23.402  0.00  0.00     0.015 A 
ATOM     12  C   UNL d   1     -47.270  11.387  23.551  0.00  0.00     0.058 A 
ATOM     13  C   UNL d   1     -46.522  11.731  23.558  0.00  0.00     0.013 A 
ATOM     14 CL   UNL d   1     -47.347  10.578  23.694  0.00  0.00    -0.082 Cl
ATOM     15  C   UNL d   1     -49.626  15.325  22.599  0.00  0.00     0.021 A 
ATOM     16  C   UNL d   1     -50.432  13.913  22.784  0.00  0.00     0.021 A 
ATOM     17  C   UNL d   1     -50.462  15.293  22.525  0.00  0.00     0.002 A 
ATOM     18  C   UNL d   1     -50.871  14.602  22.615  0.00  0.00     0.002 A 
ENDROOT
BRANCH   3  19
ATOM     19  C   UNL d   1     -46.601  14.343  23.067  0.00  0.00     0.082 C 
ATOM     20  C   UNL d   1     -46.120  14.353  22.372  0.00  0.00     0.021 C 
ENDBRANCH   3  19
TORSDOF 1
ENDMDL
MODEL 6
REMARK VINA RESULT:      -8.2      1.647      3.243
REMARK  1 active torsions:
REMARK  status: ('A' for Active; 'I' for Inactive)
REMARK    1  A    between atoms: C_13  and  N_3 
ROOT
ATOM      1  C   UNL d   1     -48.756  12.899  23.296  0.00  0.00     0.166 A 
ATOM      2  C   UNL d   1     -47.971  13.107  23.177  0.00  0.00     0.117 A 
ATOM      3  N   UNL d   1     -48.753  12.099  23.513  0.00  0.00    -0.289 N 
ATOM      4  C   UNL d   1     -47.498  12.465  23.314  0.00  0.00     0.038 A 
ATOM      5  N   UNL d   1     -49.371  13.449  23.196  0.00  0.00    -0.225 NA
ATOM      6  C   UNL d   1     -47.986  11.836  23.524  0.00  0.00     0.067 A 
ATOM      7  N   UNL d   1     -47.816  13.889  22.953  0.00  0.00    -0.241 NA
ATOM      8  C   UNL d   1     -49.201  14.207  22.977  0.00  0.00     0.101 A 
ATOM      9  C   UNL d   1     -48.410  14.423  22.855  0.00  0.00     0.099 A 
ATOM     10  C   UNL d   1     -47.657  11.096  23.698  0.00  0.00     0.018 A 
ATOM     11  C   UNL d   1     -46.682  12.353  23.279  0.00  0.00     0.015 A 
ATOM     12  C   UNL d   1     -46.349  11.619  23.452  0.00  0.00     0.058 A 
ATOM     13  C   UNL d   1     -46.837  10.990  23.661  0.00  0.00     0.013 A 
ATOM     14 CL   UNL d   1     -45.533  11.508  23.417  0.00  0.00    -0.082 Cl
ATOM     15  C   UNL d   1     -49.792  14.748  22.877  0.00  0.00     0.021 A 
ATOM     16  C   UNL d   1     -48.234  15.189  22.633  0.00  0.00     0.021 A 
ATOM     17  C   UNL d   1     -49.596  15.533  22.649  0.00  0.00     0.002 A 
ATOM     18  C   UNL d   1     -48.832  15.762  22.525  0.00  0.00     0.002 A 
ENDROOT
BRANCH   3  19
ATOM     19  C   UNL d   1     -49.409  11.660  23.685  0.00  0.00     0.082 C 
ATOM     20  C   UNL d   1     -49.781  11.234  23.056  0.00  0.00     0.021 C 
ENDBRANCH   3  19
TORSDOF 1
ENDMDL
MODEL 7
REMARK VINA RESULT:      -7.6      1.204      1.981
REMARK  1 active torsions:
REMARK  status: ('A' for Active; 'I' for Inactive)
REMARK    1  A    between atoms: C_13  and  N_3 
ROOT
ATOM      1  C   UNL d   1     -47.597  13.759  23.029  0.00  0.00     0.166 A 
ATOM      2  C   UNL d   1     -48.303  13.362  23.162  0.00  0.00     0.117 A 
ATOM      3  N   UNL d   1     -47.801  14.541  22.846  0.00  0.00    -0.289 N 
ATOM      4  C   UNL d   1     -48.922  13.875  23.066  0.00  0.00     0.038 A 
ATOM      5  N   UNL d   1     -46.864  13.373  23.088  0.00  0.00    -0.225 NA
ATOM      6  C   UNL d   1     -48.609  14.610  22.869  0.00  0.00     0.067 A 
ATOM      7  N   UNL d   1     -48.255  12.559  23.358  0.00  0.00    -0.241 NA
ATOM      8  C   UNL d   1     -46.837  12.589  23.281  0.00  0.00     0.101 A 
ATOM      9  C   UNL d   1     -47.547  12.183  23.416  0.00  0.00     0.099 A 
ATOM     10  C   UNL d   1     -49.114  15.252  22.735  0.00  0.00     0.018 A 
ATOM     11  C   UNL d   1     -49.739  13.782  23.129  0.00  0.00     0.015 A 
ATOM     12  C   UNL d   1     -50.245  14.419  22.997  0.00  0.00     0.058 A 
ATOM     13  C   UNL d   1     -49.933  15.154  22.800  0.00  0.00     0.013 A 
ATOM     14 CL   UNL d   1     -51.063  14.327  23.060  0.00  0.00    -0.082 Cl
ATOM     15  C   UNL d   1     -46.129  12.204  23.341  0.00  0.00     0.021 A 
ATOM     16  C   UNL d   1     -47.522  11.390  23.611  0.00  0.00     0.021 A 
ATOM     17  C   UNL d   1     -46.119  11.389  23.542  0.00  0.00     0.002 A 
ATOM     18  C   UNL d   1     -46.801  10.976  23.677  0.00  0.00     0.002 A 
ENDROOT
BRANCH   3  19
ATOM     19  C   UNL d   1     -47.278  15.132  22.674  0.00  0.00     0.082 C 
ATOM     20  C   UNL d   1     -47.039  15.233  21.870  0.00  0.00     0.021 C 
ENDBRANCH   3  19
TORSDOF 1
ENDMDL
MODEL 8
REMARK VINA RESULT:      -7.3      1.939      3.057
REMARK  1 active torsions:
REMARK  status: ('A' for Active; 'I' for Inactive)
REMARK    1  A    between atoms: C_13  and  N_3 
ROOT
ATOM      1  C   UNL d   1     -46.013  12.265  22.994  0.00  0.00     0.166 A 
ATOM      2  C   UNL d   1     -46.538  11.704  23.283  0.00  0.00     0.117 A 
ATOM      3  N   UNL d   1     -46.466  12.932  22.804  0.00  0.00    -0.289 N 
ATOM      4  C   UNL d   1     -47.288  12.010  23.274  0.00  0.00     0.038 A 
ATOM      5  N   UNL d   1     -45.199  12.107  22.936  0.00  0.00    -0.225 NA
ATOM      6  C   UNL d   1     -47.243  12.776  22.976  0.00  0.00     0.067 A 
ATOM      7  N   UNL d   1     -46.224  10.975  23.516  0.00  0.00    -0.241 NA
ATOM      8  C   UNL d   1     -44.911  11.389  23.169  0.00  0.00     0.101 A 
ATOM      9  C   UNL d   1     -45.437  10.820  23.462  0.00  0.00     0.099 A 
ATOM     10  C   UNL d   1     -47.929  13.232  22.900  0.00  0.00     0.018 A 
ATOM     11  C   UNL d   1     -48.020  11.702  23.497  0.00  0.00     0.015 A 
ATOM     12  C   UNL d   1     -48.706  12.152  23.424  0.00  0.00     0.058 A 
ATOM     13  C   UNL d   1     -48.661  12.918  23.126  0.00  0.00     0.013 A 
ATOM     14 CL   UNL d   1     -49.438  11.844  23.647  0.00  0.00    -0.082 Cl
ATOM     15  C   UNL d   1     -44.121  11.227  23.117  0.00  0.00     0.021 A 
ATOM     16  C   UNL d   1     -45.149  10.093  23.698  0.00  0.00     0.021 A 
ATOM     17  C   UNL d   1     -43.839  10.475  23.363  0.00  0.00     0.002 A 
ATOM     18  C   UNL d   1     -44.337   9.907  23.652  0.00  0.00     0.002 A 
ENDROOT
BRANCH   3  19
ATOM     19  C   UNL d   1     -46.175  13.622  22.499  0.00  0.00     0.082 C 
ATOM     20  C   UNL d   1     -45.937  14.228  23.038  0.00  0.00     0.021 C 
ENDBRANCH   3  19
TORSDOF 1
ENDMDL
MODEL 9
REMARK VINA RESULT:      -7.1      8.889     10.419
REMARK  1 active torsions:
REMARK  status: ('A' for Active; 'I' for Inactive)
REMARK    1  A    between atoms: C_13  and  N_3 
ROOT
ATOM      1  C   UNL d   1     -40.117  15.156  18.394  0.00  0.00     0.166 A 
ATOM      2  C   UNL d   1     -39.696  14.505  18.664  0.00  0.00     0.117 A 
ATOM      3  N   UNL d   1     -39.993  15.190  17.575  0.00  0.00    -0.289 N 
ATOM      4  C   UNL d   1     -39.326  14.147  18.040  0.00  0.00     0.038 A 
ATOM      5  N   UNL d   1     -40.555  15.635  18.913  0.00  0.00    -0.225 NA
ATOM      6  C   UNL d   1     -39.511  14.574  17.361  0.00  0.00     0.067 A 
ATOM      7  N   UNL d   1     -39.727  14.344  19.476  0.00  0.00    -0.241 NA
ATOM      8  C   UNL d   1     -40.572  15.462  19.702  0.00  0.00     0.101 A 
ATOM      9  C   UNL d   1     -40.150  14.805  19.980  0.00  0.00     0.099 A 
ATOM     10  C   UNL d   1     -39.208  14.337  16.628  0.00  0.00     0.018 A 
ATOM     11  C   UNL d   1     -38.839  13.483  17.984  0.00  0.00     0.015 A 
ATOM     12  C   UNL d   1     -38.536  13.244  17.256  0.00  0.00     0.058 A 
ATOM     13  C   UNL d   1     -38.720  13.671  16.578  0.00  0.00     0.013 A 
ATOM     14 CL   UNL d   1     -38.048  12.581  17.201  0.00  0.00    -0.082 Cl
ATOM     15  C   UNL d   1     -40.995  15.922  20.214  0.00  0.00     0.021 A 
ATOM     16  C   UNL d   1     -40.166  14.628  20.777  0.00  0.00     0.021 A 
ATOM     17  C   UNL d   1     -41.003  15.727  21.031  0.00  0.00     0.002 A 
ATOM     18  C   UNL d   1     -40.597  15.091  21.321  0.00  0.00     0.002 A 
ENDROOT
BRANCH   3  19
ATOM     19  C   UNL d   1     -40.304  15.746  17.079  0.00  0.00     0.082 C 
ATOM     20  C   UNL d   1     -41.053  15.589  16.722  0.00  0.00     0.021 C 
ENDBRANCH   3  19
TORSDOF 1
ENDMDL
