MODEL 1
REMARK VINA RESULT:      21.8      0.000      0.000
REMARK  5 active torsions:
REMARK  status: ('A' for Active; 'I' for Inactive)
REMARK    1  A    between atoms: C_7  and  N_2 
REMARK    2  A    between atoms: C_8  and  C_7 
REMARK    3  A    between atoms: C_13  and  C_8 
REMARK    4  A    between atoms: C_9  and  O_11 
REMARK    5  A    between atoms: O_11  and  C_13 
ROOT
ATOM      1  C   UNL d   1      15.305  11.861  -1.682  0.00  0.00     0.378 A 
ATOM      2  N   UNL d   1      14.541  11.844  -1.356  0.00  0.00    -0.251 N 
ATOM      3  O   UNL d   1      15.233  11.869  -2.501  0.00  0.00    -0.258 OA
ATOM      4  C   UNL d   1      14.000  11.842  -1.988  0.00  0.00     0.092 A 
ATOM      5  C   UNL d   1      14.429  11.858  -2.693  0.00  0.00     0.121 A 
ATOM      6  O   UNL d   1      16.007  11.867  -1.252  0.00  0.00    -0.237 OA
ATOM      7  C   UNL d   1      13.176  11.829  -1.999  0.00  0.00     0.020 A 
ATOM      8  C   UNL d   1      14.027  11.860  -3.422  0.00  0.00     0.026 A 
ATOM      9  C   UNL d   1      12.778  11.831  -2.726  0.00  0.00     0.002 A 
ATOM     10  C   UNL d   1      13.203  11.846  -3.437  0.00  0.00     0.002 A 
ENDROOT
BRANCH   2  11
ATOM     11  C   UNL d   1      14.356  11.831  -0.560  0.00  0.00     0.087 C 
BRANCH  11  12
ATOM     12  C   UNL d   1      14.790  12.274  -0.020  0.00  0.00     0.046 C 
BRANCH  12  13
ATOM     13  C   UNL d   1      14.752  13.089  -0.023  0.00  0.00     0.124 C 
BRANCH  13  14
ATOM     14  O   UNL d   1      15.438  13.542  -0.016  0.00  0.00    -0.305 OA
BRANCH  14  15
ATOM     15  C   UNL d   1      15.403  14.364  -0.098  0.00  0.00     0.100 A 
ATOM     16  C   UNL d   1      16.083  14.812  -0.020  0.00  0.00     0.025 A 
ATOM     17  C   UNL d   1      16.048  15.636  -0.102  0.00  0.00     0.002 A 
ATOM     18  C   UNL d   1      15.330  15.997  -0.261  0.00  0.00     0.000 A 
ATOM     19  C   UNL d   1      14.643  15.543  -0.340  0.00  0.00     0.002 A 
ATOM     20  C   UNL d   1      14.678  14.721  -0.258  0.00  0.00     0.025 A 
ENDBRANCH  14  15
ENDBRANCH  13  14
ENDBRANCH  12  13
ENDBRANCH  11  12
ENDBRANCH   2  11
TORSDOF 5
ENDMDL
MODEL 2
REMARK VINA RESULT:      22.3      2.123      3.632
REMARK  5 active torsions:
REMARK  status: ('A' for Active; 'I' for Inactive)
REMARK    1  A    between atoms: C_7  and  N_2 
REMARK    2  A    between atoms: C_8  and  C_7 
REMARK    3  A    between atoms: C_13  and  C_8 
REMARK    4  A    between atoms: C_9  and  O_11 
REMARK    5  A    between atoms: O_11  and  C_13 
ROOT
ATOM      1  C   UNL d   1      14.627  11.822  -2.712  0.00  0.00     0.378 A 
ATOM      2  N   UNL d   1      13.833  11.799  -2.468  0.00  0.00    -0.251 N 
ATOM      3  O   UNL d   1      15.100  11.836  -2.040  0.00  0.00    -0.258 OA
ATOM      4  C   UNL d   1      13.828  11.798  -1.636  0.00  0.00     0.092 A 
ATOM      5  C   UNL d   1      14.610  11.821  -1.374  0.00  0.00     0.121 A 
ATOM      6  O   UNL d   1      14.885  11.831  -3.493  0.00  0.00    -0.237 OA
ATOM      7  C   UNL d   1      13.205  11.779  -1.096  0.00  0.00     0.020 A 
ATOM      8  C   UNL d   1      14.773  11.825  -0.558  0.00  0.00     0.026 A 
ATOM      9  C   UNL d   1      13.370  11.783  -0.284  0.00  0.00     0.002 A 
ATOM     10  C   UNL d   1      14.153  11.806  -0.015  0.00  0.00     0.002 A 
ENDROOT
BRANCH   2  11
ATOM     11  C   UNL d   1      13.178  11.780  -2.957  0.00  0.00     0.087 C 
BRANCH  11  12
ATOM     12  C   UNL d   1      13.193  12.142  -3.695  0.00  0.00     0.046 C 
BRANCH  12  13
ATOM     13  C   UNL d   1      12.788  12.838  -3.826  0.00  0.00     0.124 C 
BRANCH  13  14
ATOM     14  O   UNL d   1      12.816  13.210  -4.559  0.00  0.00    -0.305 OA
BRANCH  14  15
ATOM     15  C   UNL d   1      13.035  14.005  -4.622  0.00  0.00     0.100 A 
ATOM     16  C   UNL d   1      13.094  14.356  -5.358  0.00  0.00     0.025 A 
ATOM     17  C   UNL d   1      13.313  15.152  -5.422  0.00  0.00     0.002 A 
ATOM     18  C   UNL d   1      13.470  15.584  -4.744  0.00  0.00     0.000 A 
ATOM     19  C   UNL d   1      13.410  15.229  -3.999  0.00  0.00     0.002 A 
ATOM     20  C   UNL d   1      13.191  14.434  -3.936  0.00  0.00     0.025 A 
ENDBRANCH  14  15
ENDBRANCH  13  14
ENDBRANCH  12  13
ENDBRANCH  11  12
ENDBRANCH   2  11
TORSDOF 5
ENDMDL
