MODEL 1
REMARK VINA RESULT:     -10.3      0.000      0.000
REMARK  3 active torsions:
REMARK  status: ('A' for Active; 'I' for Inactive)
REMARK    1  A    between atoms: C_2  and  C_1 
REMARK    2  A    between atoms: C_3  and  C_1 
REMARK       I    between atoms: N_4  and  C_2 
REMARK    3  A    between atoms: C_6  and  N_4 
ROOT
ATOM      1  C   UNL d   1      53.664  33.301  54.001  0.00  0.00     0.150 A 
ATOM      2  O   UNL d   1      54.197  33.926  55.435  0.00  0.00    -0.304 OA
ATOM      3  C   UNL d   1      54.357  33.010  54.346  0.00  0.00     0.019 A 
ATOM      4  C   UNL d   1      53.244  33.896  54.370  0.00  0.00     0.019 A 
ATOM      5  C   UNL d   1      53.513  34.210  55.093  0.00  0.00     0.119 A 
ATOM      6  C   UNL d   1      54.623  33.325  55.064  0.00  0.00     0.119 A 
ENDROOT
BRANCH   1   7
ATOM      7  C   UNL d   1      54.089  32.698  53.627  0.00  0.00     0.315 C 
ATOM      8  N   UNL d   1      53.815  31.920  53.643  0.00  0.00    -0.367 NA
ATOM      9  O   UNL d   1      54.790  32.881  53.237  0.00  0.00    -0.255 OA
BRANCH   8  10
ATOM     10  C   UNL d   1      53.547  31.143  53.655  0.00  0.00     0.135 A 
ATOM     11  C   UNL d   1      53.276  30.817  52.960  0.00  0.00     0.032 A 
ATOM     12  C   UNL d   1      53.002  30.026  52.969  0.00  0.00     0.003 A 
ATOM     13  C   UNL d   1      52.725  29.690  52.265  0.00  0.00     0.000 C 
ATOM     14  C   UNL d   1      53.012  29.613  53.648  0.00  0.00     0.000 A 
ATOM     15  C   UNL d   1      53.282  29.938  54.339  0.00  0.00     0.003 A 
ATOM     16  C   UNL d   1      53.550  30.706  54.337  0.00  0.00     0.032 A 
ATOM     17  C   UNL d   1      53.289  29.504  55.037  0.00  0.00     0.000 C 
ENDBRANCH   8  10
ENDBRANCH   1   7
BRANCH   1  18
ATOM     18  C   UNL d   1      52.969  33.590  53.653  0.00  0.00     0.024 A 
ATOM     19  S   UNL d   1      52.913  34.055  52.967  0.00  0.00    -0.090 SA
ATOM     20  C   UNL d   1      52.119  34.218  52.818  0.00  0.00     0.035 A 
ATOM     21  C   UNL d   1      51.665  33.862  53.401  0.00  0.00     0.007 A 
ATOM     22  C   UNL d   1      52.191  33.471  53.922  0.00  0.00     0.004 A 
ENDBRANCH   1  18
TORSDOF 3
ENDMDL
MODEL 2
REMARK VINA RESULT:      -8.4      1.083      1.941
REMARK  3 active torsions:
REMARK  status: ('A' for Active; 'I' for Inactive)
REMARK    1  A    between atoms: C_2  and  C_1 
REMARK    2  A    between atoms: C_3  and  C_1 
REMARK       I    between atoms: N_4  and  C_2 
REMARK    3  A    between atoms: C_6  and  N_4 
ROOT
ATOM      1  C   UNL d   1      53.549  33.573  53.864  0.00  0.00     0.150 A 
ATOM      2  O   UNL d   1      52.317  34.675  53.863  0.00  0.00    -0.304 OA
ATOM      3  C   UNL d   1      53.021  33.601  53.228  0.00  0.00     0.019 A 
ATOM      4  C   UNL d   1      53.461  34.090  54.489  0.00  0.00     0.019 A 
ATOM      5  C   UNL d   1      52.840  34.645  54.488  0.00  0.00     0.119 A 
ATOM      6  C   UNL d   1      52.404  34.154  53.229  0.00  0.00     0.119 A 
ENDROOT
BRANCH   1   7
ATOM      7  C   UNL d   1      53.639  33.049  53.229  0.00  0.00     0.315 C 
ATOM      8  N   UNL d   1      53.404  32.262  53.300  0.00  0.00    -0.367 NA
ATOM      9  O   UNL d   1      53.966  33.321  52.525  0.00  0.00    -0.255 OA
BRANCH   8  10
ATOM     10  C   UNL d   1      53.171  31.476  53.364  0.00  0.00     0.135 A 
ATOM     11  C   UNL d   1      53.748  30.909  53.450  0.00  0.00     0.032 A 
ATOM     12  C   UNL d   1      53.514  30.107  53.516  0.00  0.00     0.003 A 
ATOM     13  C   UNL d   1      54.097  29.526  53.603  0.00  0.00     0.000 C 
ATOM     14  C   UNL d   1      52.743  29.919  53.493  0.00  0.00     0.000 A 
ATOM     15  C   UNL d   1      52.170  30.484  53.408  0.00  0.00     0.003 A 
ATOM     16  C   UNL d   1      52.389  31.264  53.343  0.00  0.00     0.032 A 
ATOM     17  C   UNL d   1      51.373  30.280  53.385  0.00  0.00     0.000 C 
ENDBRANCH   8  10
ENDBRANCH   1   7
BRANCH   1  18
ATOM     18  C   UNL d   1      54.081  33.543  54.499  0.00  0.00     0.024 A 
ATOM     19  S   UNL d   1      54.882  33.759  54.487  0.00  0.00    -0.090 SA
ATOM     20  C   UNL d   1      55.203  33.641  55.238  0.00  0.00     0.035 A 
ATOM     21  C   UNL d   1      54.615  33.351  55.731  0.00  0.00     0.007 A 
ATOM     22  C   UNL d   1      53.916  33.289  55.274  0.00  0.00     0.004 A 
ENDBRANCH   1  18
TORSDOF 3
ENDMDL
MODEL 3
REMARK VINA RESULT:      -8.0      1.184      3.241
REMARK  3 active torsions:
REMARK  status: ('A' for Active; 'I' for Inactive)
REMARK    1  A    between atoms: C_2  and  C_1 
REMARK    2  A    between atoms: C_3  and  C_1 
REMARK       I    between atoms: N_4  and  C_2 
REMARK    3  A    between atoms: C_6  and  N_4 
ROOT
ATOM      1  C   UNL d   1      53.765  32.607  53.962  0.00  0.00     0.150 A 
ATOM      2  O   UNL d   1      54.223  32.977  55.506  0.00  0.00    -0.304 OA
ATOM      3  C   UNL d   1      53.892  33.395  54.177  0.00  0.00     0.019 A 
ATOM      4  C   UNL d   1      53.866  32.014  54.512  0.00  0.00     0.019 A 
ATOM      5  C   UNL d   1      54.097  32.200  55.290  0.00  0.00     0.119 A 
ATOM      6  C   UNL d   1      54.122  33.579  54.951  0.00  0.00     0.119 A 
ENDROOT
BRANCH   1   7
ATOM      7  C   UNL d   1      53.663  33.209  53.403  0.00  0.00     0.315 C 
ATOM      8  N   UNL d   1      52.906  33.459  53.191  0.00  0.00    -0.367 NA
ATOM      9  O   UNL d   1      54.324  33.556  53.059  0.00  0.00    -0.255 OA
BRANCH   8  10
ATOM     10  C   UNL d   1      52.154  33.713  52.976  0.00  0.00     0.135 A 
ATOM     11  C   UNL d   1      52.023  33.916  52.199  0.00  0.00     0.032 A 
ATOM     12  C   UNL d   1      51.259  34.175  51.976  0.00  0.00     0.003 A 
ATOM     13  C   UNL d   1      51.120  34.383  51.187  0.00  0.00     0.000 C 
ATOM     14  C   UNL d   1      50.683  34.218  52.522  0.00  0.00     0.000 A 
ATOM     15  C   UNL d   1      50.814  34.016  53.295  0.00  0.00     0.003 A 
ATOM     16  C   UNL d   1      51.554  33.763  53.518  0.00  0.00     0.032 A 
ATOM     17  C   UNL d   1      50.212  34.062  53.854  0.00  0.00     0.000 C 
ENDBRANCH   8  10
ENDBRANCH   1   7
BRANCH   1  18
ATOM     18  C   UNL d   1      53.637  31.818  53.743  0.00  0.00     0.024 A 
ATOM     19  S   UNL d   1      53.185  31.255  54.154  0.00  0.00    -0.090 SA
ATOM     20  C   UNL d   1      53.205  30.541  53.741  0.00  0.00     0.035 A 
ATOM     21  C   UNL d   1      53.665  30.641  53.069  0.00  0.00     0.007 A 
ATOM     22  C   UNL d   1      53.934  31.433  53.067  0.00  0.00     0.004 A 
ENDBRANCH   1  18
TORSDOF 3
ENDMDL
MODEL 4
REMARK VINA RESULT:      -7.6      1.675      2.518
REMARK  3 active torsions:
REMARK  status: ('A' for Active; 'I' for Inactive)
REMARK    1  A    between atoms: C_2  and  C_1 
REMARK    2  A    between atoms: C_3  and  C_1 
REMARK       I    between atoms: N_4  and  C_2 
REMARK    3  A    between atoms: C_6  and  N_4 
ROOT
ATOM      1  C   UNL d   1      51.761  34.176  52.973  0.00  0.00     0.150 A 
ATOM      2  O   UNL d   1      50.118  34.306  53.102  0.00  0.00    -0.304 OA
ATOM      3  C   UNL d   1      51.271  33.700  52.506  0.00  0.00     0.019 A 
ATOM      4  C   UNL d   1      51.432  34.709  53.496  0.00  0.00     0.019 A 
ATOM      5  C   UNL d   1      50.604  34.774  53.560  0.00  0.00     0.119 A 
ATOM      6  C   UNL d   1      50.448  33.767  52.572  0.00  0.00     0.119 A 
ENDROOT
BRANCH   1   7
ATOM      7  C   UNL d   1      52.094  33.635  52.442  0.00  0.00     0.315 C 
ATOM      8  N   UNL d   1      52.439  32.938  52.716  0.00  0.00    -0.367 NA
ATOM      9  O   UNL d   1      52.080  33.800  51.636  0.00  0.00    -0.255 OA
BRANCH   8  10
ATOM     10  C   UNL d   1      52.783  32.241  52.984  0.00  0.00     0.135 A 
ATOM     11  C   UNL d   1      52.405  31.538  52.825  0.00  0.00     0.032 A 
ATOM     12  C   UNL d   1      52.753  30.826  53.096  0.00  0.00     0.003 A 
ATOM     13  C   UNL d   1      52.372  30.108  52.937  0.00  0.00     0.000 C 
ATOM     14  C   UNL d   1      53.438  30.851  53.497  0.00  0.00     0.000 A 
ATOM     15  C   UNL d   1      53.814  31.550  53.654  0.00  0.00     0.003 A 
ATOM     16  C   UNL d   1      53.482  32.246  53.395  0.00  0.00     0.032 A 
ATOM     17  C   UNL d   1      54.523  31.567  54.071  0.00  0.00     0.000 C 
ENDBRANCH   8  10
ENDBRANCH   1   7
BRANCH   1  18
ATOM     18  C   UNL d   1      52.254  34.651  53.438  0.00  0.00     0.024 A 
ATOM     19  S   UNL d   1      52.197  34.774  54.258  0.00  0.00    -0.090 SA
ATOM     20  C   UNL d   1      52.799  35.286  54.495  0.00  0.00     0.035 A 
ATOM     21  C   UNL d   1      53.241  35.492  53.836  0.00  0.00     0.007 A 
ATOM     22  C   UNL d   1      52.905  35.100  53.177  0.00  0.00     0.004 A 
ENDBRANCH   1  18
TORSDOF 3
ENDMDL
