MODEL 1
REMARK VINA RESULT:      -6.1      0.000      0.000
REMARK  7 active torsions:
REMARK  status: ('A' for Active; 'I' for Inactive)
REMARK    1  A    between atoms: C_13  and  N_2 
REMARK    2  A    between atoms: C_7  and  C_4 
REMARK    3  A    between atoms: O_19  and  C_7 
REMARK    4  A    between atoms: C_9  and  C_18 
REMARK    5  A    between atoms: C_20  and  C_13 
REMARK    6  A    between atoms: O_16  and  C_15 
REMARK    7  A    between atoms: C_18  and  O_16 
ROOT
ATOM      1  C   UNL d   1     -49.373  11.952  23.327  0.00  0.00     0.265 A 
ATOM      2  N   UNL d   1     -49.601  12.667  22.984  0.00  0.00    -0.272 N 
ATOM      3  C   UNL d   1     -48.580  11.738  23.340  0.00  0.00     0.059 A 
ATOM      4  C   UNL d   1     -48.012  12.238  23.012  0.00  0.00     0.029 A 
ATOM      5  C   UNL d   1     -48.235  12.950  22.670  0.00  0.00     0.021 A 
ATOM      6  C   UNL d   1     -49.032  13.166  22.655  0.00  0.00     0.083 A 
ATOM      7  O   UNL d   1     -49.942  11.453  23.655  0.00  0.00    -0.267 OA
ATOM      8  C   UNL d   1     -47.215  12.021  23.026  0.00  0.00     0.100 A 
ATOM      9  C   UNL d   1     -48.352  11.023  23.683  0.00  0.00     0.005 A 
ATOM     10  C   UNL d   1     -47.556  10.807  23.698  0.00  0.00     0.002 A 
ATOM     11  C   UNL d   1     -46.988  11.306  23.369  0.00  0.00     0.025 A 
ENDROOT
BRANCH   8  12
ATOM     12  O   UNL d   1     -46.646  12.521  22.697  0.00  0.00    -0.303 OA
BRANCH  12  13
ATOM     13  C   UNL d   1     -45.892  12.562  23.031  0.00  0.00     0.147 C 
BRANCH  13  14
ATOM     14  C   UNL d   1     -45.261  12.854  22.587  0.00  0.00     0.125 A 
ATOM     15  O   UNL d   1     -44.562  12.497  22.313  0.00  0.00    -0.300 OA
ATOM     16  C   UNL d   1     -44.140  13.071  21.895  0.00  0.00     0.163 A 
ATOM     17  C   UNL d   1     -44.562  13.768  21.907  0.00  0.00     0.032 A 
ATOM     18  C   UNL d   1     -45.260  13.637  22.336  0.00  0.00     0.029 A 
BRANCH  16  19
ATOM     19  C   UNL d   1     -43.400  12.960  21.520  0.00  0.00     0.319 C 
ATOM     20  O   UNL d   1     -43.198  12.225  21.222  0.00  0.00    -0.257 OA
BRANCH  19  21
ATOM     21  O   UNL d   1     -42.866  13.602  21.449  0.00  0.00    -0.294 OA
ATOM     22  C   UNL d   1     -42.153  13.509  21.043  0.00  0.00     0.185 C 
ENDBRANCH  19  21
ENDBRANCH  16  19
ENDBRANCH  13  14
ENDBRANCH  12  13
ENDBRANCH   8  12
BRANCH   2  23
ATOM     23  C   UNL d   1     -50.407  12.881  22.971  0.00  0.00     0.083 C 
BRANCH  23  24
ATOM     24  C   UNL d   1     -50.626  13.677  22.970  0.00  0.00     0.018 A 
ATOM     25  C   UNL d   1     -50.721  14.072  22.254  0.00  0.00     0.002 A 
ATOM     26  C   UNL d   1     -50.940  14.868  22.253  0.00  0.00     0.000 A 
ATOM     27  C   UNL d   1     -51.064  15.264  22.967  0.00  0.00     0.000 A 
ATOM     28  C   UNL d   1     -50.967  14.863  23.677  0.00  0.00     0.000 A 
ATOM     29  C   UNL d   1     -50.748  14.068  23.679  0.00  0.00     0.002 A 
ENDBRANCH  23  24
ENDBRANCH   2  23
TORSDOF 7
ENDMDL
MODEL 2
REMARK VINA RESULT:      -5.5      1.599      2.459
REMARK  7 active torsions:
REMARK  status: ('A' for Active; 'I' for Inactive)
REMARK    1  A    between atoms: C_13  and  N_2 
REMARK    2  A    between atoms: C_7  and  C_4 
REMARK    3  A    between atoms: O_19  and  C_7 
REMARK    4  A    between atoms: C_9  and  C_18 
REMARK    5  A    between atoms: C_20  and  C_13 
REMARK    6  A    between atoms: O_16  and  C_15 
REMARK    7  A    between atoms: C_18  and  O_16 
ROOT
ATOM      1  C   UNL d   1     -46.947  12.467  23.309  0.00  0.00     0.265 A 
ATOM      2  N   UNL d   1     -47.141  13.240  23.092  0.00  0.00    -0.272 N 
ATOM      3  C   UNL d   1     -46.202  12.169  23.137  0.00  0.00     0.059 A 
ATOM      4  C   UNL d   1     -45.647  12.639  22.748  0.00  0.00     0.029 A 
ATOM      5  C   UNL d   1     -45.837  13.408  22.531  0.00  0.00     0.021 A 
ATOM      6  C   UNL d   1     -46.586  13.710  22.703  0.00  0.00     0.083 A 
ATOM      7  O   UNL d   1     -47.502  11.997  23.698  0.00  0.00    -0.267 OA
ATOM      8  C   UNL d   1     -44.898  12.337  22.575  0.00  0.00     0.100 A 
ATOM      9  C   UNL d   1     -46.009  11.396  23.353  0.00  0.00     0.005 A 
ATOM     10  C   UNL d   1     -45.260  11.094  23.181  0.00  0.00     0.002 A 
ATOM     11  C   UNL d   1     -44.705  11.564  22.792  0.00  0.00     0.025 A 
ENDROOT
BRANCH   8  12
ATOM     12  O   UNL d   1     -44.343  12.807  22.186  0.00  0.00    -0.303 OA
BRANCH  12  13
ATOM     13  C   UNL d   1     -43.679  12.461  21.841  0.00  0.00     0.147 C 
BRANCH  13  14
ATOM     14  C   UNL d   1     -43.116  12.933  21.465  0.00  0.00     0.125 A 
ATOM     15  O   UNL d   1     -42.588  13.505  21.757  0.00  0.00    -0.300 OA
ATOM     16  C   UNL d   1     -42.158  13.793  21.112  0.00  0.00     0.163 A 
ATOM     17  C   UNL d   1     -42.411  13.412  20.437  0.00  0.00     0.032 A 
ATOM     18  C   UNL d   1     -43.007  12.877  20.653  0.00  0.00     0.029 A 
BRANCH  16  19
ATOM     19  C   UNL d   1     -41.562  14.380  21.143  0.00  0.00     0.319 C 
ATOM     20  O   UNL d   1     -40.798  14.177  21.354  0.00  0.00    -0.257 OA
BRANCH  19  21
ATOM     21  O   UNL d   1     -41.748  15.175  20.958  0.00  0.00    -0.294 OA
ATOM     22  C   UNL d   1     -41.192  15.774  21.082  0.00  0.00     0.185 C 
ENDBRANCH  19  21
ENDBRANCH  16  19
ENDBRANCH  13  14
ENDBRANCH  12  13
ENDBRANCH   8  12
BRANCH   2  23
ATOM     23  C   UNL d   1     -47.899  13.541  23.268  0.00  0.00     0.083 C 
BRANCH  23  24
ATOM     24  C   UNL d   1     -48.328  13.950  22.695  0.00  0.00     0.018 A 
ATOM     25  C   UNL d   1     -48.736  13.532  22.115  0.00  0.00     0.002 A 
ATOM     26  C   UNL d   1     -49.166  13.941  21.541  0.00  0.00     0.000 A 
ATOM     27  C   UNL d   1     -49.184  14.766  21.550  0.00  0.00     0.000 A 
ATOM     28  C   UNL d   1     -48.774  15.178  22.131  0.00  0.00     0.000 A 
ATOM     29  C   UNL d   1     -48.345  14.769  22.705  0.00  0.00     0.002 A 
ENDBRANCH  23  24
ENDBRANCH   2  23
TORSDOF 7
ENDMDL
MODEL 3
REMARK VINA RESULT:      -5.1      3.854      9.048
REMARK  7 active torsions:
REMARK  status: ('A' for Active; 'I' for Inactive)
REMARK    1  A    between atoms: C_13  and  N_2 
REMARK    2  A    between atoms: C_7  and  C_4 
REMARK    3  A    between atoms: O_19  and  C_7 
REMARK    4  A    between atoms: C_9  and  C_18 
REMARK    5  A    between atoms: C_20  and  C_13 
REMARK    6  A    between atoms: O_16  and  C_15 
REMARK    7  A    between atoms: C_18  and  O_16 
ROOT
ATOM      1  C   UNL d   1     -39.564  15.416  19.341  0.00  0.00     0.265 A 
ATOM      2  N   UNL d   1     -39.814  15.069  18.635  0.00  0.00    -0.272 N 
ATOM      3  C   UNL d   1     -39.964  15.257  20.040  0.00  0.00     0.059 A 
ATOM      4  C   UNL d   1     -40.616  14.752  20.038  0.00  0.00     0.029 A 
ATOM      5  C   UNL d   1     -40.868  14.405  19.337  0.00  0.00     0.021 A 
ATOM      6  C   UNL d   1     -40.466  14.564  18.633  0.00  0.00     0.083 A 
ATOM      7  O   UNL d   1     -38.912  15.922  19.343  0.00  0.00    -0.267 OA
ATOM      8  C   UNL d   1     -41.018  14.593  20.741  0.00  0.00     0.100 A 
ATOM      9  C   UNL d   1     -39.714  15.604  20.745  0.00  0.00     0.005 A 
ATOM     10  C   UNL d   1     -40.115  15.446  21.449  0.00  0.00     0.002 A 
ATOM     11  C   UNL d   1     -40.767  14.941  21.447  0.00  0.00     0.025 A 
ENDROOT
BRANCH   8  12
ATOM     12  O   UNL d   1     -41.670  14.087  20.739  0.00  0.00    -0.303 OA
BRANCH  12  13
ATOM     13  C   UNL d   1     -41.874  13.676  21.425  0.00  0.00     0.147 C 
BRANCH  13  14
ATOM     14  C   UNL d   1     -42.617  13.323  21.487  0.00  0.00     0.125 A 
ATOM     15  O   UNL d   1     -43.376  13.644  21.598  0.00  0.00    -0.300 OA
ATOM     16  C   UNL d   1     -43.910  13.012  21.617  0.00  0.00     0.163 A 
ATOM     17  C   UNL d   1     -43.496  12.317  21.520  0.00  0.00     0.032 A 
ATOM     18  C   UNL d   1     -42.692  12.507  21.440  0.00  0.00     0.029 A 
BRANCH  16  19
ATOM     19  C   UNL d   1     -44.738  13.073  21.718  0.00  0.00     0.319 C 
ATOM     20  O   UNL d   1     -45.244  12.760  21.156  0.00  0.00    -0.257 OA
BRANCH  19  21
ATOM     21  O   UNL d   1     -45.050  13.455  22.395  0.00  0.00    -0.294 OA
ATOM     22  C   UNL d   1     -45.861  13.594  22.460  0.00  0.00     0.185 C 
ENDBRANCH  19  21
ENDBRANCH  16  19
ENDBRANCH  13  14
ENDBRANCH  12  13
ENDBRANCH   8  12
BRANCH   2  23
ATOM     23  C   UNL d   1     -39.405  15.232  17.926  0.00  0.00     0.083 C 
BRANCH  23  24
ATOM     24  C   UNL d   1     -39.086  14.617  17.479  0.00  0.00     0.018 A 
ATOM     25  C   UNL d   1     -39.418  14.429  16.749  0.00  0.00     0.002 A 
ATOM     26  C   UNL d   1     -39.099  13.813  16.302  0.00  0.00     0.000 A 
ATOM     27  C   UNL d   1     -38.450  13.390  16.586  0.00  0.00     0.000 A 
ATOM     28  C   UNL d   1     -38.123  13.583  17.314  0.00  0.00     0.000 A 
ATOM     29  C   UNL d   1     -38.442  14.198  17.762  0.00  0.00     0.002 A 
ENDBRANCH  23  24
ENDBRANCH   2  23
TORSDOF 7
ENDMDL
MODEL 4
REMARK VINA RESULT:      -3.8      2.323      3.931
REMARK  7 active torsions:
REMARK  status: ('A' for Active; 'I' for Inactive)
REMARK    1  A    between atoms: C_13  and  N_2 
REMARK    2  A    between atoms: C_7  and  C_4 
REMARK    3  A    between atoms: O_19  and  C_7 
REMARK    4  A    between atoms: C_9  and  C_18 
REMARK    5  A    between atoms: C_20  and  C_13 
REMARK    6  A    between atoms: O_16  and  C_15 
REMARK    7  A    between atoms: C_18  and  O_16 
ROOT
ATOM      1  C   UNL d   1     -45.237  12.086  22.851  0.00  0.00     0.265 A 
ATOM      2  N   UNL d   1     -45.671  12.734  22.583  0.00  0.00    -0.272 N 
ATOM      3  C   UNL d   1     -44.455  11.992  22.618  0.00  0.00     0.059 A 
ATOM      4  C   UNL d   1     -44.104  12.545  22.117  0.00  0.00     0.029 A 
ATOM      5  C   UNL d   1     -44.533  13.192  21.849  0.00  0.00     0.021 A 
ATOM      6  C   UNL d   1     -45.319  13.287  22.082  0.00  0.00     0.083 A 
ATOM      7  O   UNL d   1     -45.589  11.533  23.352  0.00  0.00    -0.267 OA
ATOM      8  C   UNL d   1     -43.317  12.449  21.883  0.00  0.00     0.100 A 
ATOM      9  C   UNL d   1     -44.021  11.343  22.885  0.00  0.00     0.005 A 
ATOM     10  C   UNL d   1     -43.236  11.247  22.652  0.00  0.00     0.002 A 
ATOM     11  C   UNL d   1     -42.884  11.800  22.151  0.00  0.00     0.025 A 
ENDROOT
BRANCH   8  12
ATOM     12  O   UNL d   1     -42.965  13.002  21.382  0.00  0.00    -0.303 OA
BRANCH  12  13
ATOM     13  C   UNL d   1     -42.191  13.250  21.522  0.00  0.00     0.147 C 
BRANCH  13  14
ATOM     14  C   UNL d   1     -41.787  13.682  20.947  0.00  0.00     0.125 A 
ATOM     15  O   UNL d   1     -41.593  13.509  20.157  0.00  0.00    -0.300 OA
ATOM     16  C   UNL d   1     -41.181  14.161  19.857  0.00  0.00     0.163 A 
ATOM     17  C   UNL d   1     -41.120  14.725  20.442  0.00  0.00     0.032 A 
ATOM     18  C   UNL d   1     -41.496  14.430  21.121  0.00  0.00     0.029 A 
BRANCH  16  19
ATOM     19  C   UNL d   1     -40.876  14.233  19.081  0.00  0.00     0.319 C 
ATOM     20  O   UNL d   1     -40.214  13.806  18.859  0.00  0.00    -0.257 OA
BRANCH  19  21
ATOM     21  O   UNL d   1     -41.250  14.742  18.530  0.00  0.00    -0.294 OA
ATOM     22  C   UNL d   1     -40.984  14.781  17.750  0.00  0.00     0.185 C 
ENDBRANCH  19  21
ENDBRANCH  16  19
ENDBRANCH  13  14
ENDBRANCH  12  13
ENDBRANCH   8  12
BRANCH   2  23
ATOM     23  C   UNL d   1     -46.465  12.828  22.822  0.00  0.00     0.083 C 
BRANCH  23  24
ATOM     24  C   UNL d   1     -46.883  13.509  22.619  0.00  0.00     0.018 A 
ATOM     25  C   UNL d   1     -47.429  13.486  22.004  0.00  0.00     0.002 A 
ATOM     26  C   UNL d   1     -47.847  14.167  21.802  0.00  0.00     0.000 A 
ATOM     27  C   UNL d   1     -47.718  14.870  22.216  0.00  0.00     0.000 A 
ATOM     28  C   UNL d   1     -47.172  14.887  22.830  0.00  0.00     0.000 A 
ATOM     29  C   UNL d   1     -46.753  14.205  23.032  0.00  0.00     0.002 A 
ENDBRANCH  23  24
ENDBRANCH   2  23
TORSDOF 7
ENDMDL
