MODEL 1
REMARK VINA RESULT:      -3.3      0.000      0.000
REMARK  6 active torsions:
REMARK  status: ('A' for Active; 'I' for Inactive)
REMARK       I    between atoms: N_2  and  C_1 
REMARK    1  A    between atoms: C_5  and  C_1 
REMARK    2  A    between atoms: C_4  and  N_2 
REMARK    3  A    between atoms: C_3  and  C_4 
REMARK    4  A    between atoms: N_7  and  C_4 
REMARK    5  A    between atoms: C_15  and  N_7 
REMARK    6  A    between atoms: C_14  and  C_15 
ROOT
ATOM      1  C   UNL d   1      59.028  -1.985  29.012  0.00  0.00     0.280 C 
ATOM      2  N   UNL d   1      59.217  -1.293  29.402  0.00  0.00    -0.189 NA
ATOM      3  O   UNL d   1      58.296  -2.073  28.661  0.00  0.00    -0.265 OA
ENDROOT
BRANCH   2   4
ATOM      4  C   UNL d   1      58.671  -0.668  29.448  0.00  0.00     0.185 C 
BRANCH   4   5
ATOM      5  C   UNL d   1      58.778   0.001  28.961  0.00  0.00     0.250 C 
ATOM      6 CL   UNL d   1      59.422   0.211  29.430  0.00  0.00    -0.075 Cl
ATOM      7 CL   UNL d   1      58.126  -0.246  28.516  0.00  0.00    -0.075 Cl
ATOM      8 CL   UNL d   1      58.881   0.681  28.459  0.00  0.00    -0.075 Cl
ENDBRANCH   4   5
BRANCH   4   9
ATOM      9  N   UNL d   1      58.049  -0.723  29.966  0.00  0.00    -0.226 NA
BRANCH   9  10
ATOM     10  C   UNL d   1      58.128  -0.478  30.761  0.00  0.00     0.102 C 
BRANCH  10  11
ATOM     11  C   UNL d   1      57.503  -0.462  31.268  0.00  0.00     0.038 A 
ATOM     12  C   UNL d   1      57.079  -1.166  31.421  0.00  0.00     0.101 A 
ATOM     13  N   UNL d   1      56.435  -1.146  31.944  0.00  0.00    -0.242 NA
ATOM     14  C   UNL d   1      56.217  -0.466  32.303  0.00  0.00     0.099 A 
ATOM     15  C   UNL d   1      56.646   0.228  32.143  0.00  0.00     0.021 A 
ATOM     16  C   UNL d   1      57.282   0.230  31.632  0.00  0.00     0.005 A 
ENDBRANCH  10  11
ENDBRANCH   9  10
ENDBRANCH   4   9
ENDBRANCH   2   4
BRANCH   1  17
ATOM     17  C   UNL d   1      59.552  -2.603  28.961  0.00  0.00     0.058 A 
ATOM     18  C   UNL d   1      59.309  -3.349  28.798  0.00  0.00     0.005 A 
ATOM     19  C   UNL d   1      59.835  -3.983  28.743  0.00  0.00     0.000 A 
ATOM     20  C   UNL d   1      58.499  -3.470  28.684  0.00  0.00     0.000 A 
ATOM     21  C   UNL d   1      59.552  -4.734  28.576  0.00  0.00     0.000 A 
ATOM     22  C   UNL d   1      60.629  -3.847  28.858  0.00  0.00     0.000 A 
ATOM     23  C   UNL d   1      58.743  -4.863  28.460  0.00  0.00     0.000 A 
ATOM     24  C   UNL d   1      58.198  -4.222  28.514  0.00  0.00     0.000 A 
ATOM     25  C   UNL d   1      60.898  -3.076  29.028  0.00  0.00     0.000 A 
ATOM     26  C   UNL d   1      60.356  -2.469  29.076  0.00  0.00     0.005 A 
ENDBRANCH   1  17
TORSDOF 6
ENDMDL
