MODEL 1
REMARK VINA RESULT:      38.0      0.000      0.000
REMARK  4 active torsions:
REMARK  status: ('A' for Active; 'I' for Inactive)
REMARK       I    between atoms: C_3  and  N_1 
REMARK    1  A    between atoms: C_9  and  C_3 
REMARK    2  A    between atoms: S_8  and  C_9 
REMARK    3  A    between atoms: C_12  and  S_8 
REMARK    4  A    between atoms: C_11  and  C_12 
ROOT
ATOM      1  N   UNL d   1      58.088  49.698  50.622  0.00  0.00    -0.274 N 
ATOM      2  C   UNL d   1      57.471  49.696  50.077  0.00  0.00     0.067 A 
ATOM      3  C   UNL d   1      58.903  49.704  50.444  0.00  0.00     0.259 C 
ATOM      4  C   UNL d   1      57.762  49.694  51.385  0.00  0.00     0.083 A 
ATOM      5  C   UNL d   1      56.761  49.690  50.493  0.00  0.00     0.018 A 
ATOM      6  O   UNL d   1      59.162  49.708  49.653  0.00  0.00    -0.267 OA
ATOM      7  C   UNL d   1      56.945  49.689  51.296  0.00  0.00     0.021 A 
ATOM      8  C   UNL d   1      57.463  49.698  49.254  0.00  0.00     0.018 A 
ATOM      9  C   UNL d   1      56.047  49.687  50.098  0.00  0.00     0.002 A 
ATOM     10  C   UNL d   1      56.757  49.695  48.848  0.00  0.00     0.002 A 
ATOM     11  C   UNL d   1      56.037  49.689  49.262  0.00  0.00     0.000 A 
ENDROOT
BRANCH   3  12
ATOM     12  C   UNL d   1      59.467  49.706  51.059  0.00  0.00     0.125 C 
BRANCH  12  13
ATOM     13  S   UNL d   1      60.240  49.471  50.909  0.00  0.00    -0.094 SA
BRANCH  13  14
ATOM     14  C   UNL d   1      60.584  48.872  51.369  0.00  0.00     0.035 C 
BRANCH  14  15
ATOM     15  C   UNL d   1      60.911  48.203  50.998  0.00  0.00     0.006 A 
ATOM     16  C   UNL d   1      61.409  48.301  50.348  0.00  0.00     0.001 A 
ATOM     17  C   UNL d   1      61.735  47.638  49.979  0.00  0.00     0.000 A 
ATOM     18  C   UNL d   1      61.554  46.883  50.270  0.00  0.00     0.000 A 
ATOM     19  C   UNL d   1      61.059  46.788  50.916  0.00  0.00     0.000 A 
ATOM     20  C   UNL d   1      60.736  47.445  51.282  0.00  0.00     0.001 A 
ENDBRANCH  14  15
ENDBRANCH  13  14
ENDBRANCH  12  13
ENDBRANCH   3  12
TORSDOF 4
ENDMDL
