MODEL 1
REMARK VINA RESULT:     -11.3      0.000      0.000
REMARK  4 active torsions:
REMARK  status: ('A' for Active; 'I' for Inactive)
REMARK    1  A    between atoms: S_6  and  C_1 
REMARK    2  A    between atoms: N_9  and  N_2 
REMARK    3  A    between atoms: C_12  and  S_6 
REMARK       I    between atoms: C_10  and  N_9 
REMARK    4  A    between atoms: C_11  and  C_10 
ROOT
ATOM      1  C   UNL d   1      52.715  33.177  53.142  0.00  0.00     0.146 A 
ATOM      2  N   UNL d   1      54.013  33.042  53.452  0.00  0.00    -0.188 N 
ATOM      3  C   UNL d   1      53.418  33.587  53.279  0.00  0.00     0.199 A 
ATOM      4  C   UNL d   1      53.679  32.284  53.423  0.00  0.00     0.184 A 
ATOM      5  C   UNL d   1      52.879  32.366  53.232  0.00  0.00     0.131 A 
ATOM      6  N   UNL d   1      53.994  31.533  53.545  0.00  0.00    -0.224 NA
ATOM      7  N   UNL d   1      52.402  31.702  53.164  0.00  0.00    -0.240 NA
ATOM      8  C   UNL d   1      53.514  30.866  53.476  0.00  0.00     0.101 A 
ATOM      9  C   UNL d   1      52.713  30.960  53.284  0.00  0.00     0.099 A 
ATOM     10  N   UNL d   1      53.513  34.404  53.249  0.00  0.00    -0.126 N 
ATOM     11  C   UNL d   1      53.829  30.115  53.597  0.00  0.00     0.021 A 
ATOM     12  C   UNL d   1      52.228  30.292  53.214  0.00  0.00     0.021 A 
ATOM     13  C   UNL d   1      52.547  29.541  53.336  0.00  0.00     0.002 A 
ATOM     14  C   UNL d   1      53.348  29.447  53.528  0.00  0.00     0.002 A 
ENDROOT
BRANCH   1  15
ATOM     15  S   UNL d   1      51.993  33.500  52.953  0.00  0.00     0.214 S 
ATOM     16  O   UNL d   1      51.575  33.528  53.670  0.00  0.00    -0.217 OA
ATOM     17  O   UNL d   1      52.404  33.474  52.242  0.00  0.00    -0.217 OA
BRANCH  15  18
ATOM     18  C   UNL d   1      51.262  33.829  52.750  0.00  0.00     0.088 A 
ATOM     19  C   UNL d   1      50.656  34.033  53.272  0.00  0.00     0.011 A 
ATOM     20  C   UNL d   1      49.957  34.357  52.984  0.00  0.00     0.001 A 
ATOM     21  C   UNL d   1      49.861  34.479  52.176  0.00  0.00     0.000 A 
ATOM     22  C   UNL d   1      50.464  34.277  51.655  0.00  0.00     0.001 A 
ATOM     23  C   UNL d   1      49.163  34.803  51.888  0.00  0.00     0.000 C 
ATOM     24  C   UNL d   1      51.174  33.948  51.941  0.00  0.00     0.011 A 
ENDBRANCH  15  18
ENDBRANCH   1  15
BRANCH   2  25
ATOM     25  N   UNL d   1      54.799  33.208  53.624  0.00  0.00    -0.120 NA
ATOM     26  C   UNL d   1      55.020  33.418  54.393  0.00  0.00     0.295 C 
ATOM     27  O   UNL d   1      55.805  33.582  54.559  0.00  0.00    -0.264 OA
BRANCH  26  28
ATOM     28  C   UNL d   1      54.452  33.460  54.990  0.00  0.00     0.059 A 
ATOM     29  C   UNL d   1      54.051  33.108  55.623  0.00  0.00     0.005 A 
ATOM     30  C   UNL d   1      53.869  33.879  55.395  0.00  0.00     0.005 A 
ENDBRANCH  26  28
ENDBRANCH   2  25
TORSDOF 4
ENDMDL
