MODEL 1
REMARK VINA RESULT:      -4.0      0.000      0.000
REMARK  5 active torsions:
REMARK  status: ('A' for Active; 'I' for Inactive)
REMARK    1  A    between atoms: O_8  and  S_1 
REMARK    2  A    between atoms: C_9  and  S_1 
REMARK    3  A    between atoms: C_7  and  C_2 
REMARK    4  A    between atoms: C_20  and  C_7 
REMARK    5  A    between atoms: C_14  and  O_8 
ROOT
ATOM      1  C   UNL d   1      33.237  21.154 -21.552  0.00  0.00     0.139 A 
ATOM      2  C   UNL d   1      33.239  19.856 -21.841  0.00  0.00     0.064 A 
ATOM      3  C   UNL d   1      33.239  20.398 -21.222  0.00  0.00     0.220 A 
ATOM      4  C   UNL d   1      33.237  20.272 -22.554  0.00  0.00     0.105 A 
ATOM      5  O   UNL d   1      33.236  21.077 -22.373  0.00  0.00    -0.304 OA
ATOM      6  C   UNL d   1      33.236  19.863 -23.259  0.00  0.00     0.050 A 
ATOM      7  C   UNL d   1      33.240  19.033 -21.844  0.00  0.00     0.007 A 
ATOM      8  C   UNL d   1      33.237  19.040 -23.262  0.00  0.00     0.116 A 
ATOM      9  O   UNL d   1      33.241  20.226 -20.416  0.00  0.00    -0.284 OA
ATOM     10  C   UNL d   1      33.239  18.629 -22.556  0.00  0.00     0.026 A 
ENDROOT
BRANCH   8  11
ATOM     11  O   UNL d   1      33.237  18.632 -23.976  0.00  0.00    -0.227 OA
BRANCH  11  12
ATOM     12  S   UNL d   1      32.608  18.133 -24.167  0.00  0.00     0.304 S 
ATOM     13  O   UNL d   1      33.004  17.506 -23.833  0.00  0.00    -0.193 OA
ATOM     14  O   UNL d   1      32.198  18.758 -24.507  0.00  0.00    -0.193 OA
BRANCH  12  15
ATOM     15  C   UNL d   1      31.975  17.625 -24.357  0.00  0.00     0.111 A 
ATOM     16  C   UNL d   1      32.075  16.806 -24.292  0.00  0.00     0.016 A 
ATOM     17  C   UNL d   1      31.449  16.303 -24.480  0.00  0.00     0.030 A 
ATOM     18  C   UNL d   1      30.723  16.618 -24.733  0.00  0.00     0.140 A 
ATOM     19  C   UNL d   1      30.635  17.440 -24.794  0.00  0.00     0.030 A 
ATOM     20  F   UNL d   1      30.107  16.122 -24.919  0.00  0.00    -0.204 F 
ATOM     21  C   UNL d   1      31.264  17.940 -24.605  0.00  0.00     0.016 A 
ENDBRANCH  12  15
ENDBRANCH  11  12
ENDBRANCH   8  11
BRANCH   1  22
ATOM     22  C   UNL d   1      33.237  21.867 -21.137  0.00  0.00     0.029 C 
BRANCH  22  23
ATOM     23  C   UNL d   1      32.724  22.480 -21.352  0.00  0.00     0.021 A 
ATOM     24  C   UNL d   1      32.068  22.636 -20.885  0.00  0.00     0.099 A 
ATOM     25  N   UNL d   1      31.552  23.239 -21.087  0.00  0.00    -0.242 NA
ATOM     26  C   UNL d   1      31.695  23.696 -21.770  0.00  0.00     0.099 A 
ATOM     27  C   UNL d   1      32.357  23.535 -22.239  0.00  0.00     0.021 A 
ATOM     28  C   UNL d   1      32.870  22.922 -22.023  0.00  0.00     0.003 A 
ENDBRANCH  22  23
ENDBRANCH   1  22
TORSDOF 5
ENDMDL
MODEL 2
REMARK VINA RESULT:      -1.7      0.992      1.738
REMARK  5 active torsions:
REMARK  status: ('A' for Active; 'I' for Inactive)
REMARK    1  A    between atoms: O_8  and  S_1 
REMARK    2  A    between atoms: C_9  and  S_1 
REMARK    3  A    between atoms: C_7  and  C_2 
REMARK    4  A    between atoms: C_20  and  C_7 
REMARK    5  A    between atoms: C_14  and  O_8 
ROOT
ATOM      1  C   UNL d   1      32.996  22.348 -22.606  0.00  0.00     0.139 A 
ATOM      2  C   UNL d   1      33.088  21.468 -23.599  0.00  0.00     0.064 A 
ATOM      3  C   UNL d   1      33.032  22.270 -23.427  0.00  0.00     0.220 A 
ATOM      4  C   UNL d   1      33.087  21.047 -22.889  0.00  0.00     0.105 A 
ATOM      5  O   UNL d   1      33.030  21.594 -22.274  0.00  0.00    -0.304 OA
ATOM      6  C   UNL d   1      33.138  20.233 -22.902  0.00  0.00     0.050 A 
ATOM      7  C   UNL d   1      33.140  21.067 -24.316  0.00  0.00     0.007 A 
ATOM      8  C   UNL d   1      33.190  19.832 -23.620  0.00  0.00     0.116 A 
ATOM      9  O   UNL d   1      33.014  22.891 -23.969  0.00  0.00    -0.284 OA
ATOM     10  C   UNL d   1      33.190  20.249 -24.322  0.00  0.00     0.026 A 
ENDROOT
BRANCH   8  11
ATOM     11  O   UNL d   1      33.241  19.011 -23.628  0.00  0.00    -0.227 OA
BRANCH  11  12
ATOM     12  S   UNL d   1      32.581  18.558 -23.830  0.00  0.00     0.304 S 
ATOM     13  O   UNL d   1      32.887  18.446 -24.575  0.00  0.00    -0.193 OA
ATOM     14  O   UNL d   1      32.262  18.665 -23.081  0.00  0.00    -0.193 OA
BRANCH  12  15
ATOM     15  C   UNL d   1      31.917  18.100 -24.039  0.00  0.00     0.111 A 
ATOM     16  C   UNL d   1      31.273  18.461 -24.411  0.00  0.00     0.016 A 
ATOM     17  C   UNL d   1      30.615  18.008 -24.618  0.00  0.00     0.030 A 
ATOM     18  C   UNL d   1      30.601  17.194 -24.453  0.00  0.00     0.140 A 
ATOM     19  C   UNL d   1      31.254  16.844 -24.080  0.00  0.00     0.030 A 
ATOM     20  F   UNL d   1      29.954  16.748 -24.657  0.00  0.00    -0.204 F 
ATOM     21  C   UNL d   1      31.910  17.300 -23.874  0.00  0.00     0.016 A 
ENDBRANCH  12  15
ENDBRANCH  11  12
ENDBRANCH   8  11
BRANCH   1  22
ATOM     22  C   UNL d   1      32.937  23.056 -22.186  0.00  0.00     0.029 C 
BRANCH  22  23
ATOM     23  C   UNL d   1      32.673  23.059 -21.401  0.00  0.00     0.021 A 
ATOM     24  C   UNL d   1      31.887  22.891 -21.243  0.00  0.00     0.099 A 
ATOM     25  N   UNL d   1      31.612  22.890 -20.471  0.00  0.00    -0.242 NA
ATOM     26  C   UNL d   1      32.136  23.061 -19.845  0.00  0.00     0.099 A 
ATOM     27  C   UNL d   1      32.928  23.230 -20.010  0.00  0.00     0.021 A 
ATOM     28  C   UNL d   1      33.191  23.227 -20.794  0.00  0.00     0.003 A 
ENDBRANCH  22  23
ENDBRANCH   1  22
TORSDOF 5
ENDMDL
MODEL 3
REMARK VINA RESULT:      -1.6      2.460      5.302
REMARK  5 active torsions:
REMARK  status: ('A' for Active; 'I' for Inactive)
REMARK    1  A    between atoms: O_8  and  S_1 
REMARK    2  A    between atoms: C_9  and  S_1 
REMARK    3  A    between atoms: C_7  and  C_2 
REMARK    4  A    between atoms: C_20  and  C_7 
REMARK    5  A    between atoms: C_14  and  O_8 
ROOT
ATOM      1  C   UNL d   1      30.358  16.621 -24.320  0.00  0.00     0.139 A 
ATOM      2  C   UNL d   1      31.684  16.635 -24.219  0.00  0.00     0.064 A 
ATOM      3  C   UNL d   1      31.051  16.251 -24.576  0.00  0.00     0.220 A 
ATOM      4  C   UNL d   1      31.390  17.240 -23.742  0.00  0.00     0.105 A 
ATOM      5  O   UNL d   1      30.566  17.231 -23.806  0.00  0.00    -0.304 OA
ATOM      6  C   UNL d   1      31.906  17.711 -23.321  0.00  0.00     0.050 A 
ATOM      7  C   UNL d   1      32.496  16.507 -24.268  0.00  0.00     0.007 A 
ATOM      8  C   UNL d   1      32.718  17.583 -23.371  0.00  0.00     0.116 A 
ATOM      9  O   UNL d   1      31.090  15.613 -25.097  0.00  0.00    -0.284 OA
ATOM     10  C   UNL d   1      33.009  16.983 -23.843  0.00  0.00     0.026 A 
ENDROOT
BRANCH   8  11
ATOM     11  O   UNL d   1      33.235  18.060 -22.944  0.00  0.00    -0.227 OA
BRANCH  11  12
ATOM     12  S   UNL d   1      33.235  18.877 -23.061  0.00  0.00     0.304 S 
ATOM     13  O   UNL d   1      33.241  18.761 -23.866  0.00  0.00    -0.193 OA
ATOM     14  O   UNL d   1      33.230  19.006 -22.251  0.00  0.00    -0.193 OA
BRANCH  12  15
ATOM     15  C   UNL d   1      33.236  19.702 -23.185  0.00  0.00     0.111 A 
ATOM     16  C   UNL d   1      33.238  19.998 -23.957  0.00  0.00     0.016 A 
ATOM     17  C   UNL d   1      33.239  20.814 -24.080  0.00  0.00     0.030 A 
ATOM     18  C   UNL d   1      33.237  21.333 -23.431  0.00  0.00     0.140 A 
ATOM     19  C   UNL d   1      33.235  21.023 -22.662  0.00  0.00     0.030 A 
ATOM     20  F   UNL d   1      33.238  22.136 -23.552  0.00  0.00    -0.204 F 
ATOM     21  C   UNL d   1      33.235  20.206 -22.543  0.00  0.00     0.016 A 
ENDBRANCH  12  15
ENDBRANCH  11  12
ENDBRANCH   8  11
BRANCH   1  22
ATOM     22  C   UNL d   1      29.589  16.418 -24.539  0.00  0.00     0.029 C 
BRANCH  22  23
ATOM     23  C   UNL d   1      28.951  16.585 -24.037  0.00  0.00     0.021 A 
ATOM     24  C   UNL d   1      28.563  17.303 -24.109  0.00  0.00     0.099 A 
ATOM     25  N   UNL d   1      27.931  17.481 -23.619  0.00  0.00    -0.242 NA
ATOM     26  C   UNL d   1      27.682  16.928 -23.046  0.00  0.00     0.099 A 
ATOM     27  C   UNL d   1      28.077  16.205 -22.978  0.00  0.00     0.021 A 
ATOM     28  C   UNL d   1      28.714  16.039 -23.479  0.00  0.00     0.003 A 
ENDBRANCH  22  23
ENDBRANCH   1  22
TORSDOF 5
ENDMDL
