MODEL 1
REMARK VINA RESULT:      -9.1      0.000      0.000
REMARK  1 active torsions:
REMARK  status: ('A' for Active; 'I' for Inactive)
REMARK    1  A    between atoms: C_10  and  N_3 
ROOT
ATOM      1  C   UNL d   1     -48.714  13.663  22.951  0.00  0.00     0.166 A 
ATOM      2  C   UNL d   1     -48.685  12.880  23.194  0.00  0.00     0.117 A 
ATOM      3  N   UNL d   1     -49.516  13.875  22.944  0.00  0.00    -0.289 N 
ATOM      4  N   UNL d   1     -48.023  14.087  22.767  0.00  0.00    -0.225 NA
ATOM      5  N   UNL d   1     -47.938  12.528  23.250  0.00  0.00    -0.241 NA
ATOM      6  C   UNL d   1     -49.437  12.614  23.333  0.00  0.00     0.037 A 
ATOM      7  C   UNL d   1     -49.955  13.234  23.177  0.00  0.00     0.067 A 
ATOM      8  C   UNL d   1     -47.302  13.727  22.826  0.00  0.00     0.101 A 
ATOM      9  C   UNL d   1     -47.267  12.936  23.072  0.00  0.00     0.099 A 
ATOM     10  C   UNL d   1     -49.734  11.887  23.584  0.00  0.00     0.003 A 
ATOM     11  C   UNL d   1     -50.769  13.127  23.271  0.00  0.00     0.018 A 
ATOM     12  C   UNL d   1     -46.542  12.567  23.134  0.00  0.00     0.021 A 
ATOM     13  C   UNL d   1     -46.629  14.127  22.651  0.00  0.00     0.021 A 
ATOM     14  C   UNL d   1     -50.546  11.775  23.679  0.00  0.00     0.000 A 
ATOM     15  C   UNL d   1     -51.064  12.395  23.522  0.00  0.00     0.002 A 
ATOM     16  C   UNL d   1     -45.832  12.968  22.956  0.00  0.00     0.002 A 
ATOM     17  C   UNL d   1     -45.885  13.739  22.718  0.00  0.00     0.002 A 
ENDROOT
BRANCH   3  18
ATOM     18  C   UNL d   1     -49.807  14.599  22.738  0.00  0.00     0.082 C 
ATOM     19  C   UNL d   1     -49.921  15.174  23.345  0.00  0.00     0.021 C 
ENDBRANCH   3  18
TORSDOF 1
ENDMDL
MODEL 2
REMARK VINA RESULT:      -9.0      0.952      3.608
REMARK  1 active torsions:
REMARK  status: ('A' for Active; 'I' for Inactive)
REMARK    1  A    between atoms: C_10  and  N_3 
ROOT
ATOM      1  C   UNL d   1     -48.496  13.315  23.006  0.00  0.00     0.166 A 
ATOM      2  C   UNL d   1     -48.055  14.005  22.953  0.00  0.00     0.117 A 
ATOM      3  N   UNL d   1     -47.956  12.689  22.936  0.00  0.00    -0.289 N 
ATOM      4  N   UNL d   1     -49.320  13.332  23.110  0.00  0.00    -0.225 NA
ATOM      5  N   UNL d   1     -48.467  14.722  23.007  0.00  0.00    -0.241 NA
ATOM      6  C   UNL d   1     -47.274  13.819  22.854  0.00  0.00     0.037 A 
ATOM      7  C   UNL d   1     -47.212  12.999  22.843  0.00  0.00     0.067 A 
ATOM      8  C   UNL d   1     -49.705  14.040  23.161  0.00  0.00     0.101 A 
ATOM      9  C   UNL d   1     -49.265  14.741  23.108  0.00  0.00     0.099 A 
ATOM     10  C   UNL d   1     -46.596  14.281  22.771  0.00  0.00     0.003 A 
ATOM     11  C   UNL d   1     -46.472  12.641  22.749  0.00  0.00     0.018 A 
ATOM     12  C   UNL d   1     -49.648  15.460  23.159  0.00  0.00     0.021 A 
ATOM     13  C   UNL d   1     -50.501  14.068  23.261  0.00  0.00     0.021 A 
ATOM     14  C   UNL d   1     -45.856  13.929  22.676  0.00  0.00     0.000 A 
ATOM     15  C   UNL d   1     -45.794  13.108  22.666  0.00  0.00     0.002 A 
ATOM     16  C   UNL d   1     -50.475  15.507  23.263  0.00  0.00     0.002 A 
ATOM     17  C   UNL d   1     -50.888  14.813  23.312  0.00  0.00     0.002 A 
ENDROOT
BRANCH   3  18
ATOM     18  C   UNL d   1     -48.144  11.905  22.957  0.00  0.00     0.082 C 
ATOM     19  C   UNL d   1     -48.107  11.502  23.697  0.00  0.00     0.021 C 
ENDBRANCH   3  18
TORSDOF 1
ENDMDL
MODEL 3
REMARK VINA RESULT:      -9.0      0.633      1.954
REMARK  1 active torsions:
REMARK  status: ('A' for Active; 'I' for Inactive)
REMARK    1  A    between atoms: C_10  and  N_3 
ROOT
ATOM      1  C   UNL d   1     -48.844  13.476  23.195  0.00  0.00     0.166 A 
ATOM      2  C   UNL d   1     -48.717  14.282  23.103  0.00  0.00     0.117 A 
ATOM      3  N   UNL d   1     -49.653  13.385  23.351  0.00  0.00    -0.289 N 
ATOM      4  N   UNL d   1     -48.222  12.929  23.128  0.00  0.00    -0.225 NA
ATOM      5  N   UNL d   1     -47.943  14.527  22.941  0.00  0.00    -0.241 NA
ATOM      6  C   UNL d   1     -49.417  14.677  23.198  0.00  0.00     0.037 A 
ATOM      7  C   UNL d   1     -50.001  14.117  23.352  0.00  0.00     0.067 A 
ATOM      8  C   UNL d   1     -47.473  13.186  22.969  0.00  0.00     0.101 A 
ATOM      9  C   UNL d   1     -47.339  13.999  22.876  0.00  0.00     0.099 A 
ATOM     10  C   UNL d   1     -49.616  15.476  23.166  0.00  0.00     0.003 A 
ATOM     11  C   UNL d   1     -50.782  14.358  23.475  0.00  0.00     0.018 A 
ATOM     12  C   UNL d   1     -46.585  14.265  22.715  0.00  0.00     0.021 A 
ATOM     13  C   UNL d   1     -46.866  12.665  22.903  0.00  0.00     0.021 A 
ATOM     14  C   UNL d   1     -50.394  15.721  23.288  0.00  0.00     0.000 A 
ATOM     15  C   UNL d   1     -50.978  15.162  23.442  0.00  0.00     0.002 A 
ATOM     16  C   UNL d   1     -45.943  13.738  22.642  0.00  0.00     0.002 A 
ATOM     17  C   UNL d   1     -46.092  12.948  22.737  0.00  0.00     0.002 A 
ENDROOT
BRANCH   3  18
ATOM     18  C   UNL d   1     -50.028  12.681  23.480  0.00  0.00     0.082 C 
ATOM     19  C   UNL d   1     -50.371  12.283  22.820  0.00  0.00     0.021 C 
ENDBRANCH   3  18
TORSDOF 1
ENDMDL
MODEL 4
REMARK VINA RESULT:      -8.9      0.623      3.258
REMARK  1 active torsions:
REMARK  status: ('A' for Active; 'I' for Inactive)
REMARK    1  A    between atoms: C_10  and  N_3 
ROOT
ATOM      1  C   UNL d   1     -48.642  13.621  23.129  0.00  0.00     0.166 A 
ATOM      2  C   UNL d   1     -48.218  12.920  23.162  0.00  0.00     0.117 A 
ATOM      3  N   UNL d   1     -48.090  14.219  22.971  0.00  0.00    -0.289 N 
ATOM      4  N   UNL d   1     -49.465  13.637  23.245  0.00  0.00    -0.225 NA
ATOM      5  N   UNL d   1     -48.643  12.226  23.315  0.00  0.00    -0.241 NA
ATOM      6  C   UNL d   1     -47.434  13.073  23.029  0.00  0.00     0.037 A 
ATOM      7  C   UNL d   1     -47.355  13.884  22.910  0.00  0.00     0.067 A 
ATOM      8  C   UNL d   1     -49.864  12.950  23.393  0.00  0.00     0.101 A 
ATOM      9  C   UNL d   1     -49.440  12.238  23.427  0.00  0.00     0.099 A 
ATOM     10  C   UNL d   1     -46.768  12.589  22.998  0.00  0.00     0.003 A 
ATOM     11  C   UNL d   1     -46.609  14.209  22.760  0.00  0.00     0.018 A 
ATOM     12  C   UNL d   1     -49.837  11.542  23.577  0.00  0.00     0.021 A 
ATOM     13  C   UNL d   1     -50.659  12.954  23.506  0.00  0.00     0.021 A 
ATOM     14  C   UNL d   1     -46.022  12.909  22.849  0.00  0.00     0.000 A 
ATOM     15  C   UNL d   1     -45.943  13.719  22.730  0.00  0.00     0.002 A 
ATOM     16  C   UNL d   1     -50.663  11.527  23.697  0.00  0.00     0.002 A 
ATOM     17  C   UNL d   1     -51.061  12.231  23.660  0.00  0.00     0.002 A 
ENDROOT
BRANCH   3  18
ATOM     18  C   UNL d   1     -48.262  15.004  22.891  0.00  0.00     0.082 C 
ATOM     19  C   UNL d   1     -48.506  15.287  22.134  0.00  0.00     0.021 C 
ENDBRANCH   3  18
TORSDOF 1
ENDMDL
MODEL 5
REMARK VINA RESULT:      -8.4      1.114      1.464
REMARK  1 active torsions:
REMARK  status: ('A' for Active; 'I' for Inactive)
REMARK    1  A    between atoms: C_10  and  N_3 
ROOT
ATOM      1  C   UNL d   1     -48.545  13.577  22.641  0.00  0.00     0.166 A 
ATOM      2  C   UNL d   1     -48.997  12.897  22.555  0.00  0.00     0.117 A 
ATOM      3  N   UNL d   1     -49.016  14.204  22.371  0.00  0.00    -0.289 N 
ATOM      4  N   UNL d   1     -47.774  13.550  22.950  0.00  0.00    -0.225 NA
ATOM      5  N   UNL d   1     -48.652  12.181  22.788  0.00  0.00    -0.241 NA
ATOM      6  C   UNL d   1     -49.718  13.091  22.244  0.00  0.00     0.037 A 
ATOM      7  C   UNL d   1     -49.730  13.906  22.129  0.00  0.00     0.067 A 
ATOM      8  C   UNL d   1     -47.454  12.842  23.172  0.00  0.00     0.101 A 
ATOM      9  C   UNL d   1     -47.905  12.152  23.087  0.00  0.00     0.099 A 
ATOM     10  C   UNL d   1     -50.379  12.641  22.044  0.00  0.00     0.003 A 
ATOM     11  C   UNL d   1     -50.403  14.270  21.814  0.00  0.00     0.018 A 
ATOM     12  C   UNL d   1     -47.587  11.435  23.310  0.00  0.00     0.021 A 
ATOM     13  C   UNL d   1     -46.709  12.805  23.471  0.00  0.00     0.021 A 
ATOM     14  C   UNL d   1     -51.053  13.000  21.730  0.00  0.00     0.000 A 
ATOM     15  C   UNL d   1     -51.064  13.814  21.615  0.00  0.00     0.002 A 
ATOM     16  C   UNL d   1     -46.816  11.378  23.622  0.00  0.00     0.002 A 
ATOM     17  C   UNL d   1     -46.389  12.061  23.698  0.00  0.00     0.002 A 
ENDROOT
BRANCH   3  18
ATOM     18  C   UNL d   1     -48.795  14.980  22.353  0.00  0.00     0.082 C 
ATOM     19  C   UNL d   1     -49.181  15.520  22.874  0.00  0.00     0.021 C 
ENDBRANCH   3  18
TORSDOF 1
ENDMDL
MODEL 6
REMARK VINA RESULT:      -8.2      0.858      2.146
REMARK  1 active torsions:
REMARK  status: ('A' for Active; 'I' for Inactive)
REMARK    1  A    between atoms: C_10  and  N_3 
ROOT
ATOM      1  C   UNL d   1     -48.857  12.948  23.341  0.00  0.00     0.166 A 
ATOM      2  C   UNL d   1     -48.368  13.563  23.105  0.00  0.00     0.117 A 
ATOM      3  N   UNL d   1     -49.630  13.245  23.323  0.00  0.00    -0.289 N 
ATOM      4  N   UNL d   1     -48.550  12.202  23.542  0.00  0.00    -0.225 NA
ATOM      5  N   UNL d   1     -47.555  13.411  23.075  0.00  0.00    -0.241 NA
ATOM      6  C   UNL d   1     -48.817  14.218  22.946  0.00  0.00     0.037 A 
ATOM      7  C   UNL d   1     -49.604  14.019  23.082  0.00  0.00     0.067 A 
ATOM      8  C   UNL d   1     -47.753  12.071  23.506  0.00  0.00     0.101 A 
ATOM      9  C   UNL d   1     -47.255  12.689  23.269  0.00  0.00     0.099 A 
ATOM     10  C   UNL d   1     -48.626  14.978  22.694  0.00  0.00     0.003 A 
ATOM     11  C   UNL d   1     -50.199  14.582  22.965  0.00  0.00     0.018 A 
ATOM     12  C   UNL d   1     -46.450  12.564  23.231  0.00  0.00     0.021 A 
ATOM     13  C   UNL d   1     -47.447  11.354  23.698  0.00  0.00     0.021 A 
ATOM     14  C   UNL d   1     -49.215  15.543  22.576  0.00  0.00     0.000 A 
ATOM     15  C   UNL d   1     -50.002  15.345  22.712  0.00  0.00     0.002 A 
ATOM     16  C   UNL d   1     -46.114  11.825  23.427  0.00  0.00     0.002 A 
ATOM     17  C   UNL d   1     -46.615  11.233  23.657  0.00  0.00     0.002 A 
ENDROOT
BRANCH   3  18
ATOM     18  C   UNL d   1     -50.296  12.830  23.514  0.00  0.00     0.082 C 
ATOM     19  C   UNL d   1     -50.705  12.423  22.898  0.00  0.00     0.021 C 
ENDBRANCH   3  18
TORSDOF 1
ENDMDL
MODEL 7
REMARK VINA RESULT:      -8.0      0.954      3.162
REMARK  1 active torsions:
REMARK  status: ('A' for Active; 'I' for Inactive)
REMARK    1  A    between atoms: C_10  and  N_3 
ROOT
ATOM      1  C   UNL d   1     -48.843  12.917  22.919  0.00  0.00     0.166 A 
ATOM      2  C   UNL d   1     -48.135  13.327  22.998  0.00  0.00     0.117 A 
ATOM      3  N   UNL d   1     -48.660  12.116  23.024  0.00  0.00    -0.289 N 
ATOM      4  N   UNL d   1     -49.558  13.312  22.766  0.00  0.00    -0.225 NA
ATOM      5  N   UNL d   1     -48.164  14.150  22.917  0.00  0.00    -0.241 NA
ATOM      6  C   UNL d   1     -47.537  12.803  23.145  0.00  0.00     0.037 A 
ATOM      7  C   UNL d   1     -47.863  12.047  23.161  0.00  0.00     0.067 A 
ATOM      8  C   UNL d   1     -49.566  14.116  22.690  0.00  0.00     0.101 A 
ATOM      9  C   UNL d   1     -48.855  14.535  22.768  0.00  0.00     0.099 A 
ATOM     10  C   UNL d   1     -46.728  12.900  23.269  0.00  0.00     0.003 A 
ATOM     11  C   UNL d   1     -47.381  11.390  23.301  0.00  0.00     0.018 A 
ATOM     12  C   UNL d   1     -48.857  15.347  22.693  0.00  0.00     0.021 A 
ATOM     13  C   UNL d   1     -50.252  14.507  22.541  0.00  0.00     0.021 A 
ATOM     14  C   UNL d   1     -46.242  12.248  23.409  0.00  0.00     0.000 A 
ATOM     15  C   UNL d   1     -46.569  11.493  23.425  0.00  0.00     0.002 A 
ATOM     16  C   UNL d   1     -49.560  15.769  22.538  0.00  0.00     0.002 A 
ATOM     17  C   UNL d   1     -50.245  15.344  22.465  0.00  0.00     0.002 A 
ENDROOT
BRANCH   3  18
ATOM     18  C   UNL d   1     -49.190  11.507  22.993  0.00  0.00     0.082 C 
ATOM     19  C   UNL d   1     -49.667  11.356  23.672  0.00  0.00     0.021 C 
ENDBRANCH   3  18
TORSDOF 1
ENDMDL
MODEL 8
REMARK VINA RESULT:      -7.7      0.770      1.897
REMARK  1 active torsions:
REMARK  status: ('A' for Active; 'I' for Inactive)
REMARK    1  A    between atoms: C_10  and  N_3 
ROOT
ATOM      1  C   UNL d   1     -48.347  12.736  23.275  0.00  0.00     0.166 A 
ATOM      2  C   UNL d   1     -48.878  13.333  23.089  0.00  0.00     0.117 A 
ATOM      3  N   UNL d   1     -48.803  12.074  23.476  0.00  0.00    -0.289 N 
ATOM      4  N   UNL d   1     -47.526  12.859  23.240  0.00  0.00    -0.225 NA
ATOM      5  N   UNL d   1     -48.562  14.065  22.866  0.00  0.00    -0.241 NA
ATOM      6  C   UNL d   1     -49.634  13.056  23.171  0.00  0.00     0.037 A 
ATOM      7  C   UNL d   1     -49.587  12.270  23.412  0.00  0.00     0.067 A 
ATOM      8  C   UNL d   1     -47.235  13.580  23.020  0.00  0.00     0.101 A 
ATOM      9  C   UNL d   1     -47.767  14.187  22.832  0.00  0.00     0.099 A 
ATOM     10  C   UNL d   1     -50.372  13.405  23.061  0.00  0.00     0.003 A 
ATOM     11  C   UNL d   1     -50.278  11.835  23.543  0.00  0.00     0.018 A 
ATOM     12  C   UNL d   1     -47.480  14.918  22.609  0.00  0.00     0.021 A 
ATOM     13  C   UNL d   1     -46.443  13.710  22.984  0.00  0.00     0.021 A 
ATOM     14  C   UNL d   1     -51.064  12.976  23.190  0.00  0.00     0.000 A 
ATOM     15  C   UNL d   1     -51.018  12.190  23.431  0.00  0.00     0.002 A 
ATOM     16  C   UNL d   1     -46.661  15.070  22.566  0.00  0.00     0.002 A 
ATOM     17  C   UNL d   1     -46.156  14.466  22.753  0.00  0.00     0.002 A 
ENDROOT
BRANCH   3  18
ATOM     18  C   UNL d   1     -48.510  11.355  23.698  0.00  0.00     0.082 C 
ATOM     19  C   UNL d   1     -48.362  10.779  23.099  0.00  0.00     0.021 C 
ENDBRANCH   3  18
TORSDOF 1
ENDMDL
MODEL 9
REMARK VINA RESULT:      -6.6      1.466      3.308
REMARK  1 active torsions:
REMARK  status: ('A' for Active; 'I' for Inactive)
REMARK    1  A    between atoms: C_10  and  N_3 
ROOT
ATOM      1  C   UNL d   1     -47.474  12.486  23.268  0.00  0.00     0.166 A 
ATOM      2  C   UNL d   1     -46.680  12.646  23.132  0.00  0.00     0.117 A 
ATOM      3  N   UNL d   1     -47.513  11.692  23.505  0.00  0.00    -0.289 N 
ATOM      4  N   UNL d   1     -48.058  13.067  23.163  0.00  0.00    -0.225 NA
ATOM      5  N   UNL d   1     -46.485  13.412  22.885  0.00  0.00    -0.241 NA
ATOM      6  C   UNL d   1     -46.243  11.980  23.277  0.00  0.00     0.037 A 
ATOM      7  C   UNL d   1     -46.763  11.386  23.510  0.00  0.00     0.067 A 
ATOM      8  C   UNL d   1     -47.849  13.810  22.922  0.00  0.00     0.101 A 
ATOM      9  C   UNL d   1     -47.050  13.977  22.783  0.00  0.00     0.099 A 
ATOM     10  C   UNL d   1     -45.436  11.822  23.233  0.00  0.00     0.003 A 
ATOM     11  C   UNL d   1     -46.474  10.634  23.698  0.00  0.00     0.018 A 
ATOM     12  C   UNL d   1     -46.832  14.724  22.540  0.00  0.00     0.021 A 
ATOM     13  C   UNL d   1     -48.406  14.379  22.818  0.00  0.00     0.021 A 
ATOM     14  C   UNL d   1     -45.142  11.074  23.419  0.00  0.00     0.000 A 
ATOM     15  C   UNL d   1     -45.662  10.479  23.652  0.00  0.00     0.002 A 
ATOM     16  C   UNL d   1     -47.397  15.328  22.427  0.00  0.00     0.002 A 
ATOM     17  C   UNL d   1     -48.174  15.147  22.567  0.00  0.00     0.002 A 
ENDROOT
BRANCH   3  18
ATOM     18  C   UNL d   1     -48.189  11.295  23.697  0.00  0.00     0.082 C 
ATOM     19  C   UNL d   1     -48.774  11.184  23.099  0.00  0.00     0.021 C 
ENDBRANCH   3  18
TORSDOF 1
ENDMDL
