MODEL 1
REMARK VINA RESULT:      -4.9      0.000      0.000
REMARK  4 active torsions:
REMARK  status: ('A' for Active; 'I' for Inactive)
REMARK    1  A    between atoms: C_2  and  N_1 
REMARK    2  A    between atoms: C_4  and  C_2 
REMARK    3  A    between atoms: C_10  and  C_4 
REMARK    4  A    between atoms: N_7  and  C_6 
ROOT
ATOM      1  C   UNL d   1     -41.248-122.881 -51.874  0.00  0.00     0.064 A 
ATOM      2  C   UNL d   1     -41.439-122.117 -52.121  0.00  0.00     0.018 A 
ATOM      3  C   UNL d   1     -41.127-123.480 -52.429  0.00  0.00     0.018 A 
ATOM      4  C   UNL d   1     -41.386-122.558 -53.482  0.00  0.00     0.002 A 
ATOM      5  C   UNL d   1     -41.196-123.320 -53.232  0.00  0.00     0.002 A 
ATOM      6  C   UNL d   1     -41.508-121.956 -52.927  0.00  0.00     0.002 A 
ENDROOT
BRANCH   4   7
ATOM      7  C   UNL d   1     -41.455-122.396 -54.290  0.00  0.00     0.025 C 
BRANCH   7   8
ATOM      8  C   UNL d   1     -42.145-122.063 -54.581  0.00  0.00     0.148 C 
BRANCH   8   9
ATOM      9  N   UNL d   1     -42.199-121.877 -55.383  0.00  0.00    -0.112 N 
ATOM     10  O   UNL d   1     -41.571-121.511 -55.751  0.00  0.00    -0.532 OA
ATOM     11  O   UNL d   1     -42.883-122.068 -55.785  0.00  0.00    -0.532 OA
ENDBRANCH   8   9
ENDBRANCH   7   8
ENDBRANCH   4   7
BRANCH   1  12
ATOM     12  N   UNL d   1     -41.181-123.035 -51.060  0.00  0.00    -0.301 N 
ATOM     13  C   UNL d   1     -41.123-123.817 -50.793  0.00  0.00     0.100 C 
ATOM     14  C   UNL d   1     -41.171-122.414 -50.512  0.00  0.00     0.100 C 
ENDBRANCH   1  12
TORSDOF 4
ENDMDL
MODEL 2
REMARK VINA RESULT:      -4.5      0.880      1.438
REMARK  4 active torsions:
REMARK  status: ('A' for Active; 'I' for Inactive)
REMARK    1  A    between atoms: C_2  and  N_1 
REMARK    2  A    between atoms: C_4  and  C_2 
REMARK    3  A    between atoms: C_10  and  C_4 
REMARK    4  A    between atoms: N_7  and  C_6 
ROOT
ATOM      1  C   UNL d   1     -41.538-122.963 -50.906  0.00  0.00     0.064 A 
ATOM      2  C   UNL d   1     -41.354-123.533 -51.474  0.00  0.00     0.018 A 
ATOM      3  C   UNL d   1     -41.620-122.170 -51.122  0.00  0.00     0.018 A 
ATOM      4  C   UNL d   1     -41.333-122.510 -52.475  0.00  0.00     0.002 A 
ATOM      5  C   UNL d   1     -41.518-121.943 -51.906  0.00  0.00     0.002 A 
ATOM      6  C   UNL d   1     -41.251-123.305 -52.259  0.00  0.00     0.002 A 
ENDROOT
BRANCH   4   7
ATOM      7  C   UNL d   1     -41.230-122.281 -53.263  0.00  0.00     0.025 C 
BRANCH   7   8
ATOM      8  C   UNL d   1     -41.853-122.352 -53.792  0.00  0.00     0.148 C 
BRANCH   8   9
ATOM      9  N   UNL d   1     -41.772-122.051 -54.556  0.00  0.00    -0.112 N 
ATOM     10  O   UNL d   1     -42.331-121.533 -54.843  0.00  0.00    -0.532 OA
ATOM     11  O   UNL d   1     -41.129-122.283 -55.003  0.00  0.00    -0.532 OA
ENDBRANCH   8   9
ENDBRANCH   7   8
ENDBRANCH   4   7
BRANCH   1  12
ATOM     12  N   UNL d   1     -41.640-123.201 -50.116  0.00  0.00    -0.301 N 
ATOM     13  C   UNL d   1     -41.123-122.920 -49.532  0.00  0.00     0.100 C 
ATOM     14  C   UNL d   1     -42.253-123.716 -49.905  0.00  0.00     0.100 C 
ENDBRANCH   1  12
TORSDOF 4
ENDMDL
MODEL 3
REMARK VINA RESULT:      -4.0      2.742      3.887
REMARK  4 active torsions:
REMARK  status: ('A' for Active; 'I' for Inactive)
REMARK    1  A    between atoms: C_2  and  N_1 
REMARK    2  A    between atoms: C_4  and  C_2 
REMARK    3  A    between atoms: C_10  and  C_4 
REMARK    4  A    between atoms: N_7  and  C_6 
ROOT
ATOM      1  C   UNL d   1     -41.306-123.016 -53.206  0.00  0.00     0.064 A 
ATOM      2  C   UNL d   1     -41.387-122.306 -52.792  0.00  0.00     0.018 A 
ATOM      3  C   UNL d   1     -41.174-123.722 -52.800  0.00  0.00     0.018 A 
ATOM      4  C   UNL d   1     -41.203-123.017 -51.563  0.00  0.00     0.002 A 
ATOM      5  C   UNL d   1     -41.123-123.724 -51.980  0.00  0.00     0.002 A 
ATOM      6  C   UNL d   1     -41.336-122.308 -51.970  0.00  0.00     0.002 A 
ENDROOT
BRANCH   4   7
ATOM      7  C   UNL d   1     -41.152-123.019 -50.738  0.00  0.00     0.025 C 
BRANCH   7   8
ATOM      8  C   UNL d   1     -41.800-123.247 -50.291  0.00  0.00     0.148 C 
BRANCH   8   9
ATOM      9  N   UNL d   1     -41.770-123.177 -49.469  0.00  0.00    -0.112 N 
ATOM     10  O   UNL d   1     -41.140-123.499 -49.064  0.00  0.00    -0.532 OA
ATOM     11  O   UNL d   1     -42.375-122.785 -49.086  0.00  0.00    -0.532 OA
ENDBRANCH   8   9
ENDBRANCH   7   8
ENDBRANCH   4   7
BRANCH   1  12
ATOM     12  N   UNL d   1     -41.359-123.005 -54.036  0.00  0.00    -0.301 N 
ATOM     13  C   UNL d   1     -41.335-123.718 -54.458  0.00  0.00     0.100 C 
ATOM     14  C   UNL d   1     -41.435-122.290 -54.445  0.00  0.00     0.100 C 
ENDBRANCH   1  12
TORSDOF 4
ENDMDL
MODEL 4
REMARK VINA RESULT:      -3.7      2.258      3.703
REMARK  4 active torsions:
REMARK  status: ('A' for Active; 'I' for Inactive)
REMARK    1  A    between atoms: C_2  and  N_1 
REMARK    2  A    between atoms: C_4  and  C_2 
REMARK    3  A    between atoms: C_10  and  C_4 
REMARK    4  A    between atoms: N_7  and  C_6 
ROOT
ATOM      1  C   UNL d   1     -41.805-122.360 -54.365  0.00  0.00     0.064 A 
ATOM      2  C   UNL d   1     -41.889-121.765 -53.798  0.00  0.00     0.018 A 
ATOM      3  C   UNL d   1     -41.496-123.096 -54.155  0.00  0.00     0.018 A 
ATOM      4  C   UNL d   1     -41.351-122.651 -52.810  0.00  0.00     0.002 A 
ATOM      5  C   UNL d   1     -41.269-123.242 -53.379  0.00  0.00     0.002 A 
ATOM      6  C   UNL d   1     -41.661-121.912 -53.020  0.00  0.00     0.002 A 
ENDROOT
BRANCH   4   7
ATOM      7  C   UNL d   1     -41.123-122.798 -52.029  0.00  0.00     0.025 C 
BRANCH   7   8
ATOM      8  C   UNL d   1     -41.692-122.851 -51.442  0.00  0.00     0.148 C 
BRANCH   8   9
ATOM      9  N   UNL d   1     -41.463-123.036 -50.671  0.00  0.00    -0.112 N 
ATOM     10  O   UNL d   1     -41.212-122.440 -50.175  0.00  0.00    -0.532 OA
ATOM     11  O   UNL d   1     -41.495-123.815 -50.428  0.00  0.00    -0.532 OA
ENDBRANCH   8   9
ENDBRANCH   7   8
ENDBRANCH   4   7
BRANCH   1  12
ATOM     12  N   UNL d   1     -42.038-122.203 -55.148  0.00  0.00    -0.301 N 
ATOM     13  C   UNL d   1     -41.475-121.945 -55.700  0.00  0.00     0.100 C 
ATOM     14  C   UNL d   1     -42.825-122.303 -55.384  0.00  0.00     0.100 C 
ENDBRANCH   1  12
TORSDOF 4
ENDMDL
MODEL 5
REMARK VINA RESULT:      -3.5      2.454      3.593
REMARK  4 active torsions:
REMARK  status: ('A' for Active; 'I' for Inactive)
REMARK    1  A    between atoms: C_2  and  N_1 
REMARK    2  A    between atoms: C_4  and  C_2 
REMARK    3  A    between atoms: C_10  and  C_4 
REMARK    4  A    between atoms: N_7  and  C_6 
ROOT
ATOM      1  C   UNL d   1     -42.009-123.259 -48.502  0.00  0.00     0.064 A 
ATOM      2  C   UNL d   1     -41.266-123.405 -48.831  0.00  0.00     0.018 A 
ATOM      3  C   UNL d   1     -42.605-122.914 -48.957  0.00  0.00     0.018 A 
ATOM      4  C   UNL d   1     -41.722-122.857 -50.072  0.00  0.00     0.002 A 
ATOM      5  C   UNL d   1     -42.462-122.712 -49.741  0.00  0.00     0.002 A 
ATOM      6  C   UNL d   1     -41.123-123.204 -49.617  0.00  0.00     0.002 A 
ENDROOT
BRANCH   4   7
ATOM      7  C   UNL d   1     -41.578-122.654 -50.861  0.00  0.00     0.025 C 
BRANCH   7   8
ATOM      8  C   UNL d   1     -41.460-123.244 -51.418  0.00  0.00     0.148 C 
BRANCH   8   9
ATOM      9  N   UNL d   1     -41.409-123.043 -52.216  0.00  0.00    -0.112 N 
ATOM     10  O   UNL d   1     -41.401-123.635 -52.777  0.00  0.00    -0.532 OA
ATOM     11  O   UNL d   1     -41.368-122.254 -52.421  0.00  0.00    -0.532 OA
ENDBRANCH   8   9
ENDBRANCH   7   8
ENDBRANCH   4   7
BRANCH   1  12
ATOM     12  N   UNL d   1     -42.144-123.466 -47.709  0.00  0.00    -0.301 N 
ATOM     13  C   UNL d   1     -41.559-123.320 -47.140  0.00  0.00     0.100 C 
ATOM     14  C   UNL d   1     -42.859-123.817 -47.479  0.00  0.00     0.100 C 
ENDBRANCH   1  12
TORSDOF 4
ENDMDL
MODEL 6
REMARK VINA RESULT:      -3.5      3.365      4.638
REMARK  4 active torsions:
REMARK  status: ('A' for Active; 'I' for Inactive)
REMARK    1  A    between atoms: C_2  and  N_1 
REMARK    2  A    between atoms: C_4  and  C_2 
REMARK    3  A    between atoms: C_10  and  C_4 
REMARK    4  A    between atoms: N_7  and  C_6 
ROOT
ATOM      1  C   UNL d   1     -41.350-122.781 -51.583  0.00  0.00     0.064 A 
ATOM      2  C   UNL d   1     -41.677-122.194 -51.103  0.00  0.00     0.018 A 
ATOM      3  C   UNL d   1     -41.165-123.521 -51.267  0.00  0.00     0.018 A 
ATOM      4  C   UNL d   1     -41.634-123.095 -49.992  0.00  0.00     0.002 A 
ATOM      5  C   UNL d   1     -41.307-123.679 -50.472  0.00  0.00     0.002 A 
ATOM      6  C   UNL d   1     -41.819-122.352 -50.307  0.00  0.00     0.002 A 
ENDROOT
BRANCH   4   7
ATOM      7  C   UNL d   1     -41.776-123.253 -49.193  0.00  0.00     0.025 C 
BRANCH   7   8
ATOM      8  C   UNL d   1     -42.502-123.061 -48.863  0.00  0.00     0.148 C 
BRANCH   8   9
ATOM      9  N   UNL d   1     -42.670-123.295 -48.090  0.00  0.00    -0.112 N 
ATOM     10  O   UNL d   1     -43.281-123.817 -47.955  0.00  0.00    -0.532 OA
ATOM     11  O   UNL d   1     -42.217-122.995 -47.481  0.00  0.00    -0.532 OA
ENDBRANCH   8   9
ENDBRANCH   7   8
ENDBRANCH   4   7
BRANCH   1  12
ATOM     12  N   UNL d   1     -41.210-122.614 -52.384  0.00  0.00    -0.301 N 
ATOM     13  C   UNL d   1     -41.156-121.826 -52.636  0.00  0.00     0.100 C 
ATOM     14  C   UNL d   1     -41.124-123.226 -52.936  0.00  0.00     0.100 C 
ENDBRANCH   1  12
TORSDOF 4
ENDMDL
