MODEL 1
REMARK VINA RESULT:      -3.0      0.000      0.000
REMARK  4 active torsions:
REMARK  status: ('A' for Active; 'I' for Inactive)
REMARK    1  A    between atoms: C_10  and  C_3 
REMARK    2  A    between atoms: C_12  and  N_6 
REMARK    3  A    between atoms: O_15  and  C_10 
REMARK    4  A    between atoms: C_18  and  O_15 
ROOT
ATOM      1  C   UNL d   1      59.693  -0.637  29.139  0.00  0.00     0.086 A 
ATOM      2  C   UNL d   1      59.064  -0.326  29.573  0.00  0.00     0.038 A 
ATOM      3  C   UNL d   1      58.462  -0.818  29.845  0.00  0.00     0.165 A 
ATOM      4  C   UNL d   1      59.717  -1.447  28.978  0.00  0.00     0.282 A 
ATOM      5  N   UNL d   1      58.491  -1.621  29.683  0.00  0.00    -0.157 NA
ATOM      6  N   UNL d   1      59.118  -1.936  29.250  0.00  0.00    -0.194 N 
ATOM      7  C   UNL d   1      60.200  -0.014  28.946  0.00  0.00     0.137 A 
ATOM      8  C   UNL d   1      59.178   0.485  29.650  0.00  0.00     0.039 A 
ATOM      9  S   UNL d   1      59.888   0.681  29.259  0.00  0.00    -0.066 SA
ATOM     10  O   UNL d   1      60.345  -1.762  28.545  0.00  0.00    -0.265 OA
ATOM     11  N   UNL d   1      60.903  -0.079  28.513  0.00  0.00    -0.141 N 
ENDROOT
BRANCH   6  12
ATOM     12  C   UNL d   1      59.143  -2.747  29.090  0.00  0.00     0.086 A 
ATOM     13  C   UNL d   1      58.564  -3.091  28.617  0.00  0.00     0.019 A 
ATOM     14  C   UNL d   1      58.590  -3.898  28.458  0.00  0.00     0.002 A 
ATOM     15  C   UNL d   1      59.196  -4.362  28.773  0.00  0.00     0.000 A 
ATOM     16  C   UNL d   1      59.777  -4.014  29.248  0.00  0.00     0.002 A 
ATOM     17  C   UNL d   1      59.750  -3.207  29.406  0.00  0.00     0.019 A 
ENDBRANCH   6  12
BRANCH   3  18
ATOM     18  C   UNL d   1      57.834  -0.504  30.278  0.00  0.00     0.320 C 
ATOM     19  O   UNL d   1      57.453   0.177  30.016  0.00  0.00    -0.257 OA
BRANCH  18  20
ATOM     20  O   UNL d   1      57.589  -0.874  30.976  0.00  0.00    -0.270 OA
BRANCH  20  21
ATOM     21  C   UNL d   1      57.021  -0.518  31.453  0.00  0.00     0.126 C 
ATOM     22  C   UNL d   1      56.784  -0.884  32.152  0.00  0.00     0.029 C 
ENDBRANCH  20  21
ENDBRANCH  18  20
ENDBRANCH   3  18
TORSDOF 4
ENDMDL
MODEL 2
REMARK VINA RESULT:      -1.6      1.115      3.371
REMARK  4 active torsions:
REMARK  status: ('A' for Active; 'I' for Inactive)
REMARK    1  A    between atoms: C_10  and  C_3 
REMARK    2  A    between atoms: C_12  and  N_6 
REMARK    3  A    between atoms: O_15  and  C_10 
REMARK    4  A    between atoms: C_18  and  O_15 
ROOT
ATOM      1  C   UNL d   1      59.636  -0.346  29.861  0.00  0.00     0.086 A 
ATOM      2  C   UNL d   1      59.545  -1.045  29.431  0.00  0.00     0.038 A 
ATOM      3  C   UNL d   1      58.853  -1.487  29.496  0.00  0.00     0.165 A 
ATOM      4  C   UNL d   1      59.027  -0.091  30.359  0.00  0.00     0.282 A 
ATOM      5  N   UNL d   1      58.252  -1.230  29.992  0.00  0.00    -0.157 NA
ATOM      6  N   UNL d   1      58.339  -0.532  30.423  0.00  0.00    -0.194 N 
ATOM      7  C   UNL d   1      60.378  -0.033  29.681  0.00  0.00     0.137 A 
ATOM      8  C   UNL d   1      60.226  -1.166  28.986  0.00  0.00     0.039 A 
ATOM      9  S   UNL d   1      60.748  -0.534  29.142  0.00  0.00    -0.066 SA
ATOM     10  O   UNL d   1      59.114   0.607  30.790  0.00  0.00    -0.265 OA
ATOM     11  N   UNL d   1      60.696   0.667  29.991  0.00  0.00    -0.141 N 
ENDROOT
BRANCH   6  12
ATOM     12  C   UNL d   1      57.730  -0.277  30.921  0.00  0.00     0.086 A 
ATOM     13  C   UNL d   1      57.336   0.427  30.762  0.00  0.00     0.019 A 
ATOM     14  C   UNL d   1      56.730   0.680  31.259  0.00  0.00     0.002 A 
ATOM     15  C   UNL d   1      56.519   0.227  31.916  0.00  0.00     0.000 A 
ATOM     16  C   UNL d   1      56.917  -0.481  32.074  0.00  0.00     0.002 A 
ATOM     17  C   UNL d   1      57.522  -0.732  31.576  0.00  0.00     0.019 A 
ENDBRANCH   6  12
BRANCH   3  18
ATOM     18  C   UNL d   1      58.766  -2.185  29.065  0.00  0.00     0.320 C 
ATOM     19  O   UNL d   1      58.214  -2.226  28.455  0.00  0.00    -0.257 OA
BRANCH  18  20
ATOM     20  O   UNL d   1      59.233  -2.842  29.247  0.00  0.00    -0.270 OA
BRANCH  20  21
ATOM     21  C   UNL d   1      58.990  -3.596  29.022  0.00  0.00     0.126 C 
ATOM     22  C   UNL d   1      59.540  -4.135  28.731  0.00  0.00     0.029 C 
ENDBRANCH  20  21
ENDBRANCH  18  20
ENDBRANCH   3  18
TORSDOF 4
ENDMDL
