MODEL 1
REMARK VINA RESULT:      -8.8      0.000      0.000
REMARK  1 active torsions:
REMARK  status: ('A' for Active; 'I' for Inactive)
REMARK       I    between atoms: C_8  and  N_9 
REMARK    1  A    between atoms: N_9  and  C_10 
ROOT
ATOM      1  N   UNL d   1     -48.919  13.561  23.012  0.00  0.00    -0.304 N 
ATOM      2  C   UNL d   1     -48.145  13.293  23.113  0.00  0.00     0.066 A 
ATOM      3  C   UNL d   1     -48.176  12.510  23.382  0.00  0.00     0.018 A 
ATOM      4  C   UNL d   1     -49.428  12.945  23.218  0.00  0.00     0.064 A 
ATOM      5  C   UNL d   1     -48.970  12.298  23.446  0.00  0.00     0.018 A 
ATOM      6  C   UNL d   1     -47.414  13.658  22.995  0.00  0.00     0.037 A 
ATOM      7  C   UNL d   1     -47.479  12.099  23.532  0.00  0.00     0.003 A 
ATOM      8  C   UNL d   1     -46.713  13.241  23.147  0.00  0.00     0.086 A 
ATOM      9  C   UNL d   1     -46.756  12.459  23.416  0.00  0.00     0.019 A 
ATOM     10  C   UNL d   1     -49.139  14.302  22.754  0.00  0.00     0.099 C 
ATOM     11  C   UNL d   1     -50.252  12.888  23.228  0.00  0.00     0.018 A 
ATOM     12  C   UNL d   1     -49.338  11.597  23.683  0.00  0.00     0.002 A 
ATOM     13  C   UNL d   1     -50.156  11.545  23.692  0.00  0.00     0.000 A 
ATOM     14  C   UNL d   1     -50.614  12.193  23.464  0.00  0.00     0.002 A 
ENDROOT
BRANCH   8  15
ATOM     15  N   UNL d   1     -45.994  13.607  23.029  0.00  0.00    -0.208 NA
ATOM     16  C   UNL d   1     -45.544  13.441  22.363  0.00  0.00     0.279 C 
ATOM     17  O   UNL d   1     -44.820  13.814  22.250  0.00  0.00    -0.265 OA
ATOM     18  C   UNL d   1     -45.821  12.901  21.813  0.00  0.00     0.068 C 
ENDBRANCH   8  15
TORSDOF 1
ENDMDL
MODEL 2
REMARK VINA RESULT:      -8.7      0.943      1.932
REMARK  1 active torsions:
REMARK  status: ('A' for Active; 'I' for Inactive)
REMARK       I    between atoms: C_8  and  N_9 
REMARK    1  A    between atoms: N_9  and  C_10 
ROOT
ATOM      1  N   UNL d   1     -48.700  13.125  22.979  0.00  0.00    -0.304 N 
ATOM      2  C   UNL d   1     -47.895  13.307  23.001  0.00  0.00     0.066 A 
ATOM      3  C   UNL d   1     -47.813  14.124  22.896  0.00  0.00     0.018 A 
ATOM      4  C   UNL d   1     -49.115  13.828  22.860  0.00  0.00     0.064 A 
ATOM      5  C   UNL d   1     -48.568  14.444  22.809  0.00  0.00     0.018 A 
ATOM      6  C   UNL d   1     -47.224  12.837  23.104  0.00  0.00     0.037 A 
ATOM      7  C   UNL d   1     -47.064  14.466  22.894  0.00  0.00     0.003 A 
ATOM      8  C   UNL d   1     -46.471  13.183  23.101  0.00  0.00     0.086 A 
ATOM      9  C   UNL d   1     -46.400  14.001  22.995  0.00  0.00     0.019 A 
ATOM     10  C   UNL d   1     -49.025  12.381  23.060  0.00  0.00     0.099 C 
ATOM     11  C   UNL d   1     -49.922  13.989  22.791  0.00  0.00     0.018 A 
ATOM     12  C   UNL d   1     -48.831  15.218  22.689  0.00  0.00     0.002 A 
ATOM     13  C   UNL d   1     -49.633  15.373  22.621  0.00  0.00     0.000 A 
ATOM     14  C   UNL d   1     -50.180  14.758  22.672  0.00  0.00     0.002 A 
ENDROOT
BRANCH   8  15
ATOM     15  N   UNL d   1     -45.813  12.713  23.203  0.00  0.00    -0.208 NA
ATOM     16  C   UNL d   1     -45.272  12.612  22.593  0.00  0.00     0.279 C 
ATOM     17  O   UNL d   1     -44.610  12.137  22.703  0.00  0.00    -0.265 OA
ATOM     18  C   UNL d   1     -45.396  12.988  21.877  0.00  0.00     0.068 C 
ENDBRANCH   8  15
TORSDOF 1
ENDMDL
MODEL 3
REMARK VINA RESULT:      -7.6      1.775      3.825
REMARK  1 active torsions:
REMARK  status: ('A' for Active; 'I' for Inactive)
REMARK       I    between atoms: C_8  and  N_9 
REMARK    1  A    between atoms: N_9  and  C_10 
ROOT
ATOM      1  N   UNL d   1     -46.872  12.091  23.190  0.00  0.00    -0.304 N 
ATOM      2  C   UNL d   1     -47.623  12.432  23.219  0.00  0.00     0.066 A 
ATOM      3  C   UNL d   1     -47.568  13.202  22.918  0.00  0.00     0.018 A 
ATOM      4  C   UNL d   1     -46.352  12.648  22.872  0.00  0.00     0.064 A 
ATOM      5  C   UNL d   1     -46.781  13.333  22.705  0.00  0.00     0.018 A 
ATOM      6  C   UNL d   1     -48.351  12.144  23.479  0.00  0.00     0.037 A 
ATOM      7  C   UNL d   1     -48.238  13.678  22.880  0.00  0.00     0.003 A 
ATOM      8  C   UNL d   1     -49.025  12.626  23.439  0.00  0.00     0.086 A 
ATOM      9  C   UNL d   1     -48.959  13.394  23.137  0.00  0.00     0.019 A 
ATOM     10  C   UNL d   1     -46.679  11.337  23.433  0.00  0.00     0.099 C 
ATOM     11  C   UNL d   1     -45.543  12.622  22.713  0.00  0.00     0.018 A 
ATOM     12  C   UNL d   1     -46.398  13.988  22.379  0.00  0.00     0.002 A 
ATOM     13  C   UNL d   1     -45.594  13.958  22.222  0.00  0.00     0.000 A 
ATOM     14  C   UNL d   1     -45.165  13.273  22.390  0.00  0.00     0.002 A 
ENDROOT
BRANCH   8  15
ATOM     15  N   UNL d   1     -49.742  12.336  23.698  0.00  0.00    -0.208 NA
ATOM     16  C   UNL d   1     -50.345  12.173  23.164  0.00  0.00     0.279 C 
ATOM     17  O   UNL d   1     -51.064  11.881  23.432  0.00  0.00    -0.265 OA
ATOM     18  C   UNL d   1     -50.224  12.304  22.366  0.00  0.00     0.068 C 
ENDBRANCH   8  15
TORSDOF 1
ENDMDL
