MODEL 1
REMARK VINA RESULT:      74.0      0.000      0.000
REMARK  5 active torsions:
REMARK  status: ('A' for Active; 'I' for Inactive)
REMARK       I    between atoms: C_6  and  N_1 
REMARK    1  A    between atoms: C_7  and  C_3 
REMARK    2  A    between atoms: C_8  and  C_4 
REMARK    3  A    between atoms: C_11  and  C_6 
REMARK    4  A    between atoms: C_9  and  C_17 
REMARK    5  A    between atoms: C_17  and  C_11 
ROOT
ATOM      1  N   UNL d   1     -50.651  25.647  33.513  0.00  0.00    -0.195 N 
ATOM      2  N   UNL d   1     -51.043  24.934  33.471  0.00  0.00    -0.163 NA
ATOM      3  C   UNL d   1     -51.813  25.114  33.569  0.00  0.00     0.103 A 
ATOM      4  C   UNL d   1     -51.160  26.239  33.631  0.00  0.00     0.088 A 
ATOM      5  C   UNL d   1     -51.888  25.945  33.670  0.00  0.00     0.040 A 
ATOM      6  C   UNL d   1     -49.834  25.729  33.440  0.00  0.00     0.281 C 
ATOM      7  O   UNL d   1     -49.485  26.478  33.490  0.00  0.00    -0.265 OA
ENDROOT
BRANCH   4   8
ATOM      8  C   UNL d   1     -50.854  27.022  33.689  0.00  0.00     0.018 A 
ATOM      9  C   UNL d   1     -50.128  27.181  33.314  0.00  0.00     0.002 A 
ATOM     10  C   UNL d   1     -49.847  27.937  33.379  0.00  0.00     0.007 A 
ATOM     11  C   UNL d   1     -50.224  28.520  33.774  0.00  0.00     0.035 A 
ATOM     12  C   UNL d   1     -50.952  28.350  34.146  0.00  0.00     0.007 A 
ATOM     13 BR   UNL d   1     -49.874  29.300  33.806  0.00  0.00    -0.049 Br
ATOM     14  C   UNL d   1     -51.258  27.567  34.088  0.00  0.00     0.002 A 
ENDBRANCH   4   8
BRANCH   6  15
ATOM     15  C   UNL d   1     -49.354  25.025  33.312  0.00  0.00     0.069 C 
BRANCH  15  16
ATOM     16  C   UNL d   1     -49.053  24.618  33.973  0.00  0.00     0.075 C 
BRANCH  16  17
ATOM     17  C   UNL d   1     -48.348  24.201  33.921  0.00  0.00     0.211 C 
ATOM     18  O   UNL d   1     -48.350  23.374  34.029  0.00  0.00    -0.644 OA
ATOM     19  O   UNL d   1     -47.640  24.595  33.764  0.00  0.00    -0.644 OA
ENDBRANCH  16  17
ENDBRANCH  15  16
ENDBRANCH   6  15
BRANCH   3  20
ATOM     20  C   UNL d   1     -52.494  24.638  33.583  0.00  0.00     0.019 A 
ATOM     21  C   UNL d   1     -52.466  23.869  33.309  0.00  0.00     0.002 A 
ATOM     22  C   UNL d   1     -53.142  23.399  33.325  0.00  0.00     0.007 A 
ATOM     23  C   UNL d   1     -53.849  23.708  33.618  0.00  0.00     0.035 A 
ATOM     24  C   UNL d   1     -53.886  24.490  33.899  0.00  0.00     0.007 A 
ATOM     25 BR   UNL d   1     -54.589  23.225  33.646  0.00  0.00    -0.049 Br
ATOM     26  C   UNL d   1     -53.200  24.947  33.876  0.00  0.00     0.002 A 
ENDBRANCH   3  20
TORSDOF 5
ENDMDL
MODEL 2
REMARK VINA RESULT:      76.7      2.195      4.187
REMARK  5 active torsions:
REMARK  status: ('A' for Active; 'I' for Inactive)
REMARK       I    between atoms: C_6  and  N_1 
REMARK    1  A    between atoms: C_7  and  C_3 
REMARK    2  A    between atoms: C_8  and  C_4 
REMARK    3  A    between atoms: C_11  and  C_6 
REMARK    4  A    between atoms: C_9  and  C_17 
REMARK    5  A    between atoms: C_17  and  C_11 
ROOT
ATOM      1  N   UNL d   1     -51.360  25.430  33.398  0.00  0.00    -0.195 N 
ATOM      2  N   UNL d   1     -51.828  26.097  33.416  0.00  0.00    -0.163 NA
ATOM      3  C   UNL d   1     -51.318  26.707  33.466  0.00  0.00     0.103 A 
ATOM      4  C   UNL d   1     -50.596  25.625  33.436  0.00  0.00     0.088 A 
ATOM      5  C   UNL d   1     -50.533  26.407  33.479  0.00  0.00     0.040 A 
ATOM      6  C   UNL d   1     -51.654  24.661  33.348  0.00  0.00     0.281 C 
ATOM      7  O   UNL d   1     -51.135  24.017  33.333  0.00  0.00    -0.265 OA
ENDROOT
BRANCH   4   8
ATOM      8  C   UNL d   1     -50.026  25.003  33.424  0.00  0.00     0.018 A 
ATOM      9  C   UNL d   1     -49.227  25.214  33.324  0.00  0.00     0.002 A 
ATOM     10  C   UNL d   1     -48.692  24.607  33.315  0.00  0.00     0.007 A 
ATOM     11  C   UNL d   1     -48.891  23.837  33.395  0.00  0.00     0.035 A 
ATOM     12  C   UNL d   1     -49.695  23.637  33.495  0.00  0.00     0.007 A 
ATOM     13 BR   UNL d   1     -48.277  23.241  33.377  0.00  0.00    -0.049 Br
ATOM     14  C   UNL d   1     -50.265  24.258  33.507  0.00  0.00     0.002 A 
ENDBRANCH   4   8
BRANCH   6  15
ATOM     15  C   UNL d   1     -52.506  24.543  33.311  0.00  0.00     0.069 C 
BRANCH  15  16
ATOM     16  C   UNL d   1     -52.904  24.266  33.989  0.00  0.00     0.075 C 
BRANCH  16  17
ATOM     17  C   UNL d   1     -53.696  24.053  33.950  0.00  0.00     0.211 C 
ATOM     18  O   UNL d   1     -54.251  24.446  34.433  0.00  0.00    -0.644 OA
ATOM     19  O   UNL d   1     -53.944  23.455  33.438  0.00  0.00    -0.644 OA
ENDBRANCH  16  17
ENDBRANCH  15  16
ENDBRANCH   6  15
BRANCH   3  20
ATOM     20  C   UNL d   1     -51.442  27.528  33.505  0.00  0.00     0.019 A 
ATOM     21  C   UNL d   1     -50.837  28.028  33.730  0.00  0.00     0.002 A 
ATOM     22  C   UNL d   1     -50.964  28.841  33.766  0.00  0.00     0.007 A 
ATOM     23  C   UNL d   1     -51.705  29.149  33.575  0.00  0.00     0.035 A 
ATOM     24  C   UNL d   1     -52.326  28.647  33.345  0.00  0.00     0.007 A 
ATOM     25 BR   UNL d   1     -51.868  30.018  33.606  0.00  0.00    -0.049 Br
ATOM     26  C   UNL d   1     -52.183  27.835  33.313  0.00  0.00     0.002 A 
ENDBRANCH   3  20
TORSDOF 5
ENDMDL
