MODEL 1
REMARK VINA RESULT:      -3.5      0.000      0.000
REMARK  3 active torsions:
REMARK  status: ('A' for Active; 'I' for Inactive)
REMARK    1  A    between atoms: C_2  and  C_1 
REMARK    2  A    between atoms: C_13  and  N_4 
REMARK    3  A    between atoms: C_12  and  C_15 
ROOT
ATOM      1  C   UNL d   1      32.921  20.265 -22.468  0.00  0.00     0.106 A 
ATOM      2  C   UNL d   1      33.042  19.653 -23.652  0.00  0.00     0.206 A 
ATOM      3  N   UNL d   1      32.782  19.093 -23.106  0.00  0.00    -0.281 N 
ATOM      4  N   UNL d   1      33.131  20.380 -23.266  0.00  0.00    -0.217 NA
ATOM      5  C   UNL d   1      32.707  19.469 -22.375  0.00  0.00     0.102 A 
ATOM      6  S   UNL d   1      33.190  19.515 -24.452  0.00  0.00    -0.038 SA
ENDROOT
BRANCH   1   7
ATOM      7  C   UNL d   1      32.927  20.837 -21.881  0.00  0.00     0.083 A 
ATOM      8  C   UNL d   1      33.073  20.619 -21.094  0.00  0.00     0.302 A 
ATOM      9  O   UNL d   1      33.078  21.203 -20.499  0.00  0.00    -0.273 OA
ATOM     10  O   UNL d   1      33.213  19.831 -20.897  0.00  0.00    -0.259 OA
ATOM     11  C   UNL d   1      32.938  21.993 -20.689  0.00  0.00     0.103 A 
ATOM     12  C   UNL d   1      32.792  22.211 -21.476  0.00  0.00     0.023 A 
ATOM     13  C   UNL d   1      32.944  22.564 -20.098  0.00  0.00     0.025 A 
ATOM     14  C   UNL d   1      32.786  21.631 -22.078  0.00  0.00     0.009 A 
ATOM     15  C   UNL d   1      32.653  22.998 -21.667  0.00  0.00     0.002 A 
ATOM     16  C   UNL d   1      32.659  23.570 -21.076  0.00  0.00     0.000 A 
ATOM     17  C   UNL d   1      32.805  23.352 -20.288  0.00  0.00     0.002 A 
ENDBRANCH   1   7
BRANCH   3  18
ATOM     18  C   UNL d   1      32.627  18.306 -23.263  0.00  0.00     0.066 A 
ATOM     19  C   UNL d   1      33.214  17.731 -23.133  0.00  0.00     0.018 A 
ATOM     20  C   UNL d   1      33.061  16.938 -23.290  0.00  0.00     0.008 A 
ATOM     21  C   UNL d   1      32.316  16.709 -23.580  0.00  0.00     0.065 A 
ATOM     22  C   UNL d   1      31.737  17.278 -23.709  0.00  0.00     0.008 A 
ATOM     23  C   UNL d   1      31.890  18.075 -23.551  0.00  0.00     0.018 A 
BRANCH  21  24
ATOM     24  C   UNL d   1      32.161  15.917 -23.738  0.00  0.00     0.211 C 
ATOM     25  O   UNL d   1      31.568  15.522 -23.316  0.00  0.00    -0.644 OA
ATOM     26  O   UNL d   1      32.591  15.515 -24.314  0.00  0.00    -0.644 OA
ENDBRANCH  21  24
ENDBRANCH   3  18
TORSDOF 3
ENDMDL
MODEL 2
REMARK VINA RESULT:      -2.4      1.190      5.340
REMARK  3 active torsions:
REMARK  status: ('A' for Active; 'I' for Inactive)
REMARK    1  A    between atoms: C_2  and  C_1 
REMARK    2  A    between atoms: C_13  and  N_4 
REMARK    3  A    between atoms: C_12  and  C_15 
ROOT
ATOM      1  C   UNL d   1      32.099  18.422 -23.661  0.00  0.00     0.106 A 
ATOM      2  C   UNL d   1      32.792  19.562 -23.771  0.00  0.00     0.206 A 
ATOM      3  N   UNL d   1      32.527  19.503 -22.992  0.00  0.00    -0.281 N 
ATOM      4  N   UNL d   1      32.531  18.897 -24.191  0.00  0.00    -0.217 NA
ATOM      5  C   UNL d   1      32.100  18.800 -22.923  0.00  0.00     0.102 A 
ATOM      6  S   UNL d   1      33.241  20.178 -24.084  0.00  0.00    -0.038 SA
ENDROOT
BRANCH   1   7
ATOM      7  C   UNL d   1      31.738  17.707 -23.838  0.00  0.00     0.083 A 
ATOM      8  C   UNL d   1      32.176  17.003 -23.802  0.00  0.00     0.302 A 
ATOM      9  O   UNL d   1      31.807  16.279 -23.983  0.00  0.00    -0.273 OA
ATOM     10  O   UNL d   1      32.973  17.017 -23.589  0.00  0.00    -0.259 OA
ATOM     11  C   UNL d   1      31.010  16.258 -24.197  0.00  0.00     0.103 A 
ATOM     12  C   UNL d   1      30.572  16.962 -24.233  0.00  0.00     0.023 A 
ATOM     13  C   UNL d   1      30.651  15.540 -24.374  0.00  0.00     0.025 A 
ATOM     14  C   UNL d   1      30.936  17.693 -24.053  0.00  0.00     0.009 A 
ATOM     15  C   UNL d   1      29.779  16.944 -24.446  0.00  0.00     0.002 A 
ATOM     16  C   UNL d   1      29.419  16.226 -24.623  0.00  0.00     0.000 A 
ATOM     17  C   UNL d   1      29.857  15.521 -24.588  0.00  0.00     0.002 A 
ENDBRANCH   1   7
BRANCH   3  18
ATOM     18  C   UNL d   1      32.665  20.046 -22.397  0.00  0.00     0.066 A 
ATOM     19  C   UNL d   1      33.043  19.808 -21.695  0.00  0.00     0.018 A 
ATOM     20  C   UNL d   1      33.184  20.352 -21.094  0.00  0.00     0.008 A 
ATOM     21  C   UNL d   1      32.947  21.143 -21.188  0.00  0.00     0.065 A 
ATOM     22  C   UNL d   1      32.574  21.377 -21.882  0.00  0.00     0.008 A 
ATOM     23  C   UNL d   1      32.432  20.831 -22.486  0.00  0.00     0.018 A 
BRANCH  21  24
ATOM     24  C   UNL d   1      33.087  21.690 -20.588  0.00  0.00     0.211 C 
ATOM     25  O   UNL d   1      33.240  21.425 -19.818  0.00  0.00    -0.644 OA
ATOM     26  O   UNL d   1      33.074  22.497 -20.750  0.00  0.00    -0.644 OA
ENDBRANCH  21  24
ENDBRANCH   3  18
TORSDOF 3
ENDMDL
MODEL 3
REMARK VINA RESULT:      -2.2      1.020      1.441
REMARK  3 active torsions:
REMARK  status: ('A' for Active; 'I' for Inactive)
REMARK    1  A    between atoms: C_2  and  C_1 
REMARK    2  A    between atoms: C_13  and  N_4 
REMARK    3  A    between atoms: C_12  and  C_15 
ROOT
ATOM      1  C   UNL d   1      33.067  21.113 -22.202  0.00  0.00     0.106 A 
ATOM      2  C   UNL d   1      33.135  20.523 -23.401  0.00  0.00     0.206 A 
ATOM      3  N   UNL d   1      32.923  19.947 -22.850  0.00  0.00    -0.281 N 
ATOM      4  N   UNL d   1      33.226  21.247 -23.008  0.00  0.00    -0.217 NA
ATOM      5  C   UNL d   1      32.881  20.310 -22.109  0.00  0.00     0.102 A 
ATOM      6  S   UNL d   1      33.239  20.402 -24.210  0.00  0.00    -0.038 SA
ENDROOT
BRANCH   1   7
ATOM      7  C   UNL d   1      33.092  21.675 -21.606  0.00  0.00     0.083 A 
ATOM      8  C   UNL d   1      33.066  22.482 -21.798  0.00  0.00     0.302 A 
ATOM      9  O   UNL d   1      33.091  23.052 -21.191  0.00  0.00    -0.273 OA
ATOM     10  O   UNL d   1      33.016  22.723 -22.586  0.00  0.00    -0.259 OA
ATOM     11  C   UNL d   1      33.141  22.818 -20.401  0.00  0.00     0.103 A 
ATOM     12  C   UNL d   1      33.167  22.011 -20.209  0.00  0.00     0.023 A 
ATOM     13  C   UNL d   1      33.165  23.384 -19.806  0.00  0.00     0.025 A 
ATOM     14  C   UNL d   1      33.142  21.434 -20.813  0.00  0.00     0.009 A 
ATOM     15  C   UNL d   1      33.217  21.776 -19.423  0.00  0.00     0.002 A 
ATOM     16  C   UNL d   1      33.241  22.343 -18.827  0.00  0.00     0.000 A 
ATOM     17  C   UNL d   1      33.215  23.150 -19.019  0.00  0.00     0.002 A 
ENDBRANCH   1   7
BRANCH   3  18
ATOM     18  C   UNL d   1      32.780  19.159 -23.012  0.00  0.00     0.066 A 
ATOM     19  C   UNL d   1      33.240  18.569 -22.648  0.00  0.00     0.018 A 
ATOM     20  C   UNL d   1      33.099  17.774 -22.809  0.00  0.00     0.008 A 
ATOM     21  C   UNL d   1      32.495  17.559 -23.336  0.00  0.00     0.065 A 
ATOM     22  C   UNL d   1      32.040  18.143 -23.695  0.00  0.00     0.008 A 
ATOM     23  C   UNL d   1      32.182  18.941 -23.534  0.00  0.00     0.018 A 
BRANCH  21  24
ATOM     24  C   UNL d   1      32.352  16.765 -23.499  0.00  0.00     0.211 C 
ATOM     25  O   UNL d   1      31.578  16.509 -23.647  0.00  0.00    -0.644 OA
ATOM     26  O   UNL d   1      32.973  16.225 -23.514  0.00  0.00    -0.644 OA
ENDBRANCH  21  24
ENDBRANCH   3  18
TORSDOF 3
ENDMDL
MODEL 4
REMARK VINA RESULT:      -2.1      1.135      5.309
REMARK  3 active torsions:
REMARK  status: ('A' for Active; 'I' for Inactive)
REMARK    1  A    between atoms: C_2  and  C_1 
REMARK    2  A    between atoms: C_13  and  N_4 
REMARK    3  A    between atoms: C_12  and  C_15 
ROOT
ATOM      1  C   UNL d   1      32.765  19.208 -23.234  0.00  0.00     0.106 A 
ATOM      2  C   UNL d   1      33.036  20.518 -23.289  0.00  0.00     0.206 A 
ATOM      3  N   UNL d   1      32.843  20.334 -22.508  0.00  0.00    -0.281 N 
ATOM      4  N   UNL d   1      32.990  19.827 -23.744  0.00  0.00    -0.217 NA
ATOM      5  C   UNL d   1      32.676  19.526 -22.473  0.00  0.00     0.102 A 
ATOM      6  S   UNL d   1      33.241  21.265 -23.573  0.00  0.00    -0.038 SA
ENDROOT
BRANCH   1   7
ATOM      7  C   UNL d   1      32.653  18.425 -23.448  0.00  0.00     0.083 A 
ATOM      8  C   UNL d   1      32.185  18.240 -24.108  0.00  0.00     0.302 A 
ATOM      9  O   UNL d   1      32.072  17.443 -24.323  0.00  0.00    -0.273 OA
ATOM     10  O   UNL d   1      31.831  18.839 -24.551  0.00  0.00    -0.259 OA
ATOM     11  C   UNL d   1      32.422  16.839 -23.884  0.00  0.00     0.103 A 
ATOM     12  C   UNL d   1      32.891  17.024 -23.224  0.00  0.00     0.023 A 
ATOM     13  C   UNL d   1      32.308  16.054 -24.101  0.00  0.00     0.025 A 
ATOM     14  C   UNL d   1      33.008  17.821 -23.003  0.00  0.00     0.009 A 
ATOM     15  C   UNL d   1      33.240  16.423 -22.786  0.00  0.00     0.002 A 
ATOM     16  C   UNL d   1      33.126  15.638 -23.002  0.00  0.00     0.000 A 
ATOM     17  C   UNL d   1      32.658  15.453 -23.662  0.00  0.00     0.002 A 
ENDBRANCH   1   7
BRANCH   3  18
ATOM     18  C   UNL d   1      32.823  20.859 -21.883  0.00  0.00     0.066 A 
ATOM     19  C   UNL d   1      33.064  20.616 -21.125  0.00  0.00     0.018 A 
ATOM     20  C   UNL d   1      33.044  21.143 -20.493  0.00  0.00     0.008 A 
ATOM     21  C   UNL d   1      32.783  21.923 -20.612  0.00  0.00     0.065 A 
ATOM     22  C   UNL d   1      32.545  22.163 -21.362  0.00  0.00     0.008 A 
ATOM     23  C   UNL d   1      32.564  21.633 -21.997  0.00  0.00     0.018 A 
BRANCH  21  24
ATOM     24  C   UNL d   1      32.762  22.452 -19.983  0.00  0.00     0.211 C 
ATOM     25  O   UNL d   1      32.705  23.265 -20.130  0.00  0.00    -0.644 OA
ATOM     26  O   UNL d   1      32.797  22.177 -19.207  0.00  0.00    -0.644 OA
ENDBRANCH  21  24
ENDBRANCH   3  18
TORSDOF 3
ENDMDL
MODEL 5
REMARK VINA RESULT:      -1.4      1.933      2.984
REMARK  3 active torsions:
REMARK  status: ('A' for Active; 'I' for Inactive)
REMARK    1  A    between atoms: C_2  and  C_1 
REMARK    2  A    between atoms: C_13  and  N_4 
REMARK    3  A    between atoms: C_12  and  C_15 
ROOT
ATOM      1  C   UNL d   1      32.804  22.138 -20.545  0.00  0.00     0.106 A 
ATOM      2  C   UNL d   1      32.834  21.897 -21.861  0.00  0.00     0.206 A 
ATOM      3  N   UNL d   1      32.859  21.171 -21.472  0.00  0.00    -0.281 N 
ATOM      4  N   UNL d   1      32.799  22.501 -21.295  0.00  0.00    -0.217 NA
ATOM      5  C   UNL d   1      32.840  21.318 -20.660  0.00  0.00     0.102 A 
ATOM      6  S   UNL d   1      32.841  22.009 -22.678  0.00  0.00    -0.038 SA
ENDROOT
BRANCH   1   7
ATOM      7  C   UNL d   1      32.776  22.525 -19.823  0.00  0.00     0.083 A 
ATOM      8  C   UNL d   1      32.500  23.307 -19.783  0.00  0.00     0.302 A 
ATOM      9  O   UNL d   1      32.474  23.697 -19.047  0.00  0.00    -0.273 OA
ATOM     10  O   UNL d   1      32.253  23.698 -20.465  0.00  0.00    -0.259 OA
ATOM     11  C   UNL d   1      32.720  23.311 -18.361  0.00  0.00     0.103 A 
ATOM     12  C   UNL d   1      32.996  22.530 -18.401  0.00  0.00     0.023 A 
ATOM     13  C   UNL d   1      32.691  23.702 -17.638  0.00  0.00     0.025 A 
ATOM     14  C   UNL d   1      33.025  22.132 -19.135  0.00  0.00     0.009 A 
ATOM     15  C   UNL d   1      33.241  22.144 -17.718  0.00  0.00     0.002 A 
ATOM     16  C   UNL d   1      33.212  22.534 -16.994  0.00  0.00     0.000 A 
ATOM     17  C   UNL d   1      32.936  23.316 -16.954  0.00  0.00     0.002 A 
ENDBRANCH   1   7
BRANCH   3  18
ATOM     18  C   UNL d   1      32.895  20.437 -21.830  0.00  0.00     0.066 A 
ATOM     19  C   UNL d   1      32.993  19.752 -21.369  0.00  0.00     0.018 A 
ATOM     20  C   UNL d   1      33.030  19.012 -21.726  0.00  0.00     0.008 A 
ATOM     21  C   UNL d   1      32.970  18.946 -22.552  0.00  0.00     0.065 A 
ATOM     22  C   UNL d   1      32.874  19.624 -23.008  0.00  0.00     0.008 A 
ATOM     23  C   UNL d   1      32.836  20.368 -22.649  0.00  0.00     0.018 A 
BRANCH  21  24
ATOM     24  C   UNL d   1      33.007  18.208 -22.912  0.00  0.00     0.211 C 
ATOM     25  O   UNL d   1      32.808  18.130 -23.712  0.00  0.00    -0.644 OA
ATOM     26  O   UNL d   1      33.241  17.546 -22.481  0.00  0.00    -0.644 OA
ENDBRANCH  21  24
ENDBRANCH   3  18
TORSDOF 3
ENDMDL
MODEL 6
REMARK VINA RESULT:      -1.1      2.353      5.816
REMARK  3 active torsions:
REMARK  status: ('A' for Active; 'I' for Inactive)
REMARK    1  A    between atoms: C_2  and  C_1 
REMARK    2  A    between atoms: C_13  and  N_4 
REMARK    3  A    between atoms: C_12  and  C_15 
ROOT
ATOM      1  C   UNL d   1      32.947  21.622 -21.191  0.00  0.00     0.106 A 
ATOM      2  C   UNL d   1      32.996  22.859 -20.680  0.00  0.00     0.206 A 
ATOM      3  N   UNL d   1      32.910  22.331 -20.053  0.00  0.00    -0.281 N 
ATOM      4  N   UNL d   1      33.020  22.428 -21.388  0.00  0.00    -0.217 NA
ATOM      5  C   UNL d   1      32.879  21.568 -20.366  0.00  0.00     0.102 A 
ATOM      6  S   UNL d   1      33.051  23.679 -20.618  0.00  0.00    -0.038 SA
ENDROOT
BRANCH   1   7
ATOM      7  C   UNL d   1      32.943  20.995 -21.719  0.00  0.00     0.083 A 
ATOM      8  C   UNL d   1      32.794  21.134 -22.523  0.00  0.00     0.302 A 
ATOM      9  O   UNL d   1      32.790  20.495 -23.058  0.00  0.00    -0.273 OA
ATOM     10  O   UNL d   1      32.650  21.899 -22.796  0.00  0.00    -0.259 OA
ATOM     11  C   UNL d   1      32.934  19.727 -22.792  0.00  0.00     0.103 A 
ATOM     12  C   UNL d   1      33.083  19.588 -21.988  0.00  0.00     0.023 A 
ATOM     13  C   UNL d   1      32.929  19.101 -23.324  0.00  0.00     0.025 A 
ATOM     14  C   UNL d   1      33.088  20.225 -21.445  0.00  0.00     0.009 A 
ATOM     15  C   UNL d   1      33.226  18.825 -21.721  0.00  0.00     0.002 A 
ATOM     16  C   UNL d   1      33.222  18.197 -22.253  0.00  0.00     0.000 A 
ATOM     17  C   UNL d   1      33.073  18.336 -23.058  0.00  0.00     0.002 A 
ENDBRANCH   1   7
BRANCH   3  18
ATOM     18  C   UNL d   1      32.862  22.531 -19.261  0.00  0.00     0.066 A 
ATOM     19  C   UNL d   1      33.240  22.061 -18.689  0.00  0.00     0.018 A 
ATOM     20  C   UNL d   1      33.195  22.260 -17.892  0.00  0.00     0.008 A 
ATOM     21  C   UNL d   1      32.770  22.934 -17.656  0.00  0.00     0.065 A 
ATOM     22  C   UNL d   1      32.397  23.399 -18.223  0.00  0.00     0.008 A 
ATOM     23  C   UNL d   1      32.442  23.199 -19.024  0.00  0.00     0.018 A 
BRANCH  21  24
ATOM     24  C   UNL d   1      32.723  23.135 -16.860  0.00  0.00     0.211 C 
ATOM     25  O   UNL d   1      32.172  23.701 -16.611  0.00  0.00    -0.644 OA
ATOM     26  O   UNL d   1      33.220  22.777 -16.310  0.00  0.00    -0.644 OA
ENDBRANCH  21  24
ENDBRANCH   3  18
TORSDOF 3
ENDMDL
