MODEL 1
REMARK VINA RESULT:      -8.0      0.000      0.000
REMARK  3 active torsions:
REMARK  status: ('A' for Active; 'I' for Inactive)
REMARK    1  A    between atoms: N_10  and  C_3 
REMARK    2  A    between atoms: C_15  and  N_4 
REMARK    3  A    between atoms: C_20  and  C_15 
ROOT
ATOM      1  C   UNL d   1      51.339  32.988  53.022  0.00  0.00     0.191 A 
ATOM      2  C   UNL d   1      51.819  33.664  53.001  0.00  0.00     0.173 A 
ATOM      3  C   UNL d   1      50.549  34.040  52.833  0.00  0.00     0.738 A 
ATOM      4  N   UNL d   1      52.968  32.842  53.202  0.00  0.00    -0.224 N 
ATOM      5  N   UNL d   1      50.557  33.222  52.918  0.00  0.00    -0.041 NA
ATOM      6  N   UNL d   1      51.672  32.245  53.132  0.00  0.00    -0.240 N 
ATOM      7  C   UNL d   1      52.487  32.171  53.222  0.00  0.00     0.343 A 
ATOM      8  C   UNL d   1      52.633  33.587  53.091  0.00  0.00     0.288 A 
ATOM      9  N   UNL d   1      51.327  34.316  52.883  0.00  0.00    -0.130 N 
ATOM     10  O   UNL d   1      52.823  31.426  53.333  0.00  0.00    -0.245 OA
ATOM     11  O   UNL d   1      53.114  34.258  53.070  0.00  0.00    -0.265 OA
ATOM     12  C   UNL d   1      51.191  31.573  53.152  0.00  0.00     0.105 C 
ATOM     13  C   UNL d   1      51.569  35.101  52.827  0.00  0.00     0.118 C 
ENDROOT
BRANCH   4  14
ATOM     14  C   UNL d   1      53.788  32.766  53.293  0.00  0.00     0.087 C 
BRANCH  14  15
ATOM     15  C   UNL d   1      54.143  32.959  54.011  0.00  0.00     0.019 A 
ATOM     16  C   UNL d   1      54.804  33.466  54.024  0.00  0.00     0.014 A 
ATOM     17  C   UNL d   1      55.160  33.660  54.743  0.00  0.00     0.068 A 
ATOM     18 CL   UNL d   1      55.813  34.162  54.756  0.00  0.00    -0.082 Cl
ATOM     19  C   UNL d   1      54.864  33.355  55.442  0.00  0.00     0.068 A 
ATOM     20  C   UNL d   1      54.198  32.844  55.430  0.00  0.00     0.012 A 
ATOM     21 CL   UNL d   1      55.219  33.548  56.160  0.00  0.00    -0.082 Cl
ATOM     22  C   UNL d   1      53.848  32.655  54.706  0.00  0.00     0.002 A 
ENDBRANCH  14  15
ENDBRANCH   4  14
BRANCH   3  23
ATOM     23  N   UNL d   1      49.878  34.508  52.717  0.00  0.00    -0.059 N 
ATOM     24  N   UNL d   1      49.512  34.975  53.288  0.00  0.00    -0.151 NA
ATOM     25  C   UNL d   1      48.859  35.348  52.933  0.00  0.00     0.103 A 
ATOM     26  C   UNL d   1      48.335  35.869  53.308  0.00  0.00     0.022 C 
ATOM     27  C   UNL d   1      48.833  35.105  52.143  0.00  0.00     0.041 A 
ATOM     28  C   UNL d   1      49.462  34.588  52.015  0.00  0.00     0.102 A 
ATOM     29  C   UNL d   1      49.640  34.214  51.299  0.00  0.00     0.021 C 
ENDBRANCH   3  23
TORSDOF 3
ENDMDL
MODEL 2
REMARK VINA RESULT:      -7.7      2.600      4.966
REMARK  3 active torsions:
REMARK  status: ('A' for Active; 'I' for Inactive)
REMARK    1  A    between atoms: N_10  and  C_3 
REMARK    2  A    between atoms: C_15  and  N_4 
REMARK    3  A    between atoms: C_20  and  C_15 
ROOT
ATOM      1  C   UNL d   1      53.368  32.433  53.941  0.00  0.00     0.191 A 
ATOM      2  C   UNL d   1      52.882  32.207  53.307  0.00  0.00     0.173 A 
ATOM      3  C   UNL d   1      53.333  31.104  53.910  0.00  0.00     0.738 A 
ATOM      4  N   UNL d   1      52.660  33.582  53.001  0.00  0.00    -0.224 N 
ATOM      5  N   UNL d   1      53.645  31.752  54.311  0.00  0.00    -0.041 NA
ATOM      6  N   UNL d   1      53.498  33.227  54.103  0.00  0.00    -0.240 N 
ATOM      7  C   UNL d   1      53.144  33.804  53.632  0.00  0.00     0.343 A 
ATOM      8  C   UNL d   1      52.530  32.785  52.840  0.00  0.00     0.288 A 
ATOM      9  N   UNL d   1      52.862  31.381  53.290  0.00  0.00    -0.130 N 
ATOM     10  O   UNL d   1      53.274  34.602  53.793  0.00  0.00    -0.245 OA
ATOM     11  O   UNL d   1      52.046  32.564  52.208  0.00  0.00    -0.265 OA
ATOM     12  C   UNL d   1      53.982  33.449  54.735  0.00  0.00     0.105 C 
ATOM     13  C   UNL d   1      52.446  30.919  52.751  0.00  0.00     0.118 C 
ENDROOT
BRANCH   4  14
ATOM     14  C   UNL d   1      52.305  34.164  52.529  0.00  0.00     0.087 C 
BRANCH  14  15
ATOM     15  C   UNL d   1      51.510  34.353  52.637  0.00  0.00     0.019 A 
ATOM     16  C   UNL d   1      50.974  34.272  52.004  0.00  0.00     0.014 A 
ATOM     17  C   UNL d   1      50.178  34.461  52.111  0.00  0.00     0.068 A 
ATOM     18 CL   UNL d   1      49.649  34.381  51.485  0.00  0.00    -0.082 Cl
ATOM     19  C   UNL d   1      49.916  34.729  52.838  0.00  0.00     0.068 A 
ATOM     20  C   UNL d   1      50.455  34.811  53.477  0.00  0.00     0.012 A 
ATOM     21 CL   UNL d   1      49.121  34.919  52.946  0.00  0.00    -0.082 Cl
ATOM     22  C   UNL d   1      51.249  34.620  53.361  0.00  0.00     0.002 A 
ENDBRANCH  14  15
ENDBRANCH   4  14
BRANCH   3  23
ATOM     23  N   UNL d   1      53.467  30.310  54.096  0.00  0.00    -0.059 N 
ATOM     24  N   UNL d   1      53.075  29.878  54.677  0.00  0.00    -0.151 NA
ATOM     25  C   UNL d   1      53.383  29.106  54.674  0.00  0.00     0.103 A 
ATOM     26  C   UNL d   1      53.146  28.487  55.171  0.00  0.00     0.022 C 
ATOM     27  C   UNL d   1      53.965  29.073  54.087  0.00  0.00     0.041 A 
ATOM     28  C   UNL d   1      54.013  29.816  53.734  0.00  0.00     0.102 A 
ATOM     29  C   UNL d   1      54.525  30.025  53.120  0.00  0.00     0.021 C 
ENDBRANCH   3  23
TORSDOF 3
ENDMDL
MODEL 3
REMARK VINA RESULT:      -6.6      1.678      2.316
REMARK  3 active torsions:
REMARK  status: ('A' for Active; 'I' for Inactive)
REMARK    1  A    between atoms: N_10  and  C_3 
REMARK    2  A    between atoms: C_15  and  N_4 
REMARK    3  A    between atoms: C_20  and  C_15 
ROOT
ATOM      1  C   UNL d   1      51.700  34.481  53.317  0.00  0.00     0.191 A 
ATOM      2  C   UNL d   1      51.592  33.842  52.799  0.00  0.00     0.173 A 
ATOM      3  C   UNL d   1      50.485  34.589  52.787  0.00  0.00     0.738 A 
ATOM      4  N   UNL d   1      52.902  33.376  53.117  0.00  0.00    -0.224 N 
ATOM      5  N   UNL d   1      51.017  34.941  53.308  0.00  0.00    -0.041 NA
ATOM      6  N   UNL d   1      52.404  34.567  53.732  0.00  0.00    -0.240 N 
ATOM      7  C   UNL d   1      53.007  34.014  53.632  0.00  0.00     0.343 A 
ATOM      8  C   UNL d   1      52.196  33.292  52.702  0.00  0.00     0.288 A 
ATOM      9  N   UNL d   1      50.837  33.911  52.471  0.00  0.00    -0.130 N 
ATOM     10  O   UNL d   1      53.714  34.098  54.047  0.00  0.00    -0.245 OA
ATOM     11  O   UNL d   1      52.092  32.654  52.187  0.00  0.00    -0.265 OA
ATOM     12  C   UNL d   1      52.508  35.204  54.246  0.00  0.00     0.105 C 
ATOM     13  C   UNL d   1      50.497  33.396  51.927  0.00  0.00     0.118 C 
ENDROOT
BRANCH   4  14
ATOM     14  C   UNL d   1      53.510  32.821  53.018  0.00  0.00     0.087 C 
BRANCH  14  15
ATOM     15  C   UNL d   1      53.475  32.098  53.411  0.00  0.00     0.019 A 
ATOM     16  C   UNL d   1      53.301  31.402  52.986  0.00  0.00     0.014 A 
ATOM     17  C   UNL d   1      53.266  30.678  53.379  0.00  0.00     0.068 A 
ATOM     18 CL   UNL d   1      53.095  29.990  52.958  0.00  0.00    -0.082 Cl
ATOM     19  C   UNL d   1      53.401  30.642  54.185  0.00  0.00     0.068 A 
ATOM     20  C   UNL d   1      53.576  31.342  54.614  0.00  0.00     0.012 A 
ATOM     21 CL   UNL d   1      53.367  29.918  54.578  0.00  0.00    -0.082 Cl
ATOM     22  C   UNL d   1      53.609  32.062  54.213  0.00  0.00     0.002 A 
ENDBRANCH  14  15
ENDBRANCH   4  14
BRANCH   3  23
ATOM     23  N   UNL d   1      49.728  34.867  52.610  0.00  0.00    -0.059 N 
ATOM     24  N   UNL d   1      49.363  34.833  51.872  0.00  0.00    -0.151 NA
ATOM     25  C   UNL d   1      48.608  35.173  51.943  0.00  0.00     0.103 A 
ATOM     26  C   UNL d   1      48.053  35.253  51.334  0.00  0.00     0.022 C 
ATOM     27  C   UNL d   1      48.518  35.415  52.729  0.00  0.00     0.041 A 
ATOM     28  C   UNL d   1      49.209  35.224  53.135  0.00  0.00     0.102 A 
ATOM     29  C   UNL d   1      49.353  35.369  53.937  0.00  0.00     0.021 C 
ENDBRANCH   3  23
TORSDOF 3
ENDMDL
MODEL 4
REMARK VINA RESULT:      -6.5      3.568      6.282
REMARK  3 active torsions:
REMARK  status: ('A' for Active; 'I' for Inactive)
REMARK    1  A    between atoms: N_10  and  C_3 
REMARK    2  A    between atoms: C_15  and  N_4 
REMARK    3  A    between atoms: C_20  and  C_15 
ROOT
ATOM      1  C   UNL d   1      49.001  34.858  51.937  0.00  0.00     0.191 A 
ATOM      2  C   UNL d   1      48.934  35.290  52.642  0.00  0.00     0.173 A 
ATOM      3  C   UNL d   1      50.094  34.630  52.659  0.00  0.00     0.738 A 
ATOM      4  N   UNL d   1      47.665  35.780  52.209  0.00  0.00    -0.224 N 
ATOM      5  N   UNL d   1      49.717  34.452  51.949  0.00  0.00    -0.041 NA
ATOM      6  N   UNL d   1      48.405  34.887  51.372  0.00  0.00    -0.240 N 
ATOM      7  C   UNL d   1      47.736  35.349  51.508  0.00  0.00     0.343 A 
ATOM      8  C   UNL d   1      48.264  35.750  52.774  0.00  0.00     0.288 A 
ATOM      9  N   UNL d   1      49.613  35.147  53.089  0.00  0.00    -0.130 N 
ATOM     10  O   UNL d   1      47.136  35.379  50.942  0.00  0.00    -0.245 OA
ATOM     11  O   UNL d   1      48.194  36.182  53.475  0.00  0.00    -0.265 OA
ATOM     12  C   UNL d   1      48.475  34.456  50.672  0.00  0.00     0.105 C 
ATOM     13  C   UNL d   1      49.781  35.464  53.830  0.00  0.00     0.118 C 
ENDROOT
BRANCH   4  14
ATOM     14  C   UNL d   1      46.992  36.243  52.342  0.00  0.00     0.087 C 
BRANCH  14  15
ATOM     15  C   UNL d   1      46.322  35.907  52.684  0.00  0.00     0.019 A 
ATOM     16  C   UNL d   1      46.217  35.936  53.511  0.00  0.00     0.014 A 
ATOM     17  C   UNL d   1      45.547  35.600  53.853  0.00  0.00     0.068 A 
ATOM     18 CL   UNL d   1      45.444  35.629  54.670  0.00  0.00    -0.082 Cl
ATOM     19  C   UNL d   1      44.984  35.237  53.382  0.00  0.00     0.068 A 
ATOM     20  C   UNL d   1      45.088  35.207  52.550  0.00  0.00     0.012 A 
ATOM     21 CL   UNL d   1      44.314  34.901  53.724  0.00  0.00    -0.082 Cl
ATOM     22  C   UNL d   1      45.762  35.547  52.215  0.00  0.00     0.002 A 
ENDBRANCH  14  15
ENDBRANCH   4  14
BRANCH   3  23
ATOM     23  N   UNL d   1      50.829  34.341  52.901  0.00  0.00    -0.059 N 
ATOM     24  N   UNL d   1      51.531  34.770  52.924  0.00  0.00    -0.151 NA
ATOM     25  C   UNL d   1      52.131  34.266  53.201  0.00  0.00     0.103 A 
ATOM     26  C   UNL d   1      52.926  34.472  53.310  0.00  0.00     0.022 C 
ATOM     27  C   UNL d   1      51.788  33.528  53.346  0.00  0.00     0.041 A 
ATOM     28  C   UNL d   1      50.986  33.579  53.160  0.00  0.00     0.102 A 
ATOM     29  C   UNL d   1      50.437  32.965  53.224  0.00  0.00     0.021 C 
ENDBRANCH   3  23
TORSDOF 3
ENDMDL
MODEL 5
REMARK VINA RESULT:      -6.1      2.506      4.929
REMARK  3 active torsions:
REMARK  status: ('A' for Active; 'I' for Inactive)
REMARK    1  A    between atoms: N_10  and  C_3 
REMARK    2  A    between atoms: C_15  and  N_4 
REMARK    3  A    between atoms: C_20  and  C_15 
ROOT
ATOM      1  C   UNL d   1      51.869  33.219  53.428  0.00  0.00     0.191 A 
ATOM      2  C   UNL d   1      52.036  34.004  53.216  0.00  0.00     0.173 A 
ATOM      3  C   UNL d   1      53.062  33.529  53.927  0.00  0.00     0.738 A 
ATOM      4  N   UNL d   1      50.782  34.077  52.540  0.00  0.00    -0.224 N 
ATOM      5  N   UNL d   1      52.503  32.928  53.865  0.00  0.00    -0.041 NA
ATOM      6  N   UNL d   1      51.165  32.866  53.196  0.00  0.00    -0.240 N 
ATOM      7  C   UNL d   1      50.619  33.295  52.752  0.00  0.00     0.343 A 
ATOM      8  C   UNL d   1      51.489  34.430  52.772  0.00  0.00     0.288 A 
ATOM      9  N   UNL d   1      52.777  34.195  53.527  0.00  0.00    -0.130 N 
ATOM     10  O   UNL d   1      49.911  32.943  52.519  0.00  0.00    -0.245 OA
ATOM     11  O   UNL d   1      51.652  35.211  52.560  0.00  0.00    -0.265 OA
ATOM     12  C   UNL d   1      51.002  32.085  53.408  0.00  0.00     0.105 C 
ATOM     13  C   UNL d   1      53.161  34.919  53.452  0.00  0.00     0.118 C 
ENDROOT
BRANCH   4  14
ATOM     14  C   UNL d   1      50.232  34.506  52.093  0.00  0.00     0.087 C 
BRANCH  14  15
ATOM     15  C   UNL d   1      49.608  34.892  52.468  0.00  0.00     0.019 A 
ATOM     16  C   UNL d   1      48.909  35.060  52.045  0.00  0.00     0.014 A 
ATOM     17  C   UNL d   1      48.284  35.446  52.419  0.00  0.00     0.068 A 
ATOM     18 CL   UNL d   1      47.594  35.611  52.001  0.00  0.00    -0.082 Cl
ATOM     19  C   UNL d   1      48.349  35.664  53.205  0.00  0.00     0.068 A 
ATOM     20  C   UNL d   1      49.051  35.495  53.632  0.00  0.00     0.012 A 
ATOM     21 CL   UNL d   1      47.724  36.049  53.580  0.00  0.00    -0.082 Cl
ATOM     22  C   UNL d   1      49.672  35.109  53.250  0.00  0.00     0.002 A 
ENDBRANCH  14  15
ENDBRANCH   4  14
BRANCH   3  23
ATOM     23  N   UNL d   1      53.786  33.477  54.321  0.00  0.00    -0.059 N 
ATOM     24  N   UNL d   1      53.982  33.862  55.022  0.00  0.00    -0.151 NA
ATOM     25  C   UNL d   1      54.762  33.654  55.220  0.00  0.00     0.103 A 
ATOM     26  C   UNL d   1      55.180  33.917  55.885  0.00  0.00     0.022 C 
ATOM     27  C   UNL d   1      55.038  33.140  54.634  0.00  0.00     0.041 A 
ATOM     28  C   UNL d   1      54.434  33.035  54.083  0.00  0.00     0.102 A 
ATOM     29  C   UNL d   1      54.477  32.562  53.406  0.00  0.00     0.021 C 
ENDBRANCH   3  23
TORSDOF 3
ENDMDL
MODEL 6
REMARK VINA RESULT:      -5.3      2.617      5.226
REMARK  3 active torsions:
REMARK  status: ('A' for Active; 'I' for Inactive)
REMARK    1  A    between atoms: N_10  and  C_3 
REMARK    2  A    between atoms: C_15  and  N_4 
REMARK    3  A    between atoms: C_20  and  C_15 
ROOT
ATOM      1  C   UNL d   1      52.266  33.489  53.138  0.00  0.00     0.191 A 
ATOM      2  C   UNL d   1      51.556  33.083  53.278  0.00  0.00     0.173 A 
ATOM      3  C   UNL d   1      52.553  32.195  53.244  0.00  0.00     0.738 A 
ATOM      4  N   UNL d   1      50.851  34.322  53.234  0.00  0.00    -0.224 N 
ATOM      5  N   UNL d   1      52.879  32.940  53.117  0.00  0.00    -0.041 NA
ATOM      6  N   UNL d   1      52.268  34.305  53.046  0.00  0.00    -0.240 N 
ATOM      7  C   UNL d   1      51.559  34.723  53.095  0.00  0.00     0.343 A 
ATOM      8  C   UNL d   1      50.851  33.503  53.326  0.00  0.00     0.288 A 
ATOM      9  N   UNL d   1      51.736  32.280  53.344  0.00  0.00    -0.130 N 
ATOM     10  O   UNL d   1      51.559  35.543  53.003  0.00  0.00    -0.245 OA
ATOM     11  O   UNL d   1      50.142  33.102  53.465  0.00  0.00    -0.265 OA
ATOM     12  C   UNL d   1      52.976  34.706  52.907  0.00  0.00     0.105 C 
ATOM     13  C   UNL d   1      51.198  31.673  53.483  0.00  0.00     0.118 C 
ENDROOT
BRANCH   4  14
ATOM     14  C   UNL d   1      50.140  34.745  53.282  0.00  0.00     0.087 C 
BRANCH  14  15
ATOM     15  C   UNL d   1      49.639  34.785  52.629  0.00  0.00     0.019 A 
ATOM     16  C   UNL d   1      48.897  35.158  52.696  0.00  0.00     0.014 A 
ATOM     17  C   UNL d   1      48.395  35.198  52.043  0.00  0.00     0.068 A 
ATOM     18 CL   UNL d   1      47.662  35.567  52.110  0.00  0.00    -0.082 Cl
ATOM     19  C   UNL d   1      48.626  34.873  51.329  0.00  0.00     0.068 A 
ATOM     20  C   UNL d   1      49.374  34.498  51.259  0.00  0.00     0.012 A 
ATOM     21 CL   UNL d   1      48.126  34.913  50.675  0.00  0.00    -0.082 Cl
ATOM     22  C   UNL d   1      49.869  34.461  51.918  0.00  0.00     0.002 A 
ENDBRANCH  14  15
ENDBRANCH   4  14
BRANCH   3  23
ATOM     23  N   UNL d   1      52.970  31.482  53.267  0.00  0.00    -0.059 N 
ATOM     24  N   UNL d   1      52.767  30.792  52.867  0.00  0.00    -0.151 NA
ATOM     25  C   UNL d   1      53.337  30.214  53.047  0.00  0.00     0.103 A 
ATOM     26  C   UNL d   1      53.346  29.437  52.762  0.00  0.00     0.022 C 
ATOM     27  C   UNL d   1      53.887  30.559  53.560  0.00  0.00     0.041 A 
ATOM     28  C   UNL d   1      53.656  31.339  53.693  0.00  0.00     0.102 A 
ATOM     29  C   UNL d   1      54.053  31.883  54.174  0.00  0.00     0.021 C 
ENDBRANCH   3  23
TORSDOF 3
ENDMDL
