MODEL 1
REMARK VINA RESULT:       1.5      0.000      0.000
REMARK  9 active torsions:
REMARK  status: ('A' for Active; 'I' for Inactive)
REMARK    1  A    between atoms: C_19  and  N_1 
REMARK    2  A    between atoms: S_10  and  C_2 
REMARK    3  A    between atoms: N_8  and  C_9 
REMARK    4  A    between atoms: C_20  and  S_10 
REMARK    5  A    between atoms: C_11  and  C_20 
REMARK       I    between atoms: N_13  and  C_11 
REMARK    6  A    between atoms: C_15  and  N_13 
REMARK    7  A    between atoms: C_32  and  C_19 
REMARK    8  A    between atoms: O_25  and  C_22 
REMARK    9  A    between atoms: C_33  and  C_32 
ROOT
ATOM      1  N   UNL d   1      58.020   0.654  32.474  0.00  0.00    -0.253 N 
ATOM      2  C   UNL d   1      57.566   0.648  31.783  0.00  0.00     0.182 A 
ATOM      3  C   UNL d   1      57.660   0.652  33.206  0.00  0.00     0.268 A 
ATOM      4  C   UNL d   1      56.833   0.644  33.249  0.00  0.00     0.076 A 
ATOM      5  N   UNL d   1      56.752   0.640  31.822  0.00  0.00    -0.222 NA
ATOM      6  C   UNL d   1      56.381   0.637  32.561  0.00  0.00     0.088 A 
ATOM      7  C   UNL d   1      56.477   0.641  33.978  0.00  0.00     0.024 A 
ATOM      8  C   UNL d   1      55.644   0.633  34.034  0.00  0.00     0.065 A 
ATOM      9  O   UNL d   1      58.114   0.658  33.898  0.00  0.00    -0.267 OA
ATOM     10  C   UNL d   1      55.564   0.629  32.602  0.00  0.00     0.021 A 
ATOM     11  C   UNL d   1      55.200   0.627  33.336  0.00  0.00     0.019 A 
ENDROOT
BRANCH   2  12
ATOM     12  S   UNL d   1      57.944   0.650  31.033  0.00  0.00    -0.044 SA
BRANCH  12  13
ATOM     13  C   UNL d   1      57.641   0.194  30.419  0.00  0.00     0.101 C 
BRANCH  13  14
ATOM     14  C   UNL d   1      58.149  -0.146  29.872  0.00  0.00     0.286 C 
ATOM     15  N   UNL d   1      58.909  -0.342  30.089  0.00  0.00    -0.207 NA
ATOM     16  O   UNL d   1      57.891  -0.291  29.102  0.00  0.00    -0.265 OA
BRANCH  15  17
ATOM     17  C   UNL d   1      59.429  -0.687  29.540  0.00  0.00     0.087 A 
ATOM     18  C   UNL d   1      59.411  -1.504  29.439  0.00  0.00     0.043 A 
ATOM     19  C   UNL d   1      59.930  -1.848  28.891  0.00  0.00     0.096 A 
ATOM     20  C   UNL d   1      60.450  -1.383  28.459  0.00  0.00     0.024 A 
ATOM     21  C   UNL d   1      60.459  -0.565  28.569  0.00  0.00     0.004 A 
ATOM     22  C   UNL d   1      59.948  -0.221  29.109  0.00  0.00     0.019 A 
BRANCH  19  23
ATOM     23  O   UNL d   1      59.918  -2.678  28.783  0.00  0.00    -0.328 OA
ATOM     24  C   UNL d   1      59.242  -3.048  28.517  0.00  0.00     0.181 C 
ENDBRANCH  19  23
ENDBRANCH  15  17
ENDBRANCH  13  14
ENDBRANCH  12  13
ENDBRANCH   2  12
BRANCH   1  25
ATOM     25  C   UNL d   1      58.853   0.662  32.418  0.00  0.00     0.085 C 
BRANCH  25  26
ATOM     26  C   UNL d   1      59.303   0.608  33.100  0.00  0.00     0.019 C 
BRANCH  26  27
ATOM     27  C   UNL d   1      60.075   0.315  33.064  0.00  0.00     0.002 C 
ATOM     28  C   UNL d   1      60.673   0.678  33.507  0.00  0.00     0.000 C 
ENDBRANCH  26  27
ENDBRANCH  25  26
ENDBRANCH   1  25
BRANCH   8  29
ATOM     29  N   UNL d   1      55.271   0.631  34.769  0.00  0.00    -0.300 N 
ATOM     30  C   UNL d   1      54.442   0.640  34.809  0.00  0.00     0.107 A 
ATOM     31  C   UNL d   1      54.079   0.637  35.552  0.00  0.00     0.142 A 
ATOM     32  O   UNL d   1      54.536   0.626  36.248  0.00  0.00    -0.300 OA
ATOM     33  C   UNL d   1      55.365   0.617  36.193  0.00  0.00     0.142 A 
ATOM     34  C   UNL d   1      55.736   0.620  35.455  0.00  0.00     0.107 A 
ENDBRANCH   8  29
TORSDOF 9
ENDMDL
