MODEL 1
REMARK VINA RESULT:      29.5      0.000      0.000
REMARK  3 active torsions:
REMARK  status: ('A' for Active; 'I' for Inactive)
REMARK    1  A    between atoms: C_8  and  C_2 
REMARK    2  A    between atoms: N_9  and  C_8 
REMARK    3  A    between atoms: C_20  and  C_13 
ROOT
ATOM      1  C   UNL d   1      46.292 -17.814  42.972  0.00  0.00     0.108 A 
ATOM      2  C   UNL d   1      46.243 -17.248  43.573  0.00  0.00     0.079 A 
ATOM      3  O   UNL d   1      46.190 -17.606  42.194  0.00  0.00    -0.273 OA
ATOM      4  C   UNL d   1      46.239 -18.172  41.590  0.00  0.00     0.300 A 
ATOM      5  C   UNL d   1      46.500 -19.177  42.590  0.00  0.00     0.007 A 
ATOM      6  C   UNL d   1      46.447 -18.599  43.170  0.00  0.00     0.023 A 
ATOM      7  C   UNL d   1      46.395 -18.966  41.790  0.00  0.00     0.064 A 
ATOM      8  C   UNL d   1      46.553 -18.821  43.960  0.00  0.00     0.005 A 
ATOM      9  C   UNL d   1      46.345 -17.454  44.358  0.00  0.00     0.199 A 
ATOM     10  O   UNL d   1      46.136 -17.969  40.796  0.00  0.00    -0.259 OA
ATOM     11  C   UNL d   1      46.501 -18.239  44.556  0.00  0.00     0.042 A 
ATOM     12  C   UNL d   1      46.645 -19.984  42.625  0.00  0.00     0.000 A 
ATOM     13  C   UNL d   1      46.479 -19.655  41.337  0.00  0.00     0.005 A 
ATOM     14  O   UNL d   1      46.296 -16.889  44.955  0.00  0.00    -0.286 OA
ATOM     15  C   UNL d   1      46.632 -20.284  41.843  0.00  0.00     0.000 A 
ENDROOT
BRANCH   2  16
ATOM     16  C   UNL d   1      46.086 -16.457  43.364  0.00  0.00     0.085 C 
BRANCH  16  17
ATOM     17  N   UNL d   1      45.669 -15.962  43.873  0.00  0.00    -0.304 N 
ATOM     18  C   UNL d   1      45.845 -15.178  43.891  0.00  0.00     0.064 A 
ATOM     19  C   UNL d   1      45.428 -14.683  44.400  0.00  0.00     0.018 A 
ATOM     20  C   UNL d   1      44.836 -14.995  44.886  0.00  0.00     0.003 A 
ATOM     21  C   UNL d   1      44.668 -15.781  44.860  0.00  0.00     0.019 A 
ATOM     22  C   UNL d   1      45.086 -16.276  44.350  0.00  0.00     0.080 A 
BRANCH  18  23
ATOM     23  C   UNL d   1      46.432 -14.864  43.410  0.00  0.00     0.018 C 
ATOM     24  C   UNL d   1      46.388 -14.092  43.137  0.00  0.00     0.002 C 
ENDBRANCH  18  23
ENDBRANCH  16  17
ENDBRANCH   2  16
TORSDOF 3
ENDMDL
