MODEL 1
REMARK VINA RESULT:      -4.7      0.000      0.000
REMARK  1 active torsions:
REMARK  status: ('A' for Active; 'I' for Inactive)
REMARK    1  A    between atoms: C_6  and  C_1 
ROOT
ATOM      1  C   UNL d   1     -41.541-122.662 -53.942  0.00  0.00     0.085 A 
ATOM      2  C   UNL d   1     -41.339-123.443 -54.132  0.00  0.00     0.137 A 
ATOM      3  C   UNL d   1     -41.478-122.563 -53.142  0.00  0.00     0.013 A 
ATOM      4  C   UNL d   1     -41.237-123.281 -52.832  0.00  0.00     0.031 A 
ATOM      5  S   UNL d   1     -41.154-123.817 -53.454  0.00  0.00    -0.066 SA
ATOM      6  C   UNL d   1     -41.607-121.914 -52.647  0.00  0.00     0.001 A 
ATOM      7  C   UNL d   1     -41.124-123.359 -52.038  0.00  0.00     0.006 A 
ATOM      8  N   UNL d   1     -41.327-123.799 -54.918  0.00  0.00    -0.141 N 
ATOM      9  C   UNL d   1     -41.498-121.980 -51.855  0.00  0.00     0.000 A 
ATOM     10  C   UNL d   1     -41.246-122.734 -51.541  0.00  0.00     0.001 A 
ATOM     11  C   UNL d   1     -41.123-122.822 -50.685  0.00  0.00     0.000 C 
ENDROOT
BRANCH   1  12
ATOM     12  C   UNL d   1     -41.772-122.080 -54.506  0.00  0.00     0.299 C 
ATOM     13  O   UNL d   1     -41.204-121.617 -54.875  0.00  0.00    -0.264 OA
ATOM     14  N   UNL d   1     -42.591-121.965 -54.700  0.00  0.00    -0.102 N 
ENDBRANCH   1  12
TORSDOF 1
ENDMDL
MODEL 2
REMARK VINA RESULT:      -4.5      1.892      2.733
REMARK  1 active torsions:
REMARK  status: ('A' for Active; 'I' for Inactive)
REMARK    1  A    between atoms: C_6  and  C_1 
ROOT
ATOM      1  C   UNL d   1     -41.534-122.674 -51.999  0.00  0.00     0.085 A 
ATOM      2  C   UNL d   1     -41.255-123.442 -51.860  0.00  0.00     0.137 A 
ATOM      3  C   UNL d   1     -41.575-122.551 -52.796  0.00  0.00     0.013 A 
ATOM      4  C   UNL d   1     -41.323-123.242 -53.157  0.00  0.00     0.031 A 
ATOM      5  S   UNL d   1     -41.128-123.786 -52.568  0.00  0.00    -0.066 SA
ATOM      6  C   UNL d   1     -41.809-121.902 -53.251  0.00  0.00     0.001 A 
ATOM      7  C   UNL d   1     -41.301-123.292 -53.961  0.00  0.00     0.006 A 
ATOM      8  N   UNL d   1     -41.123-123.816 -51.093  0.00  0.00    -0.141 N 
ATOM      9  C   UNL d   1     -41.792-121.940 -54.052  0.00  0.00     0.000 A 
ATOM     10  C   UNL d   1     -41.527-122.665 -54.419  0.00  0.00     0.001 A 
ATOM     11  C   UNL d   1     -41.503-122.723 -55.286  0.00  0.00     0.000 C 
ENDROOT
BRANCH   1  12
ATOM     12  C   UNL d   1     -41.736-122.125 -51.392  0.00  0.00     0.299 C 
ATOM     13  O   UNL d   1     -42.489-122.130 -51.068  0.00  0.00    -0.264 OA
ATOM     14  N   UNL d   1     -41.165-121.563 -51.109  0.00  0.00    -0.102 N 
ENDBRANCH   1  12
TORSDOF 1
ENDMDL
MODEL 3
REMARK VINA RESULT:      -3.0      3.212      4.027
REMARK  1 active torsions:
REMARK  status: ('A' for Active; 'I' for Inactive)
REMARK    1  A    between atoms: C_6  and  C_1 
ROOT
ATOM      1  C   UNL d   1     -42.296-122.909 -49.584  0.00  0.00     0.085 A 
ATOM      2  C   UNL d   1     -41.651-123.380 -49.363  0.00  0.00     0.137 A 
ATOM      3  C   UNL d   1     -42.157-122.603 -50.319  0.00  0.00     0.013 A 
ATOM      4  C   UNL d   1     -41.425-122.882 -50.558  0.00  0.00     0.031 A 
ATOM      5  S   UNL d   1     -41.123-123.362 -49.958  0.00  0.00    -0.066 SA
ATOM      6  C   UNL d   1     -42.596-122.104 -50.810  0.00  0.00     0.001 A 
ATOM      7  C   UNL d   1     -41.128-122.672 -51.276  0.00  0.00     0.006 A 
ATOM      8  N   UNL d   1     -41.557-123.817 -48.625  0.00  0.00    -0.141 N 
ATOM      9  C   UNL d   1     -42.311-121.887 -51.528  0.00  0.00     0.000 A 
ATOM     10  C   UNL d   1     -41.547-122.184 -51.768  0.00  0.00     0.001 A 
ATOM     11  C   UNL d   1     -41.224-121.959 -52.543  0.00  0.00     0.000 C 
ENDROOT
BRANCH   1  12
ATOM     12  C   UNL d   1     -42.978-122.782 -49.105  0.00  0.00     0.299 C 
ATOM     13  O   UNL d   1     -42.961-122.222 -48.506  0.00  0.00    -0.264 OA
ATOM     14  N   UNL d   1     -43.689-123.230 -49.235  0.00  0.00    -0.102 N 
ENDBRANCH   1  12
TORSDOF 1
ENDMDL
