MODEL 1
REMARK VINA RESULT:      -0.2      0.000      0.000
REMARK  6 active torsions:
REMARK  status: ('A' for Active; 'I' for Inactive)
REMARK    1  A    between atoms: C_21  and  N_1 
REMARK       I    between atoms: N_7  and  C_10 
REMARK    2  A    between atoms: C_15  and  N_8 
REMARK    3  A    between atoms: C_10  and  C_27 
REMARK    4  A    between atoms: C_29  and  C_21 
REMARK    5  A    between atoms: O_28  and  C_24 
REMARK    6  A    between atoms: C_27  and  C_29 
ROOT
ATOM      1  N   UNL d   1      31.642  17.490 -23.774  0.00  0.00    -0.269 N 
ATOM      2  N   UNL d   1      30.154  16.820 -23.848  0.00  0.00    -0.301 N 
ATOM      3  C   UNL d   1      32.400  17.841 -23.739  0.00  0.00     0.265 C 
ATOM      4  C   UNL d   1      31.557  16.696 -23.608  0.00  0.00     0.102 A 
ATOM      5  C   UNL d   1      31.002  17.964 -23.978  0.00  0.00     0.102 A 
ATOM      6  C   UNL d   1      30.807  16.349 -23.643  0.00  0.00     0.100 A 
ATOM      7  C   UNL d   1      30.244  17.613 -24.013  0.00  0.00     0.100 A 
ATOM      8  O   UNL d   1      33.067  17.389 -23.536  0.00  0.00    -0.267 OA
ENDROOT
BRANCH   3   9
ATOM      9  C   UNL d   1      32.467  18.652 -23.912  0.00  0.00     0.063 C 
BRANCH   9  10
ATOM     10  C   UNL d   1      32.812  19.152 -23.333  0.00  0.00     0.024 C 
BRANCH  10  11
ATOM     11  C   UNL d   1      33.227  19.834 -23.586  0.00  0.00     0.088 C 
BRANCH  11  12
ATOM     12  N   UNL d   1      33.230  20.520 -23.110  0.00  0.00    -0.224 N 
ATOM     13  C   UNL d   1      33.227  20.460 -22.276  0.00  0.00     0.276 A 
ATOM     14  C   UNL d   1      33.230  21.147 -21.819  0.00  0.00     0.104 A 
ATOM     15  O   UNL d   1      33.220  19.728 -21.925  0.00  0.00    -0.266 OA
ATOM     16  S   UNL d   1      33.228  21.259 -21.005  0.00  0.00    -0.080 SA
ATOM     17  C   UNL d   1      33.237  21.892 -22.178  0.00  0.00     0.097 A 
ATOM     18  C   UNL d   1      33.233  22.056 -20.872  0.00  0.00     0.037 A 
ATOM     19  C   UNL d   1      33.239  22.459 -21.587  0.00  0.00     0.027 A 
ATOM     20  N   UNL d   1      33.241  21.951 -23.000  0.00  0.00    -0.191 NA
ATOM     21  C   UNL d   1      33.237  21.273 -23.468  0.00  0.00     0.356 A 
ATOM     22  O   UNL d   1      33.241  21.325 -24.302  0.00  0.00    -0.244 OA
ENDBRANCH  11  12
ENDBRANCH  10  11
ENDBRANCH   9  10
ENDBRANCH   3   9
BRANCH   2  23
ATOM     23  C   UNL d   1      29.398  16.485 -23.887  0.00  0.00     0.064 A 
ATOM     24  C   UNL d   1      28.841  16.600 -23.290  0.00  0.00     0.020 A 
ATOM     25  C   UNL d   1      28.099  16.265 -23.339  0.00  0.00     0.026 A 
ATOM     26  C   UNL d   1      27.892  15.805 -23.990  0.00  0.00     0.094 A 
ATOM     27  C   UNL d   1      28.452  15.689 -24.591  0.00  0.00     0.026 A 
ATOM     28  C   UNL d   1      29.203  16.026 -24.543  0.00  0.00     0.020 A 
BRANCH  26  29
ATOM     29  O   UNL d   1      27.146  15.453 -24.066  0.00  0.00    -0.328 OA
ATOM     30  C   UNL d   1      26.566  15.604 -23.485  0.00  0.00     0.181 C 
ENDBRANCH  26  29
ENDBRANCH   2  23
TORSDOF 6
ENDMDL
MODEL 2
REMARK VINA RESULT:       0.4      2.447      6.502
REMARK  6 active torsions:
REMARK  status: ('A' for Active; 'I' for Inactive)
REMARK    1  A    between atoms: C_21  and  N_1 
REMARK       I    between atoms: N_7  and  C_10 
REMARK    2  A    between atoms: C_15  and  N_8 
REMARK    3  A    between atoms: C_10  and  C_27 
REMARK    4  A    between atoms: C_29  and  C_21 
REMARK    5  A    between atoms: O_28  and  C_24 
REMARK    6  A    between atoms: C_27  and  C_29 
ROOT
ATOM      1  N   UNL d   1      32.678  21.752 -22.138  0.00  0.00    -0.269 N 
ATOM      2  N   UNL d   1      32.695  22.383 -20.632  0.00  0.00    -0.301 N 
ATOM      3  C   UNL d   1      32.676  21.424 -22.907  0.00  0.00     0.265 C 
ATOM      4  C   UNL d   1      32.133  22.326 -21.943  0.00  0.00     0.102 A 
ATOM      5  C   UNL d   1      33.237  21.481 -21.600  0.00  0.00     0.102 A 
ATOM      6  C   UNL d   1      32.134  22.651 -21.182  0.00  0.00     0.100 A 
ATOM      7  C   UNL d   1      33.239  21.809 -20.831  0.00  0.00     0.100 A 
ATOM      8  O   UNL d   1      32.124  21.677 -23.474  0.00  0.00    -0.267 OA
ENDROOT
BRANCH   3   9
ATOM      9  C   UNL d   1      33.241  20.839 -23.088  0.00  0.00     0.063 C 
BRANCH   9  10
ATOM     10  C   UNL d   1      33.028  20.240 -23.635  0.00  0.00     0.024 C 
BRANCH  10  11
ATOM     11  C   UNL d   1      33.196  19.443 -23.443  0.00  0.00     0.088 C 
BRANCH  11  12
ATOM     12  N   UNL d   1      32.806  18.826 -23.850  0.00  0.00    -0.224 N 
ATOM     13  C   UNL d   1      32.527  18.154 -23.440  0.00  0.00     0.276 A 
ATOM     14  C   UNL d   1      32.144  17.554 -23.857  0.00  0.00     0.104 A 
ATOM     15  O   UNL d   1      32.635  18.098 -22.637  0.00  0.00    -0.266 OA
ATOM     16  S   UNL d   1      31.816  16.842 -23.608  0.00  0.00    -0.080 SA
ATOM     17  C   UNL d   1      32.034  17.611 -24.674  0.00  0.00     0.097 A 
ATOM     18  C   UNL d   1      31.515  16.475 -24.261  0.00  0.00     0.037 A 
ATOM     19  C   UNL d   1      31.642  16.938 -24.926  0.00  0.00     0.027 A 
ATOM     20  N   UNL d   1      32.310  18.274 -25.079  0.00  0.00    -0.191 NA
ATOM     21  C   UNL d   1      32.694  18.881 -24.675  0.00  0.00     0.356 A 
ATOM     22  O   UNL d   1      32.976  19.556 -25.078  0.00  0.00    -0.244 OA
ENDBRANCH  11  12
ENDBRANCH  10  11
ENDBRANCH   9  10
ENDBRANCH   3   9
BRANCH   2  23
ATOM     23  C   UNL d   1      32.709  22.699 -19.867  0.00  0.00     0.064 A 
ATOM     24  C   UNL d   1      32.317  23.400 -19.679  0.00  0.00     0.020 A 
ATOM     25  C   UNL d   1      32.337  23.702 -18.923  0.00  0.00     0.026 A 
ATOM     26  C   UNL d   1      32.751  23.310 -18.328  0.00  0.00     0.094 A 
ATOM     27  C   UNL d   1      33.146  22.604 -18.516  0.00  0.00     0.026 A 
ATOM     28  C   UNL d   1      33.126  22.298 -19.281  0.00  0.00     0.020 A 
BRANCH  26  29
ATOM     29  O   UNL d   1      32.788  23.594 -17.550  0.00  0.00    -0.328 OA
ATOM     30  C   UNL d   1      32.850  23.047 -16.923  0.00  0.00     0.181 C 
ENDBRANCH  26  29
ENDBRANCH   2  23
TORSDOF 6
ENDMDL
