MODEL 1
REMARK VINA RESULT:      12.5      0.000      0.000
REMARK  3 active torsions:
REMARK  status: ('A' for Active; 'I' for Inactive)
REMARK    1  A    between atoms: C_8  and  N_2 
REMARK    2  A    between atoms: C_6  and  C_3 
REMARK    3  A    between atoms: C_7  and  C_4 
ROOT
ATOM      1  N   UNL d   1      44.664 -13.283  42.952  0.00  0.00    -0.159 NA
ATOM      2  N   UNL d   1      45.152 -13.321  43.626  0.00  0.00    -0.234 N 
ATOM      3  C   UNL d   1      44.698 -12.529  42.663  0.00  0.00     0.167 A 
ATOM      4  C   UNL d   1      45.479 -12.586  43.739  0.00  0.00     0.062 A 
ATOM      5  C   UNL d   1      45.202 -12.086  43.145  0.00  0.00     0.042 A 
ENDROOT
BRANCH   2   6
ATOM      6  C   UNL d   1      45.255 -14.009  44.069  0.00  0.00     0.083 A 
ATOM      7  C   UNL d   1      44.636 -14.318  44.506  0.00  0.00     0.019 A 
ATOM      8  C   UNL d   1      44.744 -15.000  44.943  0.00  0.00     0.002 A 
ATOM      9  C   UNL d   1      45.467 -15.377  44.947  0.00  0.00     0.000 A 
ATOM     10  C   UNL d   1      46.085 -15.068  44.510  0.00  0.00     0.002 A 
ATOM     11  C   UNL d   1      45.982 -14.380  44.067  0.00  0.00     0.019 A 
ENDBRANCH   2   6
BRANCH   4  12
ATOM     12  C   UNL d   1      46.004 -12.362  44.348  0.00  0.00     0.036 C 
ATOM     13  C   UNL d   1      46.530 -12.140  44.955  0.00  0.00     0.006 C 
ATOM     14  C   UNL d   1      46.647 -12.637  43.892  0.00  0.00     0.006 C 
ATOM     15  C   UNL d   1      45.360 -12.089  44.799  0.00  0.00     0.006 C 
ENDBRANCH   4  12
BRANCH   3  16
ATOM     16  C   UNL d   1      44.295 -12.248  41.996  0.00  0.00     0.231 C 
ATOM     17  O   UNL d   1      43.482 -12.110  42.031  0.00  0.00    -0.643 OA
ATOM     18  O   UNL d   1      44.712 -12.108  41.302  0.00  0.00    -0.643 OA
ENDBRANCH   3  16
TORSDOF 3
ENDMDL
