MODEL 1
REMARK VINA RESULT:      12.6      0.000      0.000
REMARK  2 active torsions:
REMARK  status: ('A' for Active; 'I' for Inactive)
REMARK    1  A    between atoms: CA_2  and  C_1 
REMARK    2  A    between atoms: C_3  and  CA_2 
ROOT
ATOM      1  C   UNL d   1      59.108  49.695  50.566  0.00  0.00     0.025 A 
ATOM      2  C   UNL d   1      58.781  49.692  49.812  0.00  0.00     0.002 A 
ATOM      3  C   UNL d   1      58.615  49.702  51.234  0.00  0.00     0.002 A 
ATOM      4  C   UNL d   1      57.963  49.696  49.719  0.00  0.00     0.000 A 
ATOM      5  C   UNL d   1      57.797  49.707  51.141  0.00  0.00     0.000 A 
ATOM      6  C   UNL d   1      57.469  49.704  50.386  0.00  0.00     0.000 A 
ATOM      7  C   UNL d   1      56.648  49.708  50.291  0.00  0.00     0.000 C 
ENDROOT
BRANCH   1   8
ATOM      8  CA  UNL d   1      59.931  49.690  50.653  0.00  0.00     0.167 C 
ATOM      9  N   UNL d   1      60.416  49.708  49.979  0.00  0.00    -0.142 N 
BRANCH   8  10
ATOM     10  C   UNL d   1      60.273  49.669  51.403  0.00  0.00     0.231 C 
ATOM     11  O   UNL d   1      59.794  49.707  52.077  0.00  0.00    -0.643 OA
ATOM     12  OXT UNL d   1      61.090  49.610  51.483  0.00  0.00    -0.643 OA
ENDBRANCH   8  10
ENDBRANCH   1   8
TORSDOF 2
ENDMDL
MODEL 2
REMARK VINA RESULT:      12.8      0.917      1.291
REMARK  2 active torsions:
REMARK  status: ('A' for Active; 'I' for Inactive)
REMARK    1  A    between atoms: CA_2  and  C_1 
REMARK    2  A    between atoms: C_3  and  CA_2 
ROOT
ATOM      1  C   UNL d   1      58.782  49.702  50.799  0.00  0.00     0.025 A 
ATOM      2  C   UNL d   1      58.063  49.695  51.200  0.00  0.00     0.002 A 
ATOM      3  C   UNL d   1      58.794  49.708  49.969  0.00  0.00     0.002 A 
ATOM      4  C   UNL d   1      57.357  49.694  50.777  0.00  0.00     0.000 A 
ATOM      5  C   UNL d   1      58.089  49.706  49.546  0.00  0.00     0.000 A 
ATOM      6  C   UNL d   1      57.369  49.699  49.947  0.00  0.00     0.000 A 
ATOM      7  C   UNL d   1      56.660  49.698  49.524  0.00  0.00     0.000 C 
ENDROOT
BRANCH   1   8
ATOM      8  CA  UNL d   1      59.488  49.703  51.230  0.00  0.00     0.167 C 
ATOM      9  N   UNL d   1      59.464  49.708  52.060  0.00  0.00    -0.142 N 
BRANCH   8  10
ATOM     10  C   UNL d   1      60.216  49.700  50.841  0.00  0.00     0.231 C 
ATOM     11  O   UNL d   1      60.918  49.706  51.279  0.00  0.00    -0.643 OA
ATOM     12  OXT UNL d   1      60.244  49.690  50.019  0.00  0.00    -0.643 OA
ENDBRANCH   8  10
ENDBRANCH   1   8
TORSDOF 2
ENDMDL
MODEL 3
REMARK VINA RESULT:      13.6      1.531      2.674
REMARK  2 active torsions:
REMARK  status: ('A' for Active; 'I' for Inactive)
REMARK    1  A    between atoms: CA_2  and  C_1 
REMARK    2  A    between atoms: C_3  and  CA_2 
ROOT
ATOM      1  C   UNL d   1      58.943  49.690  50.334  0.00  0.00     0.025 A 
ATOM      2  C   UNL d   1      59.671  49.680  49.951  0.00  0.00     0.002 A 
ATOM      3  C   UNL d   1      58.909  49.701  51.163  0.00  0.00     0.002 A 
ATOM      4  C   UNL d   1      60.367  49.681  50.392  0.00  0.00     0.000 A 
ATOM      5  C   UNL d   1      59.604  49.702  51.604  0.00  0.00     0.000 A 
ATOM      6  C   UNL d   1      60.333  49.692  51.221  0.00  0.00     0.000 A 
ATOM      7  C   UNL d   1      61.032  49.692  51.662  0.00  0.00     0.000 C 
ENDROOT
BRANCH   1   8
ATOM      8  CA  UNL d   1      58.247  49.689  49.885  0.00  0.00     0.167 C 
ATOM      9  N   UNL d   1      58.292  49.696  49.056  0.00  0.00    -0.142 N 
BRANCH   8  10
ATOM     10  C   UNL d   1      57.510  49.681  50.255  0.00  0.00     0.231 C 
ATOM     11  O   UNL d   1      56.819  49.679  49.800  0.00  0.00    -0.643 OA
ATOM     12  OXT UNL d   1      57.461  49.674  51.077  0.00  0.00    -0.643 OA
ENDBRANCH   8  10
ENDBRANCH   1   8
TORSDOF 2
ENDMDL
