MODEL 1
REMARK VINA RESULT:      38.2      0.000      0.000
REMARK  2 active torsions:
REMARK  status: ('A' for Active; 'I' for Inactive)
REMARK    1  A    between atoms: C_10  and  C_1 
REMARK    2  A    between atoms: N_6  and  C_10 
ROOT
ATOM      1  C   UNL d   1      14.324  13.429  -1.996  0.00  0.00     0.025 A 
ATOM      2  C   UNL d   1      13.962  13.026  -2.620  0.00  0.00     0.025 A 
ATOM      3  C   UNL d   1      13.656  13.431  -3.256  0.00  0.00     0.013 A 
ATOM      4  C   UNL d   1      13.915  12.207  -2.589  0.00  0.00     0.103 A 
ATOM      5  O   UNL d   1      14.222  11.782  -1.949  0.00  0.00    -0.273 OA
ATOM      6  C   UNL d   1      13.300  13.028  -3.869  0.00  0.00     0.058 A 
ATOM      7  C   UNL d   1      14.582  12.193  -1.330  0.00  0.00     0.300 A 
ATOM      8  C   UNL d   1      14.635  13.012  -1.349  0.00  0.00     0.070 A 
ATOM      9  C   UNL d   1      13.249  12.205  -3.845  0.00  0.00     0.013 A 
ATOM     10  C   UNL d   1      13.559  11.796  -3.201  0.00  0.00     0.026 A 
ATOM     11  O   UNL d   1      14.890  11.781  -0.690  0.00  0.00    -0.259 OA
ATOM     12 CL   UNL d   1      12.989  13.441  -4.516  0.00  0.00    -0.082 Cl
ATOM     13  C   UNL d   1      13.708  14.254  -3.280  0.00  0.00     0.001 C 
ATOM     14  C   UNL d   1      12.887  11.794  -4.468  0.00  0.00     0.001 C 
ENDROOT
BRANCH   1  15
ATOM     15  C   UNL d   1      14.375  14.252  -2.020  0.00  0.00     0.080 C 
BRANCH  15  16
ATOM     16  N   UNL d   1      14.701  14.665  -1.378  0.00  0.00    -0.304 N 
ATOM     17  C   UNL d   1      14.923  15.455  -1.468  0.00  0.00     0.064 A 
ATOM     18  C   UNL d   1      14.826  15.840  -2.190  0.00  0.00     0.019 C 
ATOM     19  C   UNL d   1      15.244  15.857  -0.828  0.00  0.00     0.018 A 
ATOM     20  C   UNL d   1      15.345  15.480  -0.106  0.00  0.00     0.003 A 
ATOM     21  C   UNL d   1      15.122  14.691  -0.017  0.00  0.00     0.019 A 
ATOM     22  C   UNL d   1      14.799  14.278  -0.651  0.00  0.00     0.080 A 
ENDBRANCH  15  16
ENDBRANCH   1  15
TORSDOF 2
ENDMDL
