MODEL 1
REMARK VINA RESULT:      85.8      0.000      0.000
REMARK  5 active torsions:
REMARK  status: ('A' for Active; 'I' for Inactive)
REMARK    1  A    between atoms: C_2  and  S_1 
REMARK    2  A    between atoms: C_12  and  S_1 
REMARK    3  A    between atoms: N_5  and  C_3 
REMARK    4  A    between atoms: C_18  and  N_7 
REMARK    5  A    between atoms: O_22  and  C_20 
ROOT
ATOM      1  C   UNL d   1      45.987 -16.752  44.260  0.00  0.00     0.123 A 
ATOM      2  C   UNL d   1      45.928 -16.373  43.527  0.00  0.00     0.078 A 
ATOM      3  C   UNL d   1      45.868 -15.553  43.493  0.00  0.00     0.036 A 
ATOM      4  C   UNL d   1      45.986 -16.308  44.955  0.00  0.00     0.112 A 
ATOM      5  N   UNL d   1      45.926 -15.484  44.917  0.00  0.00    -0.243 NA
ATOM      6  C   UNL d   1      45.867 -15.108  44.188  0.00  0.00     0.083 A 
ATOM      7  C   UNL d   1      45.809 -15.177  42.762  0.00  0.00     0.027 A 
ATOM      8  C   UNL d   1      45.807 -14.288  44.152  0.00  0.00     0.021 A 
ATOM      9  C   UNL d   1      45.748 -14.349  42.723  0.00  0.00     0.094 A 
ATOM     10  C   UNL d   1      45.748 -13.905  43.417  0.00  0.00     0.026 A 
ENDROOT
BRANCH   2  11
ATOM     11  N   UNL d   1      45.928 -16.822  42.825  0.00  0.00    -0.301 N 
ATOM     12  C   UNL d   1      45.215 -17.131  42.533  0.00  0.00     0.100 A 
ATOM     13  C   UNL d   1      45.225 -17.577  41.834  0.00  0.00     0.100 A 
ATOM     14  N   UNL d   1      45.934 -17.713  41.432  0.00  0.00    -0.301 N 
ATOM     15  C   UNL d   1      46.647 -17.401  41.728  0.00  0.00     0.100 A 
ATOM     16  C   UNL d   1      46.638 -16.957  42.423  0.00  0.00     0.100 A 
BRANCH  14  17
ATOM     17  C   UNL d   1      45.934 -18.157  40.737  0.00  0.00     0.064 A 
ATOM     18  C   UNL d   1      46.398 -18.845  40.687  0.00  0.00     0.018 A 
ATOM     19  C   UNL d   1      46.401 -19.292  39.993  0.00  0.00     0.002 A 
ATOM     20  C   UNL d   1      45.944 -19.055  39.352  0.00  0.00     0.000 A 
ATOM     21  C   UNL d   1      45.483 -18.370  39.403  0.00  0.00     0.002 A 
ATOM     22  C   UNL d   1      45.482 -17.925  40.098  0.00  0.00     0.018 A 
ENDBRANCH  14  17
ENDBRANCH   2  11
BRANCH   1  23
ATOM     23  S   UNL d   1      46.048 -17.579  44.299  0.00  0.00     0.213 S 
ATOM     24  O   UNL d   1      45.521 -17.589  44.937  0.00  0.00    -0.217 OA
ATOM     25  O   UNL d   1      46.578 -17.574  43.656  0.00  0.00    -0.217 OA
BRANCH  23  26
ATOM     26  C   UNL d   1      46.108 -18.403  44.337  0.00  0.00     0.088 A 
ATOM     27  C   UNL d   1      45.697 -18.827  44.913  0.00  0.00     0.011 A 
ATOM     28  C   UNL d   1      45.755 -19.647  44.954  0.00  0.00     0.001 A 
ATOM     29  C   UNL d   1      46.233 -20.062  44.410  0.00  0.00     0.000 A 
ATOM     30  C   UNL d   1      46.647 -19.636  43.830  0.00  0.00     0.001 A 
ATOM     31  C   UNL d   1      46.581 -18.808  43.798  0.00  0.00     0.011 A 
ENDBRANCH  23  26
ENDBRANCH   1  23
BRANCH   9  32
ATOM     32  O   UNL d   1      45.689 -13.978  41.985  0.00  0.00    -0.328 OA
ATOM     33  C   UNL d   1      45.644 -13.153  41.948  0.00  0.00     0.181 C 
ENDBRANCH   9  32
TORSDOF 5
ENDMDL
