MODEL 1
REMARK VINA RESULT:      -8.5      0.000      0.000
REMARK  4 active torsions:
REMARK  status: ('A' for Active; 'I' for Inactive)
REMARK    1  A    between atoms: C_12  and  N_3 
REMARK    2  A    between atoms: C_13  and  N_10 
REMARK    3  A    between atoms: C_21  and  C_12 
REMARK    4  A    between atoms: C_16  and  C_13 
ROOT
ATOM      1  C   UNL d   1     -47.022  13.660  22.981  0.00  0.00     0.191 A 
ATOM      2  C   UNL d   1     -47.511  13.057  23.257  0.00  0.00     0.173 A 
ATOM      3  N   UNL d   1     -48.629  13.941  23.228  0.00  0.00    -0.224 N 
ATOM      4  N   UNL d   1     -46.256  13.356  22.912  0.00  0.00    -0.042 NA
ATOM      5  C   UNL d   1     -46.279  12.560  23.149  0.00  0.00     0.722 A 
ATOM      6  N   UNL d   1     -47.053  12.378  23.361  0.00  0.00    -0.131 N 
ATOM      7  N   UNL d   1     -47.341  14.410  22.827  0.00  0.00    -0.240 N 
ATOM      8  C   UNL d   1     -48.141  14.549  22.951  0.00  0.00     0.343 A 
ATOM      9  C   UNL d   1     -48.318  13.193  23.383  0.00  0.00     0.288 A 
ATOM     10  N   UNL d   1     -45.822  11.887  23.252  0.00  0.00    -0.135 N 
ATOM     11  C   UNL d   1     -47.071  11.593  23.593  0.00  0.00     0.118 A 
ATOM     12  O   UNL d   1     -48.460  15.300  22.797  0.00  0.00    -0.245 OA
ATOM     13  O   UNL d   1     -48.807  12.584  23.660  0.00  0.00    -0.265 OA
ATOM     14  C   UNL d   1     -46.314  11.281  23.529  0.00  0.00     0.118 A 
ATOM     15  C   UNL d   1     -46.853  15.018  22.550  0.00  0.00     0.105 C 
ENDROOT
BRANCH   3  16
ATOM     16  C   UNL d   1     -49.434  14.080  23.353  0.00  0.00     0.087 C 
BRANCH  16  17
ATOM     17  C   UNL d   1     -49.977  14.016  22.718  0.00  0.00     0.018 A 
ATOM     18  C   UNL d   1     -50.103  13.299  22.357  0.00  0.00     0.002 A 
ATOM     19  C   UNL d   1     -50.634  13.238  21.737  0.00  0.00     0.000 A 
ATOM     20  C   UNL d   1     -50.765  12.515  21.368  0.00  0.00     0.000 C 
ATOM     21  C   UNL d   1     -51.043  13.909  21.479  0.00  0.00     0.000 A 
ATOM     22  C   UNL d   1     -50.924  14.640  21.838  0.00  0.00     0.000 A 
ATOM     23  C   UNL d   1     -50.390  14.694  22.457  0.00  0.00     0.002 A 
ENDBRANCH  16  17
ENDBRANCH   3  16
BRANCH  10  24
ATOM     24  C   UNL d   1     -45.013  11.820  23.105  0.00  0.00     0.123 C 
BRANCH  24  25
ATOM     25  C   UNL d   1     -44.624  11.103  23.267  0.00  0.00     0.118 A 
ATOM     26  O   UNL d   1     -44.937  10.457  23.661  0.00  0.00    -0.304 OA
ATOM     27  C   UNL d   1     -44.369   9.876  23.697  0.00  0.00     0.123 A 
ATOM     28  C   UNL d   1     -43.686  10.161  23.318  0.00  0.00     0.029 A 
ATOM     29  C   UNL d   1     -43.848  10.926  23.052  0.00  0.00     0.028 A 
ENDBRANCH  24  25
ENDBRANCH  10  24
TORSDOF 4
ENDMDL
MODEL 2
REMARK VINA RESULT:      -7.4      1.301      2.219
REMARK  4 active torsions:
REMARK  status: ('A' for Active; 'I' for Inactive)
REMARK    1  A    between atoms: C_12  and  N_3 
REMARK    2  A    between atoms: C_13  and  N_10 
REMARK    3  A    between atoms: C_21  and  C_12 
REMARK    4  A    between atoms: C_16  and  C_13 
ROOT
ATOM      1  C   UNL d   1     -47.432  11.994  23.221  0.00  0.00     0.191 A 
ATOM      2  C   UNL d   1     -47.496  12.806  23.097  0.00  0.00     0.173 A 
ATOM      3  N   UNL d   1     -48.894  12.743  23.372  0.00  0.00    -0.224 N 
ATOM      4  N   UNL d   1     -46.642  11.781  23.107  0.00  0.00    -0.042 NA
ATOM      5  C   UNL d   1     -46.220  12.470  22.912  0.00  0.00     0.722 A 
ATOM      6  N   UNL d   1     -46.749  13.100  22.907  0.00  0.00    -0.131 N 
ATOM      7  N   UNL d   1     -48.106  11.554  23.422  0.00  0.00    -0.240 N 
ATOM      8  C   UNL d   1     -48.833  11.927  23.497  0.00  0.00     0.343 A 
ATOM      9  C   UNL d   1     -48.228  13.186  23.172  0.00  0.00     0.288 A 
ATOM     10  N   UNL d   1     -45.477  12.760  22.723  0.00  0.00    -0.135 N 
ATOM     11  C   UNL d   1     -46.331  13.777  22.715  0.00  0.00     0.118 A 
ATOM     12  O   UNL d   1     -49.507  11.487  23.698  0.00  0.00    -0.245 OA
ATOM     13  O   UNL d   1     -48.289  14.004  23.047  0.00  0.00    -0.265 OA
ATOM     14  C   UNL d   1     -45.543  13.576  22.599  0.00  0.00     0.118 A 
ATOM     15  C   UNL d   1     -48.045  10.738  23.547  0.00  0.00     0.105 C 
ENDROOT
BRANCH   3  16
ATOM     16  C   UNL d   1     -49.626  13.120  23.447  0.00  0.00     0.087 C 
BRANCH  16  17
ATOM     17  C   UNL d   1     -50.097  13.266  22.771  0.00  0.00     0.018 A 
ATOM     18  C   UNL d   1     -50.347  14.019  22.600  0.00  0.00     0.002 A 
ATOM     19  C   UNL d   1     -50.808  14.161  21.939  0.00  0.00     0.000 A 
ATOM     20  C   UNL d   1     -51.064  14.922  21.761  0.00  0.00     0.000 C 
ATOM     21  C   UNL d   1     -51.019  13.532  21.443  0.00  0.00     0.000 A 
ATOM     22  C   UNL d   1     -50.771  12.764  21.606  0.00  0.00     0.000 A 
ATOM     23  C   UNL d   1     -50.310  12.631  22.270  0.00  0.00     0.002 A 
ENDBRANCH  16  17
ENDBRANCH   3  16
BRANCH  10  24
ATOM     24  C   UNL d   1     -44.782  12.319  22.665  0.00  0.00     0.123 C 
BRANCH  24  25
ATOM     25  C   UNL d   1     -44.197  12.544  22.119  0.00  0.00     0.118 A 
ATOM     26  O   UNL d   1     -44.226  13.185  21.610  0.00  0.00    -0.304 OA
ATOM     27  C   UNL d   1     -43.540  13.200  21.173  0.00  0.00     0.123 A 
ATOM     28  C   UNL d   1     -43.070  12.557  21.412  0.00  0.00     0.029 A 
ATOM     29  C   UNL d   1     -43.482  12.151  22.001  0.00  0.00     0.028 A 
ENDBRANCH  24  25
ENDBRANCH  10  24
TORSDOF 4
ENDMDL
MODEL 3
REMARK VINA RESULT:      -5.6      8.043      9.863
REMARK  4 active torsions:
REMARK  status: ('A' for Active; 'I' for Inactive)
REMARK    1  A    between atoms: C_12  and  N_3 
REMARK    2  A    between atoms: C_13  and  N_10 
REMARK    3  A    between atoms: C_21  and  C_12 
REMARK    4  A    between atoms: C_16  and  C_13 
ROOT
ATOM      1  C   UNL d   1     -38.787  15.381  18.820  0.00  0.00     0.191 A 
ATOM      2  C   UNL d   1     -39.529  15.125  18.570  0.00  0.00     0.173 A 
ATOM      3  N   UNL d   1     -40.063  15.382  19.867  0.00  0.00    -0.224 N 
ATOM      4  N   UNL d   1     -38.267  15.317  18.182  0.00  0.00    -0.042 NA
ATOM      5  C   UNL d   1     -38.696  15.019  17.536  0.00  0.00     0.722 A 
ATOM      6  N   UNL d   1     -39.474  14.901  17.778  0.00  0.00    -0.131 N 
ATOM      7  N   UNL d   1     -38.684  15.639  19.602  0.00  0.00    -0.240 N 
ATOM      8  C   UNL d   1     -39.319  15.640  20.122  0.00  0.00     0.343 A 
ATOM      9  C   UNL d   1     -40.173  15.124  19.092  0.00  0.00     0.288 A 
ATOM     10  N   UNL d   1     -38.638  14.797  16.748  0.00  0.00    -0.135 N 
ATOM     11  C   UNL d   1     -39.893  14.608  17.139  0.00  0.00     0.118 A 
ATOM     12  O   UNL d   1     -39.216  15.899  20.904  0.00  0.00    -0.245 OA
ATOM     13  O   UNL d   1     -40.918  14.865  18.836  0.00  0.00    -0.265 OA
ATOM     14  C   UNL d   1     -39.384  14.540  16.498  0.00  0.00     0.118 A 
ATOM     15  C   UNL d   1     -37.940  15.897  19.857  0.00  0.00     0.105 C 
ENDROOT
BRANCH   3  16
ATOM     16  C   UNL d   1     -40.703  15.382  20.390  0.00  0.00     0.087 C 
BRANCH  16  17
ATOM     17  C   UNL d   1     -40.930  14.677  20.780  0.00  0.00     0.018 A 
ATOM     18  C   UNL d   1     -41.686  14.390  20.703  0.00  0.00     0.002 A 
ATOM     19  C   UNL d   1     -41.906  13.701  21.085  0.00  0.00     0.000 A 
ATOM     20  C   UNL d   1     -42.670  13.406  21.011  0.00  0.00     0.000 C 
ATOM     21  C   UNL d   1     -41.355  13.295  21.552  0.00  0.00     0.000 A 
ATOM     22  C   UNL d   1     -40.586  13.577  21.637  0.00  0.00     0.000 A 
ATOM     23  C   UNL d   1     -40.373  14.268  21.251  0.00  0.00     0.002 A 
ENDBRANCH  16  17
ENDBRANCH   3  16
BRANCH  10  24
ATOM     24  C   UNL d   1     -37.957  14.824  16.283  0.00  0.00     0.123 C 
BRANCH  24  25
ATOM     25  C   UNL d   1     -37.955  14.461  15.536  0.00  0.00     0.118 A 
ATOM     26  O   UNL d   1     -37.940  14.840  14.809  0.00  0.00    -0.304 OA
ATOM     27  C   UNL d   1     -37.944  14.276  14.223  0.00  0.00     0.123 A 
ATOM     28  C   UNL d   1     -37.962  13.528  14.587  0.00  0.00     0.029 A 
ATOM     29  C   UNL d   1     -37.969  13.648  15.404  0.00  0.00     0.028 A 
ENDBRANCH  24  25
ENDBRANCH  10  24
TORSDOF 4
ENDMDL
MODEL 4
REMARK VINA RESULT:      -5.6      7.869     10.002
REMARK  4 active torsions:
REMARK  status: ('A' for Active; 'I' for Inactive)
REMARK    1  A    between atoms: C_12  and  N_3 
REMARK    2  A    between atoms: C_13  and  N_10 
REMARK    3  A    between atoms: C_21  and  C_12 
REMARK    4  A    between atoms: C_16  and  C_13 
ROOT
ATOM      1  C   UNL d   1     -39.047  15.073  19.486  0.00  0.00     0.191 A 
ATOM      2  C   UNL d   1     -39.657  14.572  19.249  0.00  0.00     0.173 A 
ATOM      3  N   UNL d   1     -39.289  14.757  17.884  0.00  0.00    -0.224 N 
ATOM      4  N   UNL d   1     -39.064  15.124  20.310  0.00  0.00    -0.042 NA
ATOM      5  C   UNL d   1     -39.691  14.649  20.579  0.00  0.00     0.722 A 
ATOM      6  N   UNL d   1     -40.055  14.310  19.923  0.00  0.00    -0.131 N 
ATOM      7  N   UNL d   1     -38.554  15.418  18.914  0.00  0.00    -0.240 N 
ATOM      8  C   UNL d   1     -38.675  15.260  18.118  0.00  0.00     0.343 A 
ATOM      9  C   UNL d   1     -39.782  14.410  18.446  0.00  0.00     0.288 A 
ATOM     10  N   UNL d   1     -40.084  14.390  21.250  0.00  0.00    -0.135 N 
ATOM     11  C   UNL d   1     -40.671  13.843  20.192  0.00  0.00     0.118 A 
ATOM     12  O   UNL d   1     -38.182  15.606  17.546  0.00  0.00    -0.245 OA
ATOM     13  O   UNL d   1     -40.397  13.905  18.212  0.00  0.00    -0.265 OA
ATOM     14  C   UNL d   1     -40.697  13.887  21.012  0.00  0.00     0.118 A 
ATOM     15  C   UNL d   1     -37.940  15.922  19.148  0.00  0.00     0.105 C 
ENDROOT
BRANCH   3  16
ATOM     16  C   UNL d   1     -39.411  14.597  17.082  0.00  0.00     0.087 C 
BRANCH  16  17
ATOM     17  C   UNL d   1     -38.913  14.058  16.678  0.00  0.00     0.018 A 
ATOM     18  C   UNL d   1     -38.673  14.213  15.918  0.00  0.00     0.002 A 
ATOM     19  C   UNL d   1     -38.187  13.685  15.524  0.00  0.00     0.000 A 
ATOM     20  C   UNL d   1     -37.941  13.836  14.754  0.00  0.00     0.000 C 
ATOM     21  C   UNL d   1     -37.940  12.992  15.903  0.00  0.00     0.000 A 
ATOM     22  C   UNL d   1     -38.177  12.825  16.674  0.00  0.00     0.000 A 
ATOM     23  C   UNL d   1     -38.664  13.359  17.061  0.00  0.00     0.002 A 
ENDBRANCH  16  17
ENDBRANCH   3  16
BRANCH  10  24
ATOM     24  C   UNL d   1     -39.904  14.593  22.029  0.00  0.00     0.123 C 
BRANCH  24  25
ATOM     25  C   UNL d   1     -39.416  14.095  22.481  0.00  0.00     0.118 A 
ATOM     26  O   UNL d   1     -39.579  13.324  22.705  0.00  0.00    -0.304 OA
ATOM     27  C   UNL d   1     -38.953  13.044  23.142  0.00  0.00     0.123 A 
ATOM     28  C   UNL d   1     -38.385  13.648  23.194  0.00  0.00     0.029 A 
ATOM     29  C   UNL d   1     -38.677  14.302  22.782  0.00  0.00     0.028 A 
ENDBRANCH  24  25
ENDBRANCH  10  24
TORSDOF 4
ENDMDL
