MODEL 1
REMARK VINA RESULT:      -3.1      0.000      0.000
REMARK  1 active torsions:
REMARK  status: ('A' for Active; 'I' for Inactive)
REMARK    1  A    between atoms: N_11  and  C_4 
ROOT
ATOM      1  N   UNL d   1     -41.606-122.624 -51.509  0.00  0.00    -0.195 N 
ATOM      2  C   UNL d   1     -41.447-122.215 -52.213  0.00  0.00     0.168 A 
ATOM      3  C   UNL d   1     -41.446-122.606 -52.932  0.00  0.00     0.073 A 
ATOM      4  C   UNL d   1     -41.602-122.217 -50.801  0.00  0.00     0.153 A 
ATOM      5  N   UNL d   1     -41.763-123.817 -52.238  0.00  0.00    -0.143 NA
ATOM      6  C   UNL d   1     -41.604-123.407 -52.943  0.00  0.00     0.185 A 
ATOM      7  N   UNL d   1     -41.289-121.409 -52.190  0.00  0.00    -0.227 NA
ATOM      8  C   UNL d   1     -41.289-122.200 -53.629  0.00  0.00     0.007 A 
ATOM      9  N   UNL d   1     -41.607-123.817 -53.663  0.00  0.00    -0.225 NA
ATOM     10  C   UNL d   1     -41.446-121.420 -50.772  0.00  0.00     0.057 A 
ATOM     11  C   UNL d   1     -41.288-122.591 -54.347  0.00  0.00     0.019 A 
ATOM     12  C   UNL d   1     -41.288-121.010 -51.477  0.00  0.00     0.086 A 
ATOM     13  C   UNL d   1     -41.448-123.408 -54.367  0.00  0.00     0.083 A 
ATOM     14  C   UNL d   1     -41.130-121.391 -53.604  0.00  0.00     0.000 C 
ATOM     15  C   UNL d   1     -41.124-120.172 -51.449  0.00  0.00     0.021 C 
ATOM     16  C   UNL d   1     -41.449-123.803 -55.079  0.00  0.00     0.021 C 
ENDROOT
BRANCH   4  17
ATOM     17  N   UNL d   1     -41.767-122.647 -50.079  0.00  0.00    -0.285 N 
ATOM     18  C   UNL d   1     -41.124-123.033 -49.656  0.00  0.00     0.108 A 
ATOM     19  C   UNL d   1     -41.291-123.458 -48.943  0.00  0.00     0.142 A 
ATOM     20  O   UNL d   1     -42.089-123.502 -48.647  0.00  0.00    -0.300 OA
ATOM     21  C   UNL d   1     -42.719-123.118 -49.069  0.00  0.00     0.142 A 
ATOM     22  C   UNL d   1     -42.552-122.693 -49.783  0.00  0.00     0.108 A 
ENDBRANCH   4  17
TORSDOF 1
ENDMDL
MODEL 2
REMARK VINA RESULT:      -0.5      1.585      3.807
REMARK  1 active torsions:
REMARK  status: ('A' for Active; 'I' for Inactive)
REMARK    1  A    between atoms: N_11  and  C_4 
ROOT
ATOM      1  N   UNL d   1     -41.816-122.631 -52.007  0.00  0.00    -0.195 N 
ATOM      2  C   UNL d   1     -41.836-122.237 -51.277  0.00  0.00     0.168 A 
ATOM      3  C   UNL d   1     -42.080-122.626 -50.600  0.00  0.00     0.073 A 
ATOM      4  C   UNL d   1     -41.569-122.226 -52.672  0.00  0.00     0.153 A 
ATOM      5  N   UNL d   1     -42.286-123.803 -51.388  0.00  0.00    -0.143 NA
ATOM      6  C   UNL d   1     -42.305-123.410 -50.657  0.00  0.00     0.185 A 
ATOM      7  N   UNL d   1     -41.607-121.449 -51.232  0.00  0.00    -0.227 NA
ATOM      8  C   UNL d   1     -42.100-122.237 -49.877  0.00  0.00     0.007 A 
ATOM      9  N   UNL d   1     -42.555-123.817 -49.981  0.00  0.00    -0.225 NA
ATOM     10  C   UNL d   1     -41.342-121.446 -52.633  0.00  0.00     0.057 A 
ATOM     11  C   UNL d   1     -42.344-122.625 -49.201  0.00  0.00     0.019 A 
ATOM     12  C   UNL d   1     -41.361-121.053 -51.903  0.00  0.00     0.086 A 
ATOM     13  C   UNL d   1     -42.575-123.423 -49.250  0.00  0.00     0.083 A 
ATOM     14  C   UNL d   1     -41.870-121.445 -49.833  0.00  0.00     0.000 C 
ATOM     15  C   UNL d   1     -41.123-120.234 -51.859  0.00  0.00     0.021 C 
ATOM     16  C   UNL d   1     -42.819-123.816 -48.580  0.00  0.00     0.021 C 
ENDROOT
BRANCH   4  17
ATOM     17  N   UNL d   1     -41.552-122.639 -53.422  0.00  0.00    -0.285 N 
ATOM     18  C   UNL d   1     -41.954-122.303 -54.104  0.00  0.00     0.108 A 
ATOM     19  C   UNL d   1     -41.935-122.715 -54.844  0.00  0.00     0.142 A 
ATOM     20  O   UNL d   1     -41.521-123.457 -54.911  0.00  0.00    -0.300 OA
ATOM     21  C   UNL d   1     -41.126-123.783 -54.233  0.00  0.00     0.142 A 
ATOM     22  C   UNL d   1     -41.145-123.371 -53.494  0.00  0.00     0.108 A 
ENDBRANCH   4  17
TORSDOF 1
ENDMDL
