MODEL 1
REMARK VINA RESULT:       2.3      0.000      0.000
REMARK  2 active torsions:
REMARK  status: ('A' for Active; 'I' for Inactive)
REMARK    1  A    between atoms: C_3  and  C_1 
REMARK       I    between atoms: C_2  and  N_4 
REMARK    2  A    between atoms: N_4  and  C_12 
ROOT
ATOM      1  C   UNL d   1      43.049 -15.742  36.653  0.00  0.00     0.072 A 
ATOM      2  C   UNL d   1      43.589 -16.278  36.330  0.00  0.00     0.005 A 
ATOM      3  C   UNL d   1      43.315 -15.132  37.142  0.00  0.00     0.005 A 
ATOM      4  C   UNL d   1      44.659 -15.591  36.987  0.00  0.00     0.100 A 
ATOM      5  C   UNL d   1      44.394 -16.202  36.498  0.00  0.00     0.020 A 
ATOM      6  C   UNL d   1      44.120 -15.056  37.309  0.00  0.00     0.020 A 
ENDROOT
BRANCH   1   7
ATOM      7  C   UNL d   1      42.241 -15.817  36.486  0.00  0.00     0.419 C 
ATOM      8  F   UNL d   1      41.508 -15.886  36.334  0.00  0.00    -0.166 F 
ATOM      9  F   UNL d   1      41.645 -15.201  36.365  0.00  0.00    -0.166 F 
ATOM     10  F   UNL d   1      41.769 -16.533  36.385  0.00  0.00    -0.166 F 
ENDBRANCH   1   7
BRANCH   4  11
ATOM     11  N   UNL d   1      45.464 -15.512  37.157  0.00  0.00    -0.056 NA
ATOM     12  C   UNL d   1      45.844 -14.783  37.052  0.00  0.00     0.787 C 
ATOM     13  N   UNL d   1      46.647 -14.699  37.220  0.00  0.00     0.064 N 
ATOM     14  N   UNL d   1      45.409 -14.136  36.775  0.00  0.00     0.064 N 
ENDBRANCH   4  11
TORSDOF 2
ENDMDL
MODEL 2
REMARK VINA RESULT:       2.7      2.800      3.522
REMARK  2 active torsions:
REMARK  status: ('A' for Active; 'I' for Inactive)
REMARK    1  A    between atoms: C_3  and  C_1 
REMARK       I    between atoms: C_2  and  N_4 
REMARK    2  A    between atoms: N_4  and  C_12 
ROOT
ATOM      1  C   UNL d   1      45.208 -15.135  36.934  0.00  0.00     0.072 A 
ATOM      2  C   UNL d   1      44.555 -14.815  37.327  0.00  0.00     0.005 A 
ATOM      3  C   UNL d   1      45.114 -15.791  36.442  0.00  0.00     0.005 A 
ATOM      4  C   UNL d   1      43.715 -15.811  36.734  0.00  0.00     0.100 A 
ATOM      5  C   UNL d   1      43.809 -15.154  37.226  0.00  0.00     0.020 A 
ATOM      6  C   UNL d   1      44.367 -16.129  36.342  0.00  0.00     0.020 A 
ENDROOT
BRANCH   1   7
ATOM      7  C   UNL d   1      45.958 -14.796  37.033  0.00  0.00     0.419 C 
ATOM      8  F   UNL d   1      46.638 -14.488  37.124  0.00  0.00    -0.166 F 
ATOM      9  F   UNL d   1      46.642 -15.095  37.472  0.00  0.00    -0.166 F 
ATOM     10  F   UNL d   1      46.264 -14.049  36.727  0.00  0.00    -0.166 F 
ENDBRANCH   1   7
BRANCH   4  11
ATOM     11  N   UNL d   1      42.970 -16.153  36.631  0.00  0.00    -0.056 NA
ATOM     12  C   UNL d   1      42.312 -15.679  36.458  0.00  0.00     0.787 C 
ATOM     13  N   UNL d   1      41.566 -16.016  36.355  0.00  0.00     0.064 N 
ATOM     14  N   UNL d   1      42.410 -14.861  36.390  0.00  0.00     0.064 N 
ENDBRANCH   4  11
TORSDOF 2
ENDMDL
MODEL 3
REMARK VINA RESULT:       4.6      7.042      7.526
REMARK  2 active torsions:
REMARK  status: ('A' for Active; 'I' for Inactive)
REMARK    1  A    between atoms: C_3  and  C_1 
REMARK       I    between atoms: C_2  and  N_4 
REMARK    2  A    between atoms: N_4  and  C_12 
ROOT
ATOM      1  C   UNL d   1      46.477 -18.750  41.531  0.00  0.00     0.072 A 
ATOM      2  C   UNL d   1      46.396 -18.211  42.152  0.00  0.00     0.005 A 
ATOM      3  C   UNL d   1      46.601 -19.551  41.691  0.00  0.00     0.005 A 
ATOM      4  C   UNL d   1      46.561 -19.277  43.093  0.00  0.00     0.100 A 
ATOM      5  C   UNL d   1      46.438 -18.476  42.933  0.00  0.00     0.020 A 
ATOM      6  C   UNL d   1      46.643 -19.814  42.472  0.00  0.00     0.020 A 
ENDROOT
BRANCH   1   7
ATOM      7  C   UNL d   1      46.435 -18.486  40.746  0.00  0.00     0.419 C 
ATOM      8  F   UNL d   1      46.397 -18.247  40.035  0.00  0.00    -0.166 F 
ATOM      9  F   UNL d   1      46.641 -17.713  40.415  0.00  0.00    -0.166 F 
ATOM     10  F   UNL d   1      46.174 -18.911  40.042  0.00  0.00    -0.166 F 
ENDBRANCH   1   7
BRANCH   4  11
ATOM     11  N   UNL d   1      46.604 -19.546  43.873  0.00  0.00    -0.056 NA
ATOM     12  C   UNL d   1      46.026 -20.059  44.172  0.00  0.00     0.787 C 
ATOM     13  N   UNL d   1      46.065 -20.330  44.950  0.00  0.00     0.064 N 
ATOM     14  N   UNL d   1      45.407 -20.300  43.680  0.00  0.00     0.064 N 
ENDBRANCH   4  11
TORSDOF 2
ENDMDL
