MODEL 1
REMARK VINA RESULT:      41.6      0.000      0.000
REMARK  4 active torsions:
REMARK  status: ('A' for Active; 'I' for Inactive)
REMARK    1  A    between atoms: C_2  and  C_1 
REMARK       I    between atoms: N_7  and  C_2 
REMARK    2  A    between atoms: C_12  and  N_7 
REMARK    3  A    between atoms: C_13  and  N_7 
REMARK    4  A    between atoms: O_14  and  C_11 
ROOT
ATOM      1  C   UNL d   1      46.041 -15.351  43.616  0.00  0.00     0.120 A 
ATOM      2  C   UNL d   1      46.261 -15.616  44.366  0.00  0.00     0.305 A 
ATOM      3  O   UNL d   1      46.276 -16.432  44.521  0.00  0.00    -0.271 OA
ATOM      4  C   UNL d   1      45.839 -15.893  43.024  0.00  0.00     0.012 A 
ATOM      5  C   UNL d   1      46.075 -16.974  43.934  0.00  0.00     0.125 A 
ATOM      6  C   UNL d   1      45.855 -16.701  43.179  0.00  0.00     0.025 A 
ATOM      7  O   UNL d   1      46.462 -15.073  44.954  0.00  0.00    -0.259 OA
ATOM      8  C   UNL d   1      46.091 -17.778  44.087  0.00  0.00     0.117 A 
ATOM      9  C   UNL d   1      45.654 -17.239  42.590  0.00  0.00     0.002 A 
ATOM     10  C   UNL d   1      45.670 -18.047  42.745  0.00  0.00     0.002 A 
ATOM     11  C   UNL d   1      45.890 -18.320  43.500  0.00  0.00     0.026 A 
ENDROOT
BRANCH   1  12
ATOM     12  C   UNL d   1      46.025 -14.540  43.458  0.00  0.00     0.270 C 
ATOM     13  N   UNL d   1      45.380 -14.086  43.715  0.00  0.00    -0.273 N 
ATOM     14  O   UNL d   1      46.645 -14.183  43.046  0.00  0.00    -0.266 OA
BRANCH  13  15
ATOM     15  C   UNL d   1      44.760 -14.446  44.128  0.00  0.00     0.067 A 
ATOM     16  C   UNL d   1      44.896 -15.140  44.544  0.00  0.00     0.018 A 
ATOM     17  C   UNL d   1      44.275 -15.497  44.954  0.00  0.00     0.002 A 
ATOM     18  C   UNL d   1      43.519 -15.160  44.949  0.00  0.00     0.000 A 
ATOM     19  C   UNL d   1      43.387 -14.456  44.525  0.00  0.00     0.002 A 
ATOM     20  C   UNL d   1      44.004 -14.098  44.115  0.00  0.00     0.018 A 
ENDBRANCH  13  15
BRANCH  13  21
ATOM     21  C   UNL d   1      45.357 -13.272  43.560  0.00  0.00     0.083 C 
ATOM     22  C   UNL d   1      45.950 -12.780  43.853  0.00  0.00     0.021 C 
ENDBRANCH  13  21
ENDBRANCH   1  12
BRANCH   8  23
ATOM     23  O   UNL d   1      46.311 -18.051  44.842  0.00  0.00    -0.326 OA
ATOM     24  C   UNL d   1      46.612 -18.815  44.929  0.00  0.00     0.181 C 
ENDBRANCH   8  23
TORSDOF 4
ENDMDL
MODEL 2
REMARK VINA RESULT:      43.8      6.216      7.560
REMARK  4 active torsions:
REMARK  status: ('A' for Active; 'I' for Inactive)
REMARK    1  A    between atoms: C_2  and  C_1 
REMARK       I    between atoms: N_7  and  C_2 
REMARK    2  A    between atoms: C_12  and  N_7 
REMARK    3  A    between atoms: C_13  and  N_7 
REMARK    4  A    between atoms: O_14  and  C_11 
ROOT
ATOM      1  C   UNL d   1      43.695 -14.754  37.112  0.00  0.00     0.120 A 
ATOM      2  C   UNL d   1      43.781 -14.302  37.797  0.00  0.00     0.305 A 
ATOM      3  O   UNL d   1      44.529 -13.997  37.991  0.00  0.00    -0.271 OA
ATOM      4  C   UNL d   1      44.347 -14.902  36.624  0.00  0.00     0.012 A 
ATOM      5  C   UNL d   1      45.180 -14.142  37.507  0.00  0.00     0.125 A 
ATOM      6  C   UNL d   1      45.087 -14.599  36.817  0.00  0.00     0.025 A 
ATOM      7  O   UNL d   1      43.129 -14.156  38.282  0.00  0.00    -0.259 OA
ATOM      8  C   UNL d   1      45.916 -13.841  37.699  0.00  0.00     0.117 A 
ATOM      9  C   UNL d   1      45.734 -14.746  36.332  0.00  0.00     0.002 A 
ATOM     10  C   UNL d   1      46.474 -14.444  36.525  0.00  0.00     0.002 A 
ATOM     11  C   UNL d   1      46.567 -13.987  37.215  0.00  0.00     0.026 A 
ENDROOT
BRANCH   1  12
ATOM     12  C   UNL d   1      42.952 -15.060  36.915  0.00  0.00     0.270 C 
ATOM     13  N   UNL d   1      42.850 -15.880  36.852  0.00  0.00    -0.273 N 
ATOM     14  O   UNL d   1      42.315 -14.552  36.782  0.00  0.00    -0.266 OA
BRANCH  13  15
ATOM     15  C   UNL d   1      43.491 -16.387  36.987  0.00  0.00     0.067 A 
ATOM     16  C   UNL d   1      43.650 -16.649  37.749  0.00  0.00     0.018 A 
ATOM     17  C   UNL d   1      44.288 -17.155  37.880  0.00  0.00     0.002 A 
ATOM     18  C   UNL d   1      44.768 -17.398  37.251  0.00  0.00     0.000 A 
ATOM     19  C   UNL d   1      44.601 -17.129  36.481  0.00  0.00     0.002 A 
ATOM     20  C   UNL d   1      43.965 -16.625  36.347  0.00  0.00     0.018 A 
ENDBRANCH  13  15
BRANCH  13  21
ATOM     21  C   UNL d   1      42.109 -16.194  36.655  0.00  0.00     0.083 C 
ATOM     22  C   UNL d   1      41.530 -15.706  36.331  0.00  0.00     0.021 C 
ENDBRANCH  13  21
ENDBRANCH   1  12
BRANCH   8  23
ATOM     23  O   UNL d   1      46.010 -13.384  38.389  0.00  0.00    -0.326 OA
ATOM     24  C   UNL d   1      46.646 -13.531  38.894  0.00  0.00     0.181 C 
ENDBRANCH   8  23
TORSDOF 4
ENDMDL
MODEL 3
REMARK VINA RESULT:      44.0      2.779      4.403
REMARK  4 active torsions:
REMARK  status: ('A' for Active; 'I' for Inactive)
REMARK    1  A    between atoms: C_2  and  C_1 
REMARK       I    between atoms: N_7  and  C_2 
REMARK    2  A    between atoms: C_12  and  N_7 
REMARK    3  A    between atoms: C_13  and  N_7 
REMARK    4  A    between atoms: O_14  and  C_11 
ROOT
ATOM      1  C   UNL d   1      45.660 -19.107  42.576  0.00  0.00     0.120 A 
ATOM      2  C   UNL d   1      44.868 -18.940  42.414  0.00  0.00     0.305 A 
ATOM      3  O   UNL d   1      44.673 -18.541  41.712  0.00  0.00    -0.271 OA
ATOM      4  C   UNL d   1      46.253 -18.879  42.045  0.00  0.00     0.012 A 
ATOM      5  C   UNL d   1      45.261 -18.313  41.181  0.00  0.00     0.125 A 
ATOM      6  C   UNL d   1      46.058 -18.484  41.351  0.00  0.00     0.025 A 
ATOM      7  O   UNL d   1      44.280 -19.168  42.945  0.00  0.00    -0.259 OA
ATOM      8  C   UNL d   1      45.067 -17.919  40.490  0.00  0.00     0.117 A 
ATOM      9  C   UNL d   1      46.646 -18.258  40.823  0.00  0.00     0.002 A 
ATOM     10  C   UNL d   1      46.451 -17.863  40.129  0.00  0.00     0.002 A 
ATOM     11  C   UNL d   1      45.654 -17.691  39.960  0.00  0.00     0.026 A 
ENDROOT
BRANCH   1  12
ATOM     12  C   UNL d   1      45.859 -19.505  43.274  0.00  0.00     0.270 C 
ATOM     13  N   UNL d   1      46.108 -19.071  43.935  0.00  0.00    -0.273 N 
ATOM     14  O   UNL d   1      45.810 -20.327  43.312  0.00  0.00    -0.266 OA
BRANCH  13  15
ATOM     15  C   UNL d   1      46.157 -18.245  43.894  0.00  0.00     0.067 A 
ATOM     16  C   UNL d   1      46.594 -17.892  43.295  0.00  0.00     0.018 A 
ATOM     17  C   UNL d   1      46.640 -17.070  43.256  0.00  0.00     0.002 A 
ATOM     18  C   UNL d   1      46.250 -16.600  43.815  0.00  0.00     0.000 A 
ATOM     19  C   UNL d   1      45.808 -16.964  44.419  0.00  0.00     0.002 A 
ATOM     20  C   UNL d   1      45.760 -17.784  44.460  0.00  0.00     0.018 A 
ENDBRANCH  13  15
BRANCH  13  21
ATOM     21  C   UNL d   1      46.310 -19.462  44.637  0.00  0.00     0.083 C 
ATOM     22  C   UNL d   1      46.641 -20.216  44.607  0.00  0.00     0.021 C 
ENDBRANCH  13  21
ENDBRANCH   1  12
BRANCH   8  23
ATOM     23  O   UNL d   1      44.270 -17.748  40.321  0.00  0.00    -0.326 OA
ATOM     24  C   UNL d   1      44.056 -17.501  39.563  0.00  0.00     0.181 C 
ENDBRANCH   8  23
TORSDOF 4
ENDMDL
