MODEL 1
REMARK VINA RESULT:      12.3      0.000      0.000
REMARK  2 active torsions:
REMARK  status: ('A' for Active; 'I' for Inactive)
REMARK    1  A    between atoms: C_2  and  C_1 
REMARK       I    between atoms: N_3  and  C_2 
REMARK    2  A    between atoms: C_6  and  N_3 
ROOT
ATOM      1  C   UNL d   1      13.794  12.447  -2.766  0.00  0.00     0.303 C 
ATOM      2  N   UNL d   1      13.714  11.794  -2.260  0.00  0.00    -0.206 NA
ATOM      3  O   UNL d   1      14.249  13.092  -2.533  0.00  0.00    -0.263 OA
ENDROOT
BRANCH   2   4
ATOM      4  C   UNL d   1      14.093  11.796  -1.525  0.00  0.00     0.086 A 
ATOM      5  C   UNL d   1      14.923  11.805  -1.488  0.00  0.00     0.031 A 
ATOM      6  C   UNL d   1      15.286  11.807  -0.752  0.00  0.00     0.059 A 
ATOM      7 CL   UNL d   1      16.111  11.816  -0.720  0.00  0.00    -0.082 Cl
ATOM      8  C   UNL d   1      14.838  11.801  -0.070  0.00  0.00     0.011 A 
ATOM      9  C   UNL d   1      14.023  11.792  -0.097  0.00  0.00     0.002 A 
ATOM     10  C   UNL d   1      13.643  11.790  -0.831  0.00  0.00     0.018 A 
ATOM     11  C   UNL d   1      12.832  11.781  -0.868  0.00  0.00     0.002 C 
ENDBRANCH   2   4
BRANCH   1  12
ATOM     12  C   UNL d   1      13.415  12.445  -3.500  0.00  0.00     0.176 A 
ATOM     13  C   UNL d   1      13.170  13.115  -3.920  0.00  0.00     0.110 A 
ATOM     14  N   UNL d   1      12.819  12.863  -4.623  0.00  0.00    -0.233 NA
ATOM     15  C   UNL d   1      13.263  13.892  -3.677  0.00  0.00     0.023 C 
ATOM     16  C   UNL d   1      12.847  12.029  -4.636  0.00  0.00     0.259 A 
ATOM     17  O   UNL d   1      13.217  11.779  -3.939  0.00  0.00    -0.296 OA
ENDBRANCH   1  12
TORSDOF 2
ENDMDL
MODEL 2
REMARK VINA RESULT:      13.9      1.640      3.646
REMARK  2 active torsions:
REMARK  status: ('A' for Active; 'I' for Inactive)
REMARK    1  A    between atoms: C_2  and  C_1 
REMARK       I    between atoms: N_3  and  C_2 
REMARK    2  A    between atoms: C_6  and  N_3 
ROOT
ATOM      1  C   UNL d   1      13.949  12.194  -1.969  0.00  0.00     0.303 C 
ATOM      2  N   UNL d   1      14.201  12.758  -2.524  0.00  0.00    -0.206 NA
ATOM      3  O   UNL d   1      13.249  11.780  -2.095  0.00  0.00    -0.263 OA
ENDROOT
BRANCH   2   4
ATOM      4  C   UNL d   1      13.746  12.900  -3.200  0.00  0.00     0.086 A 
ATOM      5  C   UNL d   1      13.493  12.262  -3.668  0.00  0.00     0.031 A 
ATOM      6  C   UNL d   1      13.042  12.417  -4.337  0.00  0.00     0.059 A 
ATOM      7 CL   UNL d   1      12.792  11.780  -4.799  0.00  0.00    -0.082 Cl
ATOM      8  C   UNL d   1      12.847  13.184  -4.535  0.00  0.00     0.011 A 
ATOM      9  C   UNL d   1      13.092  13.816  -4.081  0.00  0.00     0.002 A 
ATOM     10  C   UNL d   1      13.547  13.675  -3.405  0.00  0.00     0.018 A 
ATOM     11  C   UNL d   1      13.795  14.298  -2.946  0.00  0.00     0.002 C 
ENDBRANCH   2   4
BRANCH   1  12
ATOM     12  C   UNL d   1      14.403  12.053  -1.294  0.00  0.00     0.176 A 
ATOM     13  C   UNL d   1      14.114  11.993  -0.520  0.00  0.00     0.110 A 
ATOM     14  N   UNL d   1      14.753  11.849  -0.018  0.00  0.00    -0.233 NA
ATOM     15  C   UNL d   1      13.329  12.064  -0.296  0.00  0.00     0.023 C 
ATOM     16  C   UNL d   1      15.443  11.821  -0.487  0.00  0.00     0.259 A 
ATOM     17  O   UNL d   1      15.218  11.947  -1.273  0.00  0.00    -0.296 OA
ENDBRANCH   1  12
TORSDOF 2
ENDMDL
