MODEL 1
REMARK VINA RESULT:      -3.1      0.000      0.000
REMARK  6 active torsions:
REMARK  status: ('A' for Active; 'I' for Inactive)
REMARK    1  A    between atoms: C_11  and  N_2 
REMARK    2  A    between atoms: O_15  and  C_9 
REMARK    3  A    between atoms: C_10  and  O_14 
REMARK    4  A    between atoms: C_16  and  C_11 
REMARK    5  A    between atoms: O_14  and  C_17 
REMARK    6  A    between atoms: C_17  and  C_16 
ROOT
ATOM      1  C   UNL d   1      32.997  20.526 -22.179  0.00  0.00     0.087 C 
ENDROOT
BRANCH   1   2
ATOM      2  N   UNL d   1      32.956  20.944 -21.466  0.00  0.00    -0.251 N 
ATOM      3  C   UNL d   1      33.065  20.664 -20.695  0.00  0.00     0.378 A 
ATOM      4  O   UNL d   1      32.964  21.306 -20.175  0.00  0.00    -0.258 OA
ATOM      5  O   UNL d   1      33.241  19.887 -20.480  0.00  0.00    -0.237 OA
ATOM      6  C   UNL d   1      32.794  21.978 -20.625  0.00  0.00     0.121 A 
ATOM      7  C   UNL d   1      32.642  22.771 -20.421  0.00  0.00     0.026 A 
ATOM      8  C   UNL d   1      32.789  21.756 -21.423  0.00  0.00     0.092 A 
ATOM      9  C   UNL d   1      32.487  23.329 -21.006  0.00  0.00     0.002 A 
ATOM     10  C   UNL d   1      32.483  23.103 -21.804  0.00  0.00     0.002 A 
ATOM     11  C   UNL d   1      32.633  22.320 -22.011  0.00  0.00     0.020 A 
ATOM     12  C   UNL d   1      32.329  23.660 -22.389  0.00  0.00     0.000 C 
ENDBRANCH   1   2
BRANCH   1  13
ATOM     13  C   UNL d   1      33.053  19.706 -22.179  0.00  0.00     0.046 C 
BRANCH  13  14
ATOM     14  C   UNL d   1      32.848  19.271 -22.852  0.00  0.00     0.124 C 
BRANCH  14  15
ATOM     15  O   UNL d   1      32.973  18.465 -22.875  0.00  0.00    -0.303 OA
BRANCH  15  16
ATOM     16  C   UNL d   1      32.696  18.077 -23.545  0.00  0.00     0.122 A 
ATOM     17  C   UNL d   1      32.726  17.249 -23.586  0.00  0.00     0.117 A 
ATOM     18  C   UNL d   1      32.447  16.861 -24.259  0.00  0.00     0.026 A 
ATOM     19  C   UNL d   1      32.142  17.303 -24.885  0.00  0.00     0.002 A 
ATOM     20  C   UNL d   1      32.115  18.125 -24.839  0.00  0.00     0.002 A 
ATOM     21  C   UNL d   1      32.392  18.512 -24.169  0.00  0.00     0.027 A 
BRANCH  17  22
ATOM     22  O   UNL d   1      33.033  16.817 -22.955  0.00  0.00    -0.326 OA
ATOM     23  C   UNL d   1      33.241  16.025 -22.999  0.00  0.00     0.181 C 
ENDBRANCH  17  22
ENDBRANCH  15  16
ENDBRANCH  14  15
ENDBRANCH  13  14
ENDBRANCH   1  13
TORSDOF 6
ENDMDL
MODEL 2
REMARK VINA RESULT:      -3.0      1.064      1.508
REMARK  6 active torsions:
REMARK  status: ('A' for Active; 'I' for Inactive)
REMARK    1  A    between atoms: C_11  and  N_2 
REMARK    2  A    between atoms: O_15  and  C_9 
REMARK    3  A    between atoms: C_10  and  O_14 
REMARK    4  A    between atoms: C_16  and  C_11 
REMARK    5  A    between atoms: O_14  and  C_17 
REMARK    6  A    between atoms: C_17  and  C_16 
ROOT
ATOM      1  C   UNL d   1      33.241  19.932 -22.706  0.00  0.00     0.087 C 
ENDROOT
BRANCH   1   2
ATOM      2  N   UNL d   1      33.241  20.540 -22.144  0.00  0.00    -0.251 N 
ATOM      3  C   UNL d   1      33.240  20.481 -21.319  0.00  0.00     0.378 A 
ATOM      4  O   UNL d   1      33.240  21.254 -21.009  0.00  0.00    -0.258 OA
ATOM      5  O   UNL d   1      33.240  19.782 -20.880  0.00  0.00    -0.237 OA
ATOM      6  C   UNL d   1      33.240  21.786 -21.642  0.00  0.00     0.121 A 
ATOM      7  C   UNL d   1      33.240  22.618 -21.681  0.00  0.00     0.026 A 
ATOM      8  C   UNL d   1      33.241  21.345 -22.344  0.00  0.00     0.092 A 
ATOM      9  C   UNL d   1      33.240  22.999 -22.411  0.00  0.00     0.002 A 
ATOM     10  C   UNL d   1      33.241  22.556 -23.111  0.00  0.00     0.002 A 
ATOM     11  C   UNL d   1      33.241  21.733 -23.078  0.00  0.00     0.020 A 
ATOM     12  C   UNL d   1      33.241  22.937 -23.840  0.00  0.00     0.000 C 
ENDBRANCH   1   2
BRANCH   1  13
ATOM     13  C   UNL d   1      32.838  19.231 -22.562  0.00  0.00     0.046 C 
BRANCH  13  14
ATOM     14  C   UNL d   1      32.939  18.579 -23.061  0.00  0.00     0.124 C 
BRANCH  14  15
ATOM     15  O   UNL d   1      32.289  18.195 -23.373  0.00  0.00    -0.303 OA
BRANCH  15  16
ATOM     16  C   UNL d   1      32.372  17.386 -23.489  0.00  0.00     0.122 A 
ATOM     17  C   UNL d   1      31.739  16.945 -23.795  0.00  0.00     0.117 A 
ATOM     18  C   UNL d   1      31.822  16.132 -23.912  0.00  0.00     0.026 A 
ATOM     19  C   UNL d   1      32.537  15.767 -23.722  0.00  0.00     0.002 A 
ATOM     20  C   UNL d   1      33.162  16.209 -23.418  0.00  0.00     0.002 A 
ATOM     21  C   UNL d   1      33.080  17.019 -23.302  0.00  0.00     0.027 A 
BRANCH  17  22
ATOM     22  O   UNL d   1      31.029  17.320 -23.982  0.00  0.00    -0.326 OA
ATOM     23  C   UNL d   1      30.337  16.924 -24.173  0.00  0.00     0.181 C 
ENDBRANCH  17  22
ENDBRANCH  15  16
ENDBRANCH  14  15
ENDBRANCH  13  14
ENDBRANCH   1  13
TORSDOF 6
ENDMDL
MODEL 3
REMARK VINA RESULT:      -2.8      1.336      5.408
REMARK  6 active torsions:
REMARK  status: ('A' for Active; 'I' for Inactive)
REMARK    1  A    between atoms: C_11  and  N_2 
REMARK    2  A    between atoms: O_15  and  C_9 
REMARK    3  A    between atoms: C_10  and  O_14 
REMARK    4  A    between atoms: C_16  and  C_11 
REMARK    5  A    between atoms: O_14  and  C_17 
REMARK    6  A    between atoms: C_17  and  C_16 
ROOT
ATOM      1  C   UNL d   1      32.732  18.873 -23.084  0.00  0.00     0.087 C 
ENDROOT
BRANCH   1   2
ATOM      2  N   UNL d   1      32.754  18.469 -23.806  0.00  0.00    -0.251 N 
ATOM      3  C   UNL d   1      32.970  18.754 -24.552  0.00  0.00     0.378 A 
ATOM      4  O   UNL d   1      32.898  18.127 -25.094  0.00  0.00    -0.258 OA
ATOM      5  O   UNL d   1      33.214  19.523 -24.728  0.00  0.00    -0.237 OA
ATOM      6  C   UNL d   1      32.638  17.459 -24.683  0.00  0.00     0.121 A 
ATOM      7  C   UNL d   1      32.468  16.679 -24.921  0.00  0.00     0.026 A 
ATOM      8  C   UNL d   1      32.549  17.669 -23.886  0.00  0.00     0.092 A 
ATOM      9  C   UNL d   1      32.213  16.122 -24.370  0.00  0.00     0.002 A 
ATOM     10  C   UNL d   1      32.125  16.336 -23.574  0.00  0.00     0.002 A 
ATOM     11  C   UNL d   1      32.292  17.106 -23.334  0.00  0.00     0.020 A 
ATOM     12  C   UNL d   1      31.871  15.780 -23.024  0.00  0.00     0.000 C 
ENDBRANCH   1   2
BRANCH   1  13
ATOM     13  C   UNL d   1      33.114  19.596 -22.999  0.00  0.00     0.046 C 
BRANCH  13  14
ATOM     14  C   UNL d   1      33.006  20.050 -22.316  0.00  0.00     0.124 C 
BRANCH  14  15
ATOM     15  O   UNL d   1      33.241  20.832 -22.300  0.00  0.00    -0.303 OA
BRANCH  15  16
ATOM     16  C   UNL d   1      32.928  21.288 -21.693  0.00  0.00     0.122 A 
ATOM     17  C   UNL d   1      32.865  22.111 -21.784  0.00  0.00     0.117 A 
ATOM     18  C   UNL d   1      32.551  22.569 -21.173  0.00  0.00     0.026 A 
ATOM     19  C   UNL d   1      32.303  22.202 -20.477  0.00  0.00     0.002 A 
ATOM     20  C   UNL d   1      32.368  21.385 -20.392  0.00  0.00     0.002 A 
ATOM     21  C   UNL d   1      32.681  20.928 -21.000  0.00  0.00     0.027 A 
BRANCH  17  22
ATOM     22  O   UNL d   1      33.116  22.468 -22.483  0.00  0.00    -0.326 OA
ATOM     23  C   UNL d   1      33.015  23.263 -22.654  0.00  0.00     0.181 C 
ENDBRANCH  17  22
ENDBRANCH  15  16
ENDBRANCH  14  15
ENDBRANCH  13  14
ENDBRANCH   1  13
TORSDOF 6
ENDMDL
MODEL 4
REMARK VINA RESULT:      -2.4      1.257      2.198
REMARK  6 active torsions:
REMARK  status: ('A' for Active; 'I' for Inactive)
REMARK    1  A    between atoms: C_11  and  N_2 
REMARK    2  A    between atoms: O_15  and  C_9 
REMARK    3  A    between atoms: C_10  and  O_14 
REMARK    4  A    between atoms: C_16  and  C_11 
REMARK    5  A    between atoms: O_14  and  C_17 
REMARK    6  A    between atoms: C_17  and  C_16 
ROOT
ATOM      1  C   UNL d   1      32.657  21.250 -21.335  0.00  0.00     0.087 C 
ENDROOT
BRANCH   1   2
ATOM      2  N   UNL d   1      32.738  22.064 -21.211  0.00  0.00    -0.251 N 
ATOM      3  C   UNL d   1      32.694  22.678 -21.765  0.00  0.00     0.378 A 
ATOM      4  O   UNL d   1      32.814  23.395 -21.359  0.00  0.00    -0.258 OA
ATOM      5  O   UNL d   1      32.557  22.595 -22.574  0.00  0.00    -0.237 OA
ATOM      6  C   UNL d   1      32.930  23.222 -20.559  0.00  0.00     0.121 A 
ATOM      7  C   UNL d   1      33.074  23.701 -19.892  0.00  0.00     0.026 A 
ATOM      8  C   UNL d   1      32.884  22.400 -20.467  0.00  0.00     0.092 A 
ATOM      9  C   UNL d   1      33.169  23.360 -19.148  0.00  0.00     0.002 A 
ATOM     10  C   UNL d   1      33.122  22.537 -19.060  0.00  0.00     0.002 A 
ATOM     11  C   UNL d   1      32.980  22.060 -19.716  0.00  0.00     0.020 A 
ATOM     12  C   UNL d   1      33.217  22.196 -18.317  0.00  0.00     0.000 C 
ENDBRANCH   1   2
BRANCH   1  13
ATOM     13  C   UNL d   1      32.881  20.912 -22.049  0.00  0.00     0.046 C 
BRANCH  13  14
ATOM     14  C   UNL d   1      32.857  20.092 -22.152  0.00  0.00     0.124 C 
BRANCH  14  15
ATOM     15  O   UNL d   1      32.717  19.773 -22.891  0.00  0.00    -0.303 OA
BRANCH  15  16
ATOM     16  C   UNL d   1      32.856  18.967 -22.966  0.00  0.00     0.122 A 
ATOM     17  C   UNL d   1      32.745  18.595 -23.699  0.00  0.00     0.117 A 
ATOM     18  C   UNL d   1      32.884  17.784 -23.774  0.00  0.00     0.026 A 
ATOM     19  C   UNL d   1      33.132  17.354 -23.116  0.00  0.00     0.002 A 
ATOM     20  C   UNL d   1      33.241  17.728 -22.390  0.00  0.00     0.002 A 
ATOM     21  C   UNL d   1      33.102  18.535 -22.315  0.00  0.00     0.027 A 
BRANCH  17  22
ATOM     22  O   UNL d   1      32.496  19.035 -24.350  0.00  0.00    -0.326 OA
ATOM     23  C   UNL d   1      32.346  18.715 -25.090  0.00  0.00     0.181 C 
ENDBRANCH  17  22
ENDBRANCH  15  16
ENDBRANCH  14  15
ENDBRANCH  13  14
ENDBRANCH   1  13
TORSDOF 6
ENDMDL
MODEL 5
REMARK VINA RESULT:      -0.6      1.200      5.236
REMARK  6 active torsions:
REMARK  status: ('A' for Active; 'I' for Inactive)
REMARK    1  A    between atoms: C_11  and  N_2 
REMARK    2  A    between atoms: O_15  and  C_9 
REMARK    3  A    between atoms: C_10  and  O_14 
REMARK    4  A    between atoms: C_16  and  C_11 
REMARK    5  A    between atoms: O_14  and  C_17 
REMARK    6  A    between atoms: C_17  and  C_16 
ROOT
ATOM      1  C   UNL d   1      32.293  19.841 -22.288  0.00  0.00     0.087 C 
ENDROOT
BRANCH   1   2
ATOM      2  N   UNL d   1      32.617  19.606 -23.013  0.00  0.00    -0.251 N 
ATOM      3  C   UNL d   1      33.036  20.061 -23.563  0.00  0.00     0.378 A 
ATOM      4  O   UNL d   1      33.241  19.565 -24.199  0.00  0.00    -0.258 OA
ATOM      5  O   UNL d   1      33.219  20.863 -23.494  0.00  0.00    -0.237 OA
ATOM      6  C   UNL d   1      32.949  18.808 -24.040  0.00  0.00     0.121 A 
ATOM      7  C   UNL d   1      32.978  18.090 -24.462  0.00  0.00     0.026 A 
ATOM      8  C   UNL d   1      32.563  18.833 -23.307  0.00  0.00     0.092 A 
ATOM      9  C   UNL d   1      32.628  17.412 -24.154  0.00  0.00     0.002 A 
ATOM     10  C   UNL d   1      32.243  17.441 -23.420  0.00  0.00     0.002 A 
ATOM     11  C   UNL d   1      32.211  18.148 -22.999  0.00  0.00     0.020 A 
ATOM     12  C   UNL d   1      31.892  16.763 -23.112  0.00  0.00     0.000 C 
ENDBRANCH   1   2
BRANCH   1  13
ATOM     13  C   UNL d   1      32.681  20.389 -21.815  0.00  0.00     0.046 C 
BRANCH  13  14
ATOM     14  C   UNL d   1      32.253  20.938 -21.369  0.00  0.00     0.124 C 
BRANCH  14  15
ATOM     15  O   UNL d   1      32.575  21.260 -20.692  0.00  0.00    -0.303 OA
BRANCH  15  16
ATOM     16  C   UNL d   1      32.476  22.070 -20.597  0.00  0.00     0.122 A 
ATOM     17  C   UNL d   1      32.811  22.454 -19.941  0.00  0.00     0.117 A 
ATOM     18  C   UNL d   1      32.711  23.268 -19.847  0.00  0.00     0.026 A 
ATOM     19  C   UNL d   1      32.279  23.691 -20.408  0.00  0.00     0.002 A 
ATOM     20  C   UNL d   1      31.949  23.305 -21.056  0.00  0.00     0.002 A 
ATOM     21  C   UNL d   1      32.048  22.494 -21.151  0.00  0.00     0.027 A 
BRANCH  17  22
ATOM     22  O   UNL d   1      33.241  22.022 -19.387  0.00  0.00    -0.326 OA
ATOM     23  C   UNL d   1      33.207  22.150 -18.578  0.00  0.00     0.181 C 
ENDBRANCH  17  22
ENDBRANCH  15  16
ENDBRANCH  14  15
ENDBRANCH  13  14
ENDBRANCH   1  13
TORSDOF 6
ENDMDL
