MODEL 1
REMARK VINA RESULT:      -3.5      0.000      0.000
REMARK  5 active torsions:
REMARK  status: ('A' for Active; 'I' for Inactive)
REMARK    1  A    between atoms: N_3  and  S_1 
REMARK    2  A    between atoms: C_4  and  S_1 
REMARK    3  A    between atoms: S_2  and  N_5 
REMARK    4  A    between atoms: C_8  and  N_3 
REMARK    5  A    between atoms: N_5  and  C_15 
ROOT
ATOM      1  N   UNL d   1      32.465  17.157 -24.023  0.00  0.00    -0.229 N 
ATOM      2  C   UNL d   1      33.017  16.775 -24.498  0.00  0.00     0.111 C 
ENDROOT
BRANCH   1   3
ATOM      3  S   UNL d   1      31.713  16.827 -23.917  0.00  0.00     0.271 S 
ATOM      4  O   UNL d   1      31.807  17.501 -24.383  0.00  0.00    -0.200 OA
ATOM      5  O   UNL d   1      32.375  16.476 -23.551  0.00  0.00    -0.200 OA
BRANCH   3   6
ATOM      6  C   UNL d   1      30.960  16.497 -23.810  0.00  0.00     0.104 A 
ATOM      7  C   UNL d   1      30.323  16.763 -24.261  0.00  0.00     0.013 A 
ATOM      8  C   UNL d   1      29.584  16.439 -24.157  0.00  0.00     0.001 A 
ATOM      9  C   UNL d   1      29.468  15.844 -23.600  0.00  0.00     0.000 A 
ATOM     10  C   UNL d   1      30.101  15.575 -23.147  0.00  0.00     0.001 A 
ATOM     11  C   UNL d   1      28.712  15.520 -23.500  0.00  0.00     0.000 C 
ATOM     12  C   UNL d   1      30.844  15.901 -23.252  0.00  0.00     0.013 A 
ENDBRANCH   3   6
ENDBRANCH   1   3
BRANCH   1  13
ATOM     13  C   UNL d   1      32.659  17.871 -23.652  0.00  0.00     0.075 A 
ATOM     14  C   UNL d   1      32.955  17.864 -22.878  0.00  0.00     0.020 A 
ATOM     15  C   UNL d   1      33.147  18.577 -22.511  0.00  0.00     0.021 A 
ATOM     16  C   UNL d   1      33.046  19.297 -22.915  0.00  0.00     0.094 A 
ATOM     17  C   UNL d   1      32.751  19.294 -23.687  0.00  0.00     0.021 A 
ATOM     18  C   UNL d   1      32.559  18.584 -24.053  0.00  0.00     0.020 A 
BRANCH  16  19
ATOM     19  N   UNL d   1      33.240  20.011 -22.544  0.00  0.00    -0.162 NA
BRANCH  19  20
ATOM     20  S   UNL d   1      33.020  20.146 -21.751  0.00  0.00     0.266 S 
ATOM     21  O   UNL d   1      33.220  19.599 -21.171  0.00  0.00    -0.203 OA
ATOM     22  O   UNL d   1      32.820  20.698 -22.345  0.00  0.00    -0.203 OA
ATOM     23  C   UNL d   1      32.600  20.833 -21.552  0.00  0.00     0.165 C 
ENDBRANCH  19  20
ENDBRANCH  16  19
ENDBRANCH   1  13
TORSDOF 5
ENDMDL
MODEL 2
REMARK VINA RESULT:      -2.1      1.130      1.683
REMARK  5 active torsions:
REMARK  status: ('A' for Active; 'I' for Inactive)
REMARK    1  A    between atoms: N_3  and  S_1 
REMARK    2  A    between atoms: C_4  and  S_1 
REMARK    3  A    between atoms: S_2  and  N_5 
REMARK    4  A    between atoms: C_8  and  N_3 
REMARK    5  A    between atoms: N_5  and  C_15 
ROOT
ATOM      1  N   UNL d   1      32.764  18.828 -24.146  0.00  0.00    -0.229 N 
ATOM      2  C   UNL d   1      33.117  19.023 -24.863  0.00  0.00     0.111 C 
ENDROOT
BRANCH   1   3
ATOM      3  S   UNL d   1      32.289  18.152 -24.090  0.00  0.00     0.271 S 
ATOM      4  O   UNL d   1      33.088  18.115 -23.887  0.00  0.00    -0.200 OA
ATOM      5  O   UNL d   1      31.957  18.871 -24.352  0.00  0.00    -0.200 OA
BRANCH   3   6
ATOM      6  C   UNL d   1      31.814  17.475 -24.033  0.00  0.00     0.104 A 
ATOM      7  C   UNL d   1      31.038  17.489 -24.314  0.00  0.00     0.013 A 
ATOM      8  C   UNL d   1      30.572  16.825 -24.259  0.00  0.00     0.001 A 
ATOM      9  C   UNL d   1      30.870  16.136 -23.923  0.00  0.00     0.000 A 
ATOM     10  C   UNL d   1      31.644  16.117 -23.641  0.00  0.00     0.001 A 
ATOM     11  C   UNL d   1      30.388  15.464 -23.870  0.00  0.00     0.000 C 
ATOM     12  C   UNL d   1      32.113  16.785 -23.696  0.00  0.00     0.013 A 
ENDBRANCH   3   6
ENDBRANCH   1   3
BRANCH   1  13
ATOM     13  C   UNL d   1      32.883  19.306 -23.481  0.00  0.00     0.075 A 
ATOM     14  C   UNL d   1      32.786  20.126 -23.542  0.00  0.00     0.020 A 
ATOM     15  C   UNL d   1      32.906  20.599 -22.877  0.00  0.00     0.021 A 
ATOM     16  C   UNL d   1      33.121  20.255 -22.151  0.00  0.00     0.094 A 
ATOM     17  C   UNL d   1      33.216  19.435 -22.099  0.00  0.00     0.021 A 
ATOM     18  C   UNL d   1      33.097  18.964 -22.762  0.00  0.00     0.020 A 
BRANCH  16  19
ATOM     19  N   UNL d   1      33.241  20.732 -21.485  0.00  0.00    -0.162 NA
BRANCH  19  20
ATOM     20  S   UNL d   1      32.619  21.202 -21.189  0.00  0.00     0.266 S 
ATOM     21  O   UNL d   1      32.148  21.634 -21.706  0.00  0.00    -0.203 OA
ATOM     22  O   UNL d   1      33.100  20.762 -20.668  0.00  0.00    -0.203 OA
ATOM     23  C   UNL d   1      32.479  21.233 -20.372  0.00  0.00     0.165 C 
ENDBRANCH  19  20
ENDBRANCH  16  19
ENDBRANCH   1  13
TORSDOF 5
ENDMDL
MODEL 3
REMARK VINA RESULT:      -1.9      1.395      4.371
REMARK  5 active torsions:
REMARK  status: ('A' for Active; 'I' for Inactive)
REMARK    1  A    between atoms: N_3  and  S_1 
REMARK    2  A    between atoms: C_4  and  S_1 
REMARK    3  A    between atoms: S_2  and  N_5 
REMARK    4  A    between atoms: C_8  and  N_3 
REMARK    5  A    between atoms: N_5  and  C_15 
ROOT
ATOM      1  N   UNL d   1      32.804  18.882 -24.240  0.00  0.00    -0.229 N 
ATOM      2  C   UNL d   1      33.102  19.108 -24.973  0.00  0.00     0.111 C 
ENDROOT
BRANCH   1   3
ATOM      3  S   UNL d   1      32.892  19.383 -23.587  0.00  0.00     0.271 S 
ATOM      4  O   UNL d   1      32.461  19.632 -24.244  0.00  0.00    -0.200 OA
ATOM      5  O   UNL d   1      33.241  18.626 -23.577  0.00  0.00    -0.200 OA
BRANCH   3   6
ATOM      6  C   UNL d   1      32.979  19.885 -22.933  0.00  0.00     0.104 A 
ATOM      7  C   UNL d   1      33.119  20.691 -23.044  0.00  0.00     0.013 A 
ATOM      8  C   UNL d   1      33.204  21.183 -22.402  0.00  0.00     0.001 A 
ATOM      9  C   UNL d   1      33.152  20.881 -21.639  0.00  0.00     0.000 A 
ATOM     10  C   UNL d   1      33.013  20.078 -21.522  0.00  0.00     0.001 A 
ATOM     11  C   UNL d   1      33.241  21.390 -20.990  0.00  0.00     0.000 C 
ATOM     12  C   UNL d   1      32.927  19.582 -22.167  0.00  0.00     0.013 A 
ENDBRANCH   3   6
ENDBRANCH   1   3
BRANCH   1  13
ATOM     13  C   UNL d   1      32.418  18.155 -24.154  0.00  0.00     0.075 A 
ATOM     14  C   UNL d   1      31.618  18.088 -24.359  0.00  0.00     0.020 A 
ATOM     15  C   UNL d   1      31.236  17.362 -24.272  0.00  0.00     0.021 A 
ATOM     16  C   UNL d   1      31.652  16.703 -23.981  0.00  0.00     0.094 A 
ATOM     17  C   UNL d   1      32.449  16.779 -23.778  0.00  0.00     0.021 A 
ATOM     18  C   UNL d   1      32.829  17.503 -23.865  0.00  0.00     0.020 A 
BRANCH  16  19
ATOM     19  N   UNL d   1      31.266  15.976 -23.894  0.00  0.00    -0.162 NA
BRANCH  19  20
ATOM     20  S   UNL d   1      30.443  15.950 -23.762  0.00  0.00     0.266 S 
ATOM     21  O   UNL d   1      29.927  16.272 -24.314  0.00  0.00    -0.203 OA
ATOM     22  O   UNL d   1      30.971  15.624 -23.204  0.00  0.00    -0.203 OA
ATOM     23  C   UNL d   1      30.148  15.598 -23.071  0.00  0.00     0.165 C 
ENDBRANCH  19  20
ENDBRANCH  16  19
ENDBRANCH   1  13
TORSDOF 5
ENDMDL
MODEL 4
REMARK VINA RESULT:      -1.8      2.530      6.194
REMARK  5 active torsions:
REMARK  status: ('A' for Active; 'I' for Inactive)
REMARK    1  A    between atoms: N_3  and  S_1 
REMARK    2  A    between atoms: C_4  and  S_1 
REMARK    3  A    between atoms: S_2  and  N_5 
REMARK    4  A    between atoms: C_8  and  N_3 
REMARK    5  A    between atoms: N_5  and  C_15 
ROOT
ATOM      1  N   UNL d   1      32.386  22.405 -21.349  0.00  0.00    -0.229 N 
ATOM      2  C   UNL d   1      32.110  22.919 -21.928  0.00  0.00     0.111 C 
ENDROOT
BRANCH   1   3
ATOM      3  S   UNL d   1      32.450  22.662 -20.564  0.00  0.00     0.271 S 
ATOM      4  O   UNL d   1      31.842  22.150 -20.784  0.00  0.00    -0.200 OA
ATOM      5  O   UNL d   1      33.003  22.922 -21.132  0.00  0.00    -0.200 OA
BRANCH   3   6
ATOM      6  C   UNL d   1      32.514  22.920 -19.779  0.00  0.00     0.104 A 
ATOM      7  C   UNL d   1      33.178  22.724 -19.331  0.00  0.00     0.013 A 
ATOM      8  C   UNL d   1      33.241  22.977 -18.561  0.00  0.00     0.001 A 
ATOM      9  C   UNL d   1      32.642  23.429 -18.223  0.00  0.00     0.000 A 
ATOM     10  C   UNL d   1      31.976  23.627 -18.666  0.00  0.00     0.001 A 
ATOM     11  C   UNL d   1      32.714  23.683 -17.437  0.00  0.00     0.000 C 
ATOM     12  C   UNL d   1      31.913  23.373 -19.441  0.00  0.00     0.013 A 
ENDBRANCH   3   6
ENDBRANCH   1   3
BRANCH   1  13
ATOM     13  C   UNL d   1      32.600  21.631 -21.548  0.00  0.00     0.075 A 
ATOM     14  C   UNL d   1      32.866  21.462 -22.315  0.00  0.00     0.020 A 
ATOM     15  C   UNL d   1      33.078  20.690 -22.510  0.00  0.00     0.021 A 
ATOM     16  C   UNL d   1      33.027  20.085 -21.941  0.00  0.00     0.094 A 
ATOM     17  C   UNL d   1      32.761  20.262 -21.179  0.00  0.00     0.021 A 
ATOM     18  C   UNL d   1      32.549  21.032 -20.985  0.00  0.00     0.020 A 
BRANCH  16  19
ATOM     19  N   UNL d   1      33.241  19.310 -22.140  0.00  0.00    -0.162 NA
BRANCH  19  20
ATOM     20  S   UNL d   1      33.093  19.017 -22.907  0.00  0.00     0.266 S 
ATOM     21  O   UNL d   1      33.213  19.499 -23.561  0.00  0.00    -0.203 OA
ATOM     22  O   UNL d   1      32.972  18.532 -22.238  0.00  0.00    -0.203 OA
ATOM     23  C   UNL d   1      32.824  18.239 -23.005  0.00  0.00     0.165 C 
ENDBRANCH  19  20
ENDBRANCH  16  19
ENDBRANCH   1  13
TORSDOF 5
ENDMDL
