MODEL 1
REMARK VINA RESULT:      26.1      0.000      0.000
REMARK  3 active torsions:
REMARK  status: ('A' for Active; 'I' for Inactive)
REMARK    1  A    between atoms: N_6  and  C_1 
REMARK    2  A    between atoms: C_14  and  N_4 
REMARK    3  A    between atoms: C_7  and  N_6 
ROOT
ATOM      1  C   UNL d   1      45.662 -15.835  44.428  0.00  0.00     0.157 A 
ATOM      2  C   UNL d   1      45.889 -15.090  44.153  0.00  0.00     0.298 A 
ATOM      3  N   UNL d   1      44.654 -15.057  44.546  0.00  0.00    -0.238 N 
ATOM      4  N   UNL d   1      45.275 -14.602  44.221  0.00  0.00    -0.209 N 
ATOM      5  C   UNL d   1      44.952 -15.794  44.648  0.00  0.00     0.104 A 
ATOM      6  O   UNL d   1      46.642 -14.887  43.854  0.00  0.00    -0.263 OA
ATOM      7  C   UNL d   1      43.871 -14.830  44.739  0.00  0.00     0.120 C 
ATOM      8  C   UNL d   1      44.532 -16.404  44.949  0.00  0.00     0.022 C 
ENDROOT
BRANCH   1   9
ATOM      9  N   UNL d   1      46.121 -16.516  44.463  0.00  0.00    -0.239 NA
BRANCH   9  10
ATOM     10  C   UNL d   1      46.092 -17.049  43.859  0.00  0.00     0.082 A 
ATOM     11  C   UNL d   1      46.265 -17.867  43.982  0.00  0.00     0.021 A 
ATOM     12  C   UNL d   1      46.238 -18.414  43.373  0.00  0.00     0.040 A 
ATOM     13  C   UNL d   1      46.466 -18.114  44.737  0.00  0.00     0.002 A 
ATOM     14  C   UNL d   1      46.408 -19.207  43.506  0.00  0.00     0.003 A 
ATOM     15  C   UNL d   1      46.037 -18.167  42.619  0.00  0.00     0.196 A 
ATOM     16  C   UNL d   1      46.609 -19.438  44.273  0.00  0.00     0.000 A 
ATOM     17  C   UNL d   1      46.639 -18.903  44.883  0.00  0.00     0.000 A 
ATOM     18  C   UNL d   1      45.863 -17.373  42.474  0.00  0.00     0.044 A 
ATOM     19  O   UNL d   1      46.010 -18.744  41.987  0.00  0.00    -0.287 OA
ATOM     20  C   UNL d   1      45.893 -16.805  43.114  0.00  0.00     0.022 A 
ENDBRANCH   9  10
ENDBRANCH   1   9
BRANCH   4  21
ATOM     21  C   UNL d   1      45.262 -13.809  44.012  0.00  0.00     0.085 A 
ATOM     22  C   UNL d   1      45.582 -13.237  44.539  0.00  0.00     0.019 A 
ATOM     23  C   UNL d   1      45.573 -12.431  44.338  0.00  0.00     0.002 A 
ATOM     24  C   UNL d   1      45.251 -12.173  43.615  0.00  0.00     0.000 A 
ATOM     25  C   UNL d   1      44.931 -12.733  43.085  0.00  0.00     0.002 A 
ATOM     26  C   UNL d   1      44.943 -13.539  43.294  0.00  0.00     0.019 A 
ENDBRANCH   4  21
TORSDOF 3
ENDMDL
