MODEL 1
REMARK VINA RESULT:      -2.0      0.000      0.000
REMARK  6 active torsions:
REMARK  status: ('A' for Active; 'I' for Inactive)
REMARK    1  A    between atoms: N_2  and  S_1 
REMARK    2  A    between atoms: C_6  and  S_1 
REMARK    3  A    between atoms: N_4  and  C_3 
REMARK       I    between atoms: C_5  and  N_4 
REMARK       I    between atoms: N_10  and  C_5 
REMARK    4  A    between atoms: C_7  and  C_11 
REMARK    5  A    between atoms: O_20  and  C_7 
REMARK    6  A    between atoms: C_14  and  N_10 
ROOT
ATOM      1  N   UNL d   1      32.693  16.763 -23.148  0.00  0.00    -0.214 N 
ATOM      2  C   UNL d   1      32.113  16.233 -23.422  0.00  0.00     0.162 A 
ATOM      3  C   UNL d   1      33.241  16.329 -22.699  0.00  0.00     0.093 A 
ATOM      4  C   UNL d   1      32.304  15.475 -23.143  0.00  0.00     0.040 A 
ATOM      5  C   UNL d   1      32.992  15.536 -22.702  0.00  0.00     0.023 A 
ENDROOT
BRANCH   2   6
ATOM      6  N   UNL d   1      31.455  16.438 -23.898  0.00  0.00    -0.173 NA
ATOM      7  C   UNL d   1      31.332  16.047 -24.611  0.00  0.00     0.370 C 
ATOM      8  N   UNL d   1      30.681  16.248 -25.083  0.00  0.00    -0.191 NA
ATOM      9  O   UNL d   1      31.849  15.454 -24.864  0.00  0.00    -0.242 OA
BRANCH   8  10
ATOM     10  C   UNL d   1      30.160  16.838 -24.838  0.00  0.00     0.086 A 
ATOM     11  C   UNL d   1      29.534  16.650 -24.334  0.00  0.00     0.025 A 
ATOM     12  C   UNL d   1      29.013  17.240 -24.089  0.00  0.00     0.065 A 
ATOM     13  C   UNL d   1      29.119  18.020 -24.348  0.00  0.00     0.005 A 
ATOM     14  C   UNL d   1      29.745  18.202 -24.851  0.00  0.00     0.002 A 
ATOM     15  C   UNL d   1      30.266  17.613 -25.097  0.00  0.00     0.019 A 
BRANCH  12  16
ATOM     16  C   UNL d   1      28.387  17.044 -23.584  0.00  0.00     0.296 C 
ATOM     17  O   UNL d   1      27.926  17.628 -23.245  0.00  0.00    -0.259 OA
BRANCH  16  18
ATOM     18  O   UNL d   1      28.233  16.249 -23.424  0.00  0.00    -0.296 OA
ATOM     19  C   UNL d   1      27.493  15.931 -23.566  0.00  0.00     0.185 C 
ENDBRANCH  16  18
ENDBRANCH  12  16
ENDBRANCH   8  10
ENDBRANCH   2   6
BRANCH   1  20
ATOM     20  S   UNL d   1      32.799  17.572 -23.241  0.00  0.00     0.272 S 
ATOM     21  O   UNL d   1      32.416  17.732 -22.559  0.00  0.00    -0.200 OA
ATOM     22  O   UNL d   1      33.199  17.447 -23.948  0.00  0.00    -0.200 OA
BRANCH  20  23
ATOM     23  C   UNL d   1      32.903  18.397 -23.328  0.00  0.00     0.104 A 
ATOM     24  C   UNL d   1      33.045  18.719 -24.072  0.00  0.00     0.014 A 
ATOM     25  C   UNL d   1      33.145  19.525 -24.149  0.00  0.00     0.012 A 
ATOM     26  C   UNL d   1      33.106  20.025 -23.485  0.00  0.00     0.058 A 
ATOM     27  C   UNL d   1      32.964  19.703 -22.742  0.00  0.00     0.012 A 
ATOM     28 CL   UNL d   1      33.208  20.842 -23.567  0.00  0.00    -0.082 Cl
ATOM     29  C   UNL d   1      32.861  18.880 -22.659  0.00  0.00     0.014 A 
ENDBRANCH  20  23
ENDBRANCH   1  20
TORSDOF 6
ENDMDL
