MODEL 1
REMARK VINA RESULT:      -2.8      0.000      0.000
REMARK  1 active torsions:
REMARK  status: ('A' for Active; 'I' for Inactive)
REMARK    1  A    between atoms: C_15  and  C_6 
ROOT
ATOM      1  C   UNL d   1      58.589   0.374  30.355  0.00  0.00     0.087 A 
ATOM      2  C   UNL d   1      59.955   0.374  29.924  0.00  0.00     0.111 A 
ATOM      3  C   UNL d   1      58.831   0.579  31.118  0.00  0.00     0.109 A 
ATOM      4  C   UNL d   1      57.789   0.270  30.182  0.00  0.00     0.302 A 
ATOM      5  C   UNL d   1      60.192   0.580  30.694  0.00  0.00     0.213 A 
ATOM      6  C   UNL d   1      59.142   0.269  29.752  0.00  0.00     0.020 A 
ATOM      7  O   UNL d   1      59.629   0.681  31.283  0.00  0.00    -0.287 OA
ATOM      8  C   UNL d   1      58.275   0.682  31.713  0.00  0.00     0.050 A 
ATOM      9  O   UNL d   1      57.223   0.375  30.789  0.00  0.00    -0.273 OA
ATOM     10  C   UNL d   1      60.511   0.270  29.326  0.00  0.00     0.105 C 
ATOM     11  C   UNL d   1      57.464   0.579  31.548  0.00  0.00     0.105 A 
ATOM     12  N   UNL d   1      61.080   0.168  28.731  0.00  0.00    -0.191 NA
ATOM     13  O   UNL d   1      57.546   0.065  29.419  0.00  0.00    -0.259 OA
ATOM     14  N   UNL d   1      60.998   0.682  30.856  0.00  0.00    -0.120 N 
ATOM     15  C   UNL d   1      56.900   0.682  32.146  0.00  0.00     0.027 C 
ENDROOT
BRANCH   6  16
ATOM     16  C   UNL d   1      58.903   0.067  29.001  0.00  0.00     0.001 C 
ATOM     17  C   UNL d   1      58.868  -0.725  28.770  0.00  0.00     0.000 C 
ATOM     18  C   UNL d   1      58.695   0.652  28.464  0.00  0.00     0.000 C 
ENDBRANCH   6  16
TORSDOF 1
ENDMDL
MODEL 2
REMARK VINA RESULT:      -2.5      1.600      2.315
REMARK  1 active torsions:
REMARK  status: ('A' for Active; 'I' for Inactive)
REMARK    1  A    between atoms: C_15  and  C_6 
ROOT
ATOM      1  C   UNL d   1      59.150  -0.523  29.729  0.00  0.00     0.087 A 
ATOM      2  C   UNL d   1      59.700  -1.729  29.184  0.00  0.00     0.111 A 
ATOM      3  C   UNL d   1      58.452  -0.928  29.913  0.00  0.00     0.109 A 
ATOM      4  C   UNL d   1      59.230   0.278  29.906  0.00  0.00     0.302 A 
ATOM      5  C   UNL d   1      58.996  -2.129  29.372  0.00  0.00     0.213 A 
ATOM      6  C   UNL d   1      59.778  -0.915  29.365  0.00  0.00     0.020 A 
ATOM      7  O   UNL d   1      58.379  -1.725  29.734  0.00  0.00    -0.287 OA
ATOM      8  C   UNL d   1      57.831  -0.532  30.275  0.00  0.00     0.050 A 
ATOM      9  O   UNL d   1      58.596   0.681  30.275  0.00  0.00    -0.273 OA
ATOM     10  C   UNL d   1      60.324  -2.124  28.821  0.00  0.00     0.105 C 
ATOM     11  C   UNL d   1      57.903   0.279  30.458  0.00  0.00     0.105 A 
ATOM     12  N   UNL d   1      60.947  -2.531  28.455  0.00  0.00    -0.191 NA
ATOM     13  O   UNL d   1      59.927   0.682  29.722  0.00  0.00    -0.259 OA
ATOM     14  N   UNL d   1      58.926  -2.934  29.190  0.00  0.00    -0.120 N 
ATOM     15  C   UNL d   1      57.277   0.682  30.823  0.00  0.00     0.027 C 
ENDROOT
BRANCH   6  16
ATOM     16  C   UNL d   1      60.465  -0.517  29.184  0.00  0.00     0.001 C 
ATOM     17  C   UNL d   1      61.110  -0.536  29.700  0.00  0.00     0.000 C 
ATOM     18  C   UNL d   1      60.521  -0.092  28.485  0.00  0.00     0.000 C 
ENDBRANCH   6  16
TORSDOF 1
ENDMDL
MODEL 3
REMARK VINA RESULT:      -2.4      2.522      4.333
REMARK  1 active torsions:
REMARK  status: ('A' for Active; 'I' for Inactive)
REMARK    1  A    between atoms: C_15  and  C_6 
ROOT
ATOM      1  C   UNL d   1      56.976   0.383  32.623  0.00  0.00     0.087 A 
ATOM      2  C   UNL d   1      56.804   0.383  34.045  0.00  0.00     0.111 A 
ATOM      3  C   UNL d   1      57.772   0.582  32.721  0.00  0.00     0.109 A 
ATOM      4  C   UNL d   1      56.658   0.283  31.868  0.00  0.00     0.302 A 
ATOM      5  C   UNL d   1      57.606   0.583  34.136  0.00  0.00     0.213 A 
ATOM      6  C   UNL d   1      56.484   0.282  33.277  0.00  0.00     0.020 A 
ATOM      7  O   UNL d   1      58.081   0.681  33.475  0.00  0.00    -0.287 OA
ATOM      8  C   UNL d   1      58.255   0.682  32.065  0.00  0.00     0.050 A 
ATOM      9  O   UNL d   1      57.151   0.385  31.200  0.00  0.00    -0.273 OA
ATOM     10  C   UNL d   1      56.317   0.283  34.702  0.00  0.00     0.105 C 
ATOM     11  C   UNL d   1      57.943   0.582  31.298  0.00  0.00     0.105 A 
ATOM     12  N   UNL d   1      55.836   0.184  35.369  0.00  0.00    -0.191 NA
ATOM     13  O   UNL d   1      55.862   0.085  31.770  0.00  0.00    -0.259 OA
ATOM     14  N   UNL d   1      57.913   0.681  34.899  0.00  0.00    -0.120 N 
ATOM     15  C   UNL d   1      58.428   0.682  30.634  0.00  0.00     0.027 C 
ENDROOT
BRANCH   6  16
ATOM     16  C   UNL d   1      55.700   0.086  33.180  0.00  0.00     0.001 C 
ATOM     17  C   UNL d   1      55.475  -0.698  33.055  0.00  0.00     0.000 C 
ATOM     18  C   UNL d   1      55.124   0.670  33.207  0.00  0.00     0.000 C 
ENDBRANCH   6  16
TORSDOF 1
ENDMDL
MODEL 4
REMARK VINA RESULT:      -2.0      2.404      3.648
REMARK  1 active torsions:
REMARK  status: ('A' for Active; 'I' for Inactive)
REMARK    1  A    between atoms: C_15  and  C_6 
ROOT
ATOM      1  C   UNL d   1      59.543  -2.194  28.938  0.00  0.00     0.087 A 
ATOM      2  C   UNL d   1      59.423  -0.799  29.242  0.00  0.00     0.111 A 
ATOM      3  C   UNL d   1      58.718  -2.259  28.922  0.00  0.00     0.109 A 
ATOM      4  C   UNL d   1      60.019  -2.852  28.795  0.00  0.00     0.302 A 
ATOM      5  C   UNL d   1      58.595  -0.872  29.224  0.00  0.00     0.213 A 
ATOM      6  C   UNL d   1      59.904  -1.469  29.097  0.00  0.00     0.020 A 
ATOM      7  O   UNL d   1      58.251  -1.600  29.064  0.00  0.00    -0.287 OA
ATOM      8  C   UNL d   1      58.366  -2.983  28.763  0.00  0.00     0.050 A 
ATOM      9  O   UNL d   1      59.659  -3.589  28.633  0.00  0.00    -0.273 OA
ATOM     10  C   UNL d   1      59.779  -0.074  29.401  0.00  0.00     0.105 C 
ATOM     11  C   UNL d   1      58.840  -3.654  28.617  0.00  0.00     0.105 A 
ATOM     12  N   UNL d   1      60.127   0.661  29.563  0.00  0.00    -0.191 NA
ATOM     13  O   UNL d   1      60.842  -2.787  28.811  0.00  0.00    -0.259 OA
ATOM     14  N   UNL d   1      58.127  -0.204  29.369  0.00  0.00    -0.120 N 
ATOM     15  C   UNL d   1      58.487  -4.387  28.456  0.00  0.00     0.027 C 
ENDROOT
BRANCH   6  16
ATOM     16  C   UNL d   1      60.715  -1.405  29.113  0.00  0.00     0.001 C 
ATOM     17  C   UNL d   1      61.125  -1.100  28.464  0.00  0.00     0.000 C 
ATOM     18  C   UNL d   1      61.133  -1.645  29.776  0.00  0.00     0.000 C 
ENDBRANCH   6  16
TORSDOF 1
ENDMDL
MODEL 5
REMARK VINA RESULT:      -2.0      3.305      4.462
REMARK  1 active torsions:
REMARK  status: ('A' for Active; 'I' for Inactive)
REMARK    1  A    between atoms: C_15  and  C_6 
ROOT
ATOM      1  C   UNL d   1      56.069   0.382  34.027  0.00  0.00     0.087 A 
ATOM      2  C   UNL d   1      57.234   0.384  33.192  0.00  0.00     0.111 A 
ATOM      3  C   UNL d   1      56.539   0.580  34.678  0.00  0.00     0.109 A 
ATOM      4  C   UNL d   1      55.255   0.281  34.112  0.00  0.00     0.302 A 
ATOM      5  C   UNL d   1      57.699   0.582  33.851  0.00  0.00     0.213 A 
ATOM      6  C   UNL d   1      56.407   0.282  33.281  0.00  0.00     0.020 A 
ATOM      7  O   UNL d   1      57.348   0.678  34.587  0.00  0.00    -0.287 OA
ATOM      8  C   UNL d   1      56.197   0.678  35.417  0.00  0.00     0.050 A 
ATOM      9  O   UNL d   1      54.907   0.381  34.866  0.00  0.00    -0.273 OA
ATOM     10  C   UNL d   1      57.575   0.285  32.449  0.00  0.00     0.105 C 
ATOM     11  C   UNL d   1      55.374   0.578  35.513  0.00  0.00     0.105 A 
ATOM     12  N   UNL d   1      57.928   0.187  31.705  0.00  0.00    -0.191 NA
ATOM     13  O   UNL d   1      54.786   0.083  33.461  0.00  0.00    -0.259 OA
ATOM     14  N   UNL d   1      58.516   0.681  33.754  0.00  0.00    -0.120 N 
ATOM     15  C   UNL d   1      55.025   0.676  36.258  0.00  0.00     0.027 C 
ENDROOT
BRANCH   6  16
ATOM     16  C   UNL d   1      55.944   0.087  32.640  0.00  0.00     0.001 C 
ATOM     17  C   UNL d   1      55.661   0.674  32.132  0.00  0.00     0.000 C 
ATOM     18  C   UNL d   1      55.755  -0.698  32.493  0.00  0.00     0.000 C 
ENDBRANCH   6  16
TORSDOF 1
ENDMDL
MODEL 6
REMARK VINA RESULT:      -1.8      1.549      2.184
REMARK  1 active torsions:
REMARK  status: ('A' for Active; 'I' for Inactive)
REMARK    1  A    between atoms: C_15  and  C_6 
ROOT
ATOM      1  C   UNL d   1      58.153  -0.627  30.633  0.00  0.00     0.087 A 
ATOM      2  C   UNL d   1      58.851  -1.308  29.582  0.00  0.00     0.111 A 
ATOM      3  C   UNL d   1      57.642  -1.273  30.709  0.00  0.00     0.109 A 
ATOM      4  C   UNL d   1      58.066   0.037  31.115  0.00  0.00     0.302 A 
ATOM      5  C   UNL d   1      58.333  -1.953  29.664  0.00  0.00     0.213 A 
ATOM      6  C   UNL d   1      58.760  -0.635  30.073  0.00  0.00     0.020 A 
ATOM      7  O   UNL d   1      57.735  -1.929  30.226  0.00  0.00    -0.287 OA
ATOM      8  C   UNL d   1      57.042  -1.258  31.267  0.00  0.00     0.050 A 
ATOM      9  O   UNL d   1      57.454   0.051  31.684  0.00  0.00    -0.273 OA
ATOM     10  C   UNL d   1      59.454  -1.320  29.022  0.00  0.00     0.105 C 
ATOM     11  C   UNL d   1      56.946  -0.591  31.759  0.00  0.00     0.105 A 
ATOM     12  N   UNL d   1      60.059  -1.343  28.455  0.00  0.00    -0.191 NA
ATOM     13  O   UNL d   1      58.577   0.681  31.039  0.00  0.00    -0.259 OA
ATOM     14  N   UNL d   1      58.430  -2.614  29.175  0.00  0.00    -0.120 N 
ATOM     15  C   UNL d   1      56.340  -0.573  32.325  0.00  0.00     0.027 C 
ENDROOT
BRANCH   6  16
ATOM     16  C   UNL d   1      59.263   0.000  29.998  0.00  0.00     0.001 C 
ATOM     17  C   UNL d   1      59.086   0.617  29.478  0.00  0.00     0.000 C 
ATOM     18  C   UNL d   1      59.953   0.033  30.441  0.00  0.00     0.000 C 
ENDBRANCH   6  16
TORSDOF 1
ENDMDL
MODEL 7
REMARK VINA RESULT:      -0.7     10.241     10.847
REMARK  1 active torsions:
REMARK  status: ('A' for Active; 'I' for Inactive)
REMARK    1  A    between atoms: C_15  and  C_6 
ROOT
ATOM      1  C   UNL d   1      59.732  -9.445  33.234  0.00  0.00     0.087 A 
ATOM      2  C   UNL d   1      59.016  -9.465  34.475  0.00  0.00     0.111 A 
ATOM      3  C   UNL d   1      59.043  -9.669  32.835  0.00  0.00     0.109 A 
ATOM      4  C   UNL d   1      60.435  -9.321  32.821  0.00  0.00     0.302 A 
ATOM      5  C   UNL d   1      58.328  -9.691  34.068  0.00  0.00     0.213 A 
ATOM      6  C   UNL d   1      59.729  -9.341  34.052  0.00  0.00     0.020 A 
ATOM      7  O   UNL d   1      58.348  -9.790  33.253  0.00  0.00    -0.287 OA
ATOM      8  C   UNL d   1      59.054  -9.771  32.021  0.00  0.00     0.050 A 
ATOM      9  O   UNL d   1      60.445  -9.425  31.991  0.00  0.00    -0.273 OA
ATOM     10  C   UNL d   1      59.008  -9.363  35.292  0.00  0.00     0.105 C 
ATOM     11  C   UNL d   1      59.760  -9.648  31.595  0.00  0.00     0.105 A 
ATOM     12  N   UNL d   1      58.989  -9.262  36.115  0.00  0.00    -0.191 NA
ATOM     13  O   UNL d   1      61.124  -9.097  33.219  0.00  0.00    -0.259 OA
ATOM     14  N   UNL d   1      57.628  -9.812  34.493  0.00  0.00    -0.120 N 
ATOM     15  C   UNL d   1      59.774  -9.750  30.772  0.00  0.00     0.027 C 
ENDROOT
BRANCH   6  16
ATOM     16  C   UNL d   1      60.407  -9.120  34.445  0.00  0.00     0.001 C 
ATOM     17  C   UNL d   1      60.572  -8.323  34.583  0.00  0.00     0.000 C 
ATOM     18  C   UNL d   1      60.935  -9.691  34.707  0.00  0.00     0.000 C 
ENDBRANCH   6  16
TORSDOF 1
ENDMDL
MODEL 8
REMARK VINA RESULT:      -0.4      1.917      3.063
REMARK  1 active torsions:
REMARK  status: ('A' for Active; 'I' for Inactive)
REMARK    1  A    between atoms: C_15  and  C_6 
ROOT
ATOM      1  C   UNL d   1      59.252  -0.544  29.510  0.00  0.00     0.087 A 
ATOM      2  C   UNL d   1      58.145  -0.574  30.419  0.00  0.00     0.111 A 
ATOM      3  C   UNL d   1      59.398   0.243  29.717  0.00  0.00     0.109 A 
ATOM      4  C   UNL d   1      59.727  -0.927  28.955  0.00  0.00     0.302 A 
ATOM      5  C   UNL d   1      58.298   0.217  30.622  0.00  0.00     0.213 A 
ATOM      6  C   UNL d   1      58.630  -0.961  29.855  0.00  0.00     0.020 A 
ATOM      7  O   UNL d   1      58.922   0.618  30.270  0.00  0.00    -0.287 OA
ATOM      8  C   UNL d   1      60.019   0.651  29.370  0.00  0.00     0.050 A 
ATOM      9  O   UNL d   1      60.360  -0.510  28.602  0.00  0.00    -0.273 OA
ATOM     10  C   UNL d   1      57.523  -0.986  30.766  0.00  0.00     0.105 C 
ATOM     11  C   UNL d   1      60.505   0.272  28.808  0.00  0.00     0.105 A 
ATOM     12  N   UNL d   1      56.892  -1.391  31.122  0.00  0.00    -0.191 NA
ATOM     13  O   UNL d   1      59.582  -1.713  28.748  0.00  0.00    -0.259 OA
ATOM     14  N   UNL d   1      57.814   0.592  31.181  0.00  0.00    -0.120 N 
ATOM     15  C   UNL d   1      61.133   0.682  28.455  0.00  0.00     0.027 C 
ENDROOT
BRANCH   6  16
ATOM     16  C   UNL d   1      58.486  -1.736  29.651  0.00  0.00     0.001 C 
ATOM     17  C   UNL d   1      57.966  -1.919  29.037  0.00  0.00     0.000 C 
ATOM     18  C   UNL d   1      58.860  -2.343  30.057  0.00  0.00     0.000 C 
ENDBRANCH   6  16
TORSDOF 1
ENDMDL
MODEL 9
REMARK VINA RESULT:      -0.2      2.394      3.660
REMARK  1 active torsions:
REMARK  status: ('A' for Active; 'I' for Inactive)
REMARK    1  A    between atoms: C_15  and  C_6 
ROOT
ATOM      1  C   UNL d   1      59.963  -1.556  29.101  0.00  0.00     0.087 A 
ATOM      2  C   UNL d   1      58.902  -0.783  29.676  0.00  0.00     0.111 A 
ATOM      3  C   UNL d   1      59.534  -2.248  29.246  0.00  0.00     0.109 A 
ATOM      4  C   UNL d   1      60.705  -1.589  28.742  0.00  0.00     0.302 A 
ATOM      5  C   UNL d   1      58.477  -1.483  29.819  0.00  0.00     0.213 A 
ATOM      6  C   UNL d   1      59.656  -0.820  29.312  0.00  0.00     0.020 A 
ATOM      7  O   UNL d   1      58.797  -2.208  29.603  0.00  0.00    -0.287 OA
ATOM      8  C   UNL d   1      59.846  -2.977  29.034  0.00  0.00     0.050 A 
ATOM      9  O   UNL d   1      61.021  -2.332  28.526  0.00  0.00    -0.273 OA
ATOM     10  C   UNL d   1      58.592  -0.051  29.888  0.00  0.00     0.105 C 
ATOM     11  C   UNL d   1      60.595  -3.020  28.671  0.00  0.00     0.105 A 
ATOM     12  N   UNL d   1      58.270   0.682  30.106  0.00  0.00    -0.191 NA
ATOM     13  O   UNL d   1      61.133  -0.898  28.597  0.00  0.00    -0.259 OA
ATOM     14  N   UNL d   1      57.733  -1.437  30.180  0.00  0.00    -0.120 N 
ATOM     15  C   UNL d   1      60.913  -3.755  28.455  0.00  0.00     0.027 C 
ENDROOT
BRANCH   6  16
ATOM     16  C   UNL d   1      60.077  -0.139  29.168  0.00  0.00     0.001 C 
ATOM     17  C   UNL d   1      59.950   0.297  28.478  0.00  0.00     0.000 C 
ATOM     18  C   UNL d   1      60.635   0.121  29.711  0.00  0.00     0.000 C 
ENDBRANCH   6  16
TORSDOF 1
ENDMDL
