MODEL 1
REMARK VINA RESULT:      -7.4      0.000      0.000
REMARK  6 active torsions:
REMARK  status: ('A' for Active; 'I' for Inactive)
REMARK    1  A    between atoms: S_10  and  C_6 
REMARK    2  A    between atoms: C_14  and  S_10 
REMARK    3  A    between atoms: C_11  and  C_14 
REMARK       I    between atoms: N_15  and  C_11 
REMARK    4  A    between atoms: C_20  and  N_15 
REMARK    5  A    between atoms: C_18  and  C_20 
REMARK    6  A    between atoms: C_21  and  C_18 
ROOT
ATOM      1  C   UNL d   1      52.581  32.737  53.110  0.00  0.00     0.187 A 
ATOM      2  C   UNL d   1      53.046  33.167  53.638  0.00  0.00     0.081 A 
ATOM      3  N   UNL d   1      51.921  33.100  52.762  0.00  0.00    -0.197 NA
ATOM      4  N   UNL d   1      52.207  34.312  53.477  0.00  0.00    -0.200 NA
ATOM      5  C   UNL d   1      52.862  33.950  53.822  0.00  0.00     0.189 A 
ATOM      6  C   UNL d   1      51.732  33.890  52.945  0.00  0.00     0.198 A 
ATOM      7  C   UNL d   1      53.654  32.672  53.893  0.00  0.00     0.029 A 
ATOM      8  O   UNL d   1      52.896  31.986  53.038  0.00  0.00    -0.289 OA
ATOM      9  C   UNL d   1      53.566  31.936  53.523  0.00  0.00     0.102 A 
ATOM     10  N   UNL d   1      53.336  34.368  54.352  0.00  0.00    -0.127 N 
ATOM     11  C   UNL d   1      54.255  32.877  54.431  0.00  0.00     0.002 C 
ATOM     12  C   UNL d   1      54.057  31.280  53.623  0.00  0.00     0.027 C 
ENDROOT
BRANCH   6  13
ATOM     13  S   UNL d   1      51.077  34.244  52.597  0.00  0.00    -0.043 SA
BRANCH  13  14
ATOM     14  C   UNL d   1      50.373  34.324  53.015  0.00  0.00     0.101 C 
BRANCH  14  15
ATOM     15  C   UNL d   1      49.719  34.666  52.657  0.00  0.00     0.286 C 
ATOM     16  O   UNL d   1      49.563  34.526  51.855  0.00  0.00    -0.265 OA
ATOM     17  N   UNL d   1      49.216  35.150  53.091  0.00  0.00    -0.206 NA
BRANCH  17  18
ATOM     18  C   UNL d   1      48.556  35.495  52.726  0.00  0.00     0.106 C 
BRANCH  18  19
ATOM     19  C   UNL d   1      48.065  35.975  53.163  0.00  0.00     0.066 C 
BRANCH  19  20
ATOM     20  C   UNL d   1      47.453  36.386  52.785  0.00  0.00     0.236 C 
ATOM     21  O   UNL d   1      46.845  36.707  53.223  0.00  0.00    -0.283 OA
ENDBRANCH  19  20
ENDBRANCH  18  19
ENDBRANCH  17  18
ENDBRANCH  14  15
ENDBRANCH  13  14
ENDBRANCH   6  13
TORSDOF 6
ENDMDL
MODEL 2
REMARK VINA RESULT:      -6.5      0.808      1.336
REMARK  6 active torsions:
REMARK  status: ('A' for Active; 'I' for Inactive)
REMARK    1  A    between atoms: S_10  and  C_6 
REMARK    2  A    between atoms: C_14  and  S_10 
REMARK    3  A    between atoms: C_11  and  C_14 
REMARK       I    between atoms: N_15  and  C_11 
REMARK    4  A    between atoms: C_20  and  N_15 
REMARK    5  A    between atoms: C_18  and  C_20 
REMARK    6  A    between atoms: C_21  and  C_18 
ROOT
ATOM      1  C   UNL d   1      53.086  33.716  53.878  0.00  0.00     0.187 A 
ATOM      2  C   UNL d   1      53.255  32.932  53.685  0.00  0.00     0.081 A 
ATOM      3  N   UNL d   1      52.459  34.103  53.498  0.00  0.00    -0.197 NA
ATOM      4  N   UNL d   1      52.183  32.913  52.741  0.00  0.00    -0.200 NA
ATOM      5  C   UNL d   1      52.806  32.531  53.120  0.00  0.00     0.189 A 
ATOM      6  C   UNL d   1      52.004  33.701  52.926  0.00  0.00     0.198 A 
ATOM      7  C   UNL d   1      53.897  32.695  54.143  0.00  0.00     0.029 A 
ATOM      8  O   UNL d   1      53.618  33.963  54.449  0.00  0.00    -0.289 OA
ATOM      9  C   UNL d   1      54.127  33.332  54.620  0.00  0.00     0.102 A 
ATOM     10  N   UNL d   1      52.985  31.747  52.936  0.00  0.00    -0.127 N 
ATOM     11  C   UNL d   1      54.255  31.944  54.130  0.00  0.00     0.002 C 
ATOM     12  C   UNL d   1      54.749  33.332  55.163  0.00  0.00     0.027 C 
ENDROOT
BRANCH   6  13
ATOM     13  S   UNL d   1      51.384  34.090  52.553  0.00  0.00    -0.043 SA
BRANCH  13  14
ATOM     14  C   UNL d   1      50.633  34.100  52.891  0.00  0.00     0.101 C 
BRANCH  14  15
ATOM     15  C   UNL d   1      50.014  34.476  52.504  0.00  0.00     0.286 C 
ATOM     16  O   UNL d   1      49.972  34.465  51.677  0.00  0.00    -0.265 OA
ATOM     17  N   UNL d   1      49.433  34.865  52.936  0.00  0.00    -0.206 NA
BRANCH  17  18
ATOM     18  C   UNL d   1      48.810  35.244  52.544  0.00  0.00     0.106 C 
BRANCH  18  19
ATOM     19  C   UNL d   1      48.296  35.711  52.969  0.00  0.00     0.066 C 
BRANCH  19  20
ATOM     20  C   UNL d   1      47.624  36.023  52.599  0.00  0.00     0.236 C 
ATOM     21  O   UNL d   1      47.285  36.710  52.878  0.00  0.00    -0.283 OA
ENDBRANCH  19  20
ENDBRANCH  18  19
ENDBRANCH  17  18
ENDBRANCH  14  15
ENDBRANCH  13  14
ENDBRANCH   6  13
TORSDOF 6
ENDMDL
MODEL 3
REMARK VINA RESULT:      -6.1      1.236      5.428
REMARK  6 active torsions:
REMARK  status: ('A' for Active; 'I' for Inactive)
REMARK    1  A    between atoms: S_10  and  C_6 
REMARK    2  A    between atoms: C_14  and  S_10 
REMARK    3  A    between atoms: C_11  and  C_14 
REMARK       I    between atoms: N_15  and  C_11 
REMARK    4  A    between atoms: C_20  and  N_15 
REMARK    5  A    between atoms: C_18  and  C_20 
REMARK    6  A    between atoms: C_21  and  C_18 
ROOT
ATOM      1  C   UNL d   1      49.052  35.339  53.045  0.00  0.00     0.187 A 
ATOM      2  C   UNL d   1      48.653  35.283  52.326  0.00  0.00     0.081 A 
ATOM      3  N   UNL d   1      49.738  34.889  53.167  0.00  0.00    -0.197 NA
ATOM      4  N   UNL d   1      49.611  34.337  51.847  0.00  0.00    -0.200 NA
ATOM      5  C   UNL d   1      48.930  34.785  51.729  0.00  0.00     0.189 A 
ATOM      6  C   UNL d   1      50.020  34.385  52.566  0.00  0.00     0.198 A 
ATOM      7  C   UNL d   1      48.001  35.786  52.362  0.00  0.00     0.029 A 
ATOM      8  O   UNL d   1      48.652  35.870  53.523  0.00  0.00    -0.289 OA
ATOM      9  C   UNL d   1      47.995  36.153  53.105  0.00  0.00     0.102 A 
ATOM     10  N   UNL d   1      48.522  34.738  51.013  0.00  0.00    -0.127 N 
ATOM     11  C   UNL d   1      47.443  35.904  51.756  0.00  0.00     0.002 C 
ATOM     12  C   UNL d   1      47.437  36.699  53.371  0.00  0.00     0.027 C 
ENDROOT
BRANCH   6  13
ATOM     13  S   UNL d   1      50.700  33.941  52.693  0.00  0.00    -0.043 SA
BRANCH  13  14
ATOM     14  C   UNL d   1      51.355  34.276  53.063  0.00  0.00     0.101 C 
BRANCH  14  15
ATOM     15  C   UNL d   1      52.025  33.824  53.199  0.00  0.00     0.286 C 
ATOM     16  O   UNL d   1      52.223  33.207  52.682  0.00  0.00    -0.265 OA
ATOM     17  N   UNL d   1      52.505  33.980  53.848  0.00  0.00    -0.206 NA
BRANCH  17  18
ATOM     18  C   UNL d   1      53.182  33.522  53.983  0.00  0.00     0.106 C 
BRANCH  18  19
ATOM     19  C   UNL d   1      53.677  33.713  54.600  0.00  0.00     0.066 C 
BRANCH  19  20
ATOM     20  C   UNL d   1      54.233  33.160  54.866  0.00  0.00     0.236 C 
ATOM     21  O   UNL d   1      54.875  33.404  55.304  0.00  0.00    -0.283 OA
ENDBRANCH  19  20
ENDBRANCH  18  19
ENDBRANCH  17  18
ENDBRANCH  14  15
ENDBRANCH  13  14
ENDBRANCH   6  13
TORSDOF 6
ENDMDL
MODEL 4
REMARK VINA RESULT:      -5.7      2.786      5.185
REMARK  6 active torsions:
REMARK  status: ('A' for Active; 'I' for Inactive)
REMARK    1  A    between atoms: S_10  and  C_6 
REMARK    2  A    between atoms: C_14  and  S_10 
REMARK    3  A    between atoms: C_11  and  C_14 
REMARK       I    between atoms: N_15  and  C_11 
REMARK    4  A    between atoms: C_20  and  N_15 
REMARK    5  A    between atoms: C_18  and  C_20 
REMARK    6  A    between atoms: C_21  and  C_18 
ROOT
ATOM      1  C   UNL d   1      53.154  33.798  53.816  0.00  0.00     0.187 A 
ATOM      2  C   UNL d   1      52.512  34.191  53.478  0.00  0.00     0.081 A 
ATOM      3  N   UNL d   1      53.331  33.025  53.573  0.00  0.00    -0.197 NA
ATOM      4  N   UNL d   1      52.223  33.056  52.660  0.00  0.00    -0.200 NA
ATOM      5  C   UNL d   1      52.048  33.824  52.903  0.00  0.00     0.189 A 
ATOM      6  C   UNL d   1      52.865  32.651  52.992  0.00  0.00     0.198 A 
ATOM      7  C   UNL d   1      52.470  34.939  53.821  0.00  0.00     0.029 A 
ATOM      8  O   UNL d   1      53.505  34.295  54.362  0.00  0.00    -0.289 OA
ATOM      9  C   UNL d   1      53.085  35.009  54.372  0.00  0.00     0.102 A 
ATOM     10  N   UNL d   1      51.410  34.228  52.573  0.00  0.00    -0.127 N 
ATOM     11  C   UNL d   1      51.905  35.524  53.645  0.00  0.00     0.002 C 
ATOM     12  C   UNL d   1      53.243  35.671  54.841  0.00  0.00     0.027 C 
ENDROOT
BRANCH   6  13
ATOM     13  S   UNL d   1      53.046  31.885  52.756  0.00  0.00    -0.043 SA
BRANCH  13  14
ATOM     14  C   UNL d   1      52.553  31.257  52.957  0.00  0.00     0.101 C 
BRANCH  14  15
ATOM     15  C   UNL d   1      52.856  30.497  53.004  0.00  0.00     0.286 C 
ATOM     16  O   UNL d   1      53.134  30.116  52.323  0.00  0.00    -0.265 OA
ATOM     17  N   UNL d   1      52.884  30.108  53.728  0.00  0.00    -0.206 NA
BRANCH  17  18
ATOM     18  C   UNL d   1      53.191  29.339  53.774  0.00  0.00     0.106 C 
BRANCH  18  19
ATOM     19  C   UNL d   1      53.011  28.875  54.418  0.00  0.00     0.066 C 
BRANCH  19  20
ATOM     20  C   UNL d   1      53.623  28.541  54.865  0.00  0.00     0.236 C 
ATOM     21  O   UNL d   1      53.452  28.128  55.547  0.00  0.00    -0.283 OA
ENDBRANCH  19  20
ENDBRANCH  18  19
ENDBRANCH  17  18
ENDBRANCH  14  15
ENDBRANCH  13  14
ENDBRANCH   6  13
TORSDOF 6
ENDMDL
MODEL 5
REMARK VINA RESULT:      -5.5      1.330      5.347
REMARK  6 active torsions:
REMARK  status: ('A' for Active; 'I' for Inactive)
REMARK    1  A    between atoms: S_10  and  C_6 
REMARK    2  A    between atoms: C_14  and  S_10 
REMARK    3  A    between atoms: C_11  and  C_14 
REMARK       I    between atoms: N_15  and  C_11 
REMARK    4  A    between atoms: C_20  and  N_15 
REMARK    5  A    between atoms: C_18  and  C_20 
REMARK    6  A    between atoms: C_21  and  C_18 
ROOT
ATOM      1  C   UNL d   1      48.817  34.808  51.775  0.00  0.00     0.187 A 
ATOM      2  C   UNL d   1      48.529  35.301  52.369  0.00  0.00     0.081 A 
ATOM      3  N   UNL d   1      49.525  34.392  51.898  0.00  0.00    -0.197 NA
ATOM      4  N   UNL d   1      49.639  34.974  53.206  0.00  0.00    -0.200 NA
ATOM      5  C   UNL d   1      48.936  35.386  53.081  0.00  0.00     0.189 A 
ATOM      6  C   UNL d   1      49.938  34.475  52.616  0.00  0.00     0.198 A 
ATOM      7  C   UNL d   1      47.828  35.637  52.095  0.00  0.00     0.029 A 
ATOM      8  O   UNL d   1      48.301  34.836  51.140  0.00  0.00    -0.289 OA
ATOM      9  C   UNL d   1      47.681  35.351  51.332  0.00  0.00     0.102 A 
ATOM     10  N   UNL d   1      48.637  35.883  53.668  0.00  0.00    -0.127 N 
ATOM     11  C   UNL d   1      47.348  36.172  52.515  0.00  0.00     0.002 C 
ATOM     12  C   UNL d   1      47.035  35.547  50.856  0.00  0.00     0.027 C 
ENDROOT
BRANCH   6  13
ATOM     13  S   UNL d   1      50.639  34.061  52.732  0.00  0.00    -0.043 SA
BRANCH  13  14
ATOM     14  C   UNL d   1      51.334  34.460  52.922  0.00  0.00     0.101 C 
BRANCH  14  15
ATOM     15  C   UNL d   1      52.009  34.036  53.116  0.00  0.00     0.286 C 
ATOM     16  O   UNL d   1      52.204  33.347  52.698  0.00  0.00    -0.265 OA
ATOM     17  N   UNL d   1      52.497  34.294  53.725  0.00  0.00    -0.206 NA
BRANCH  17  18
ATOM     18  C   UNL d   1      53.179  33.865  53.920  0.00  0.00     0.106 C 
BRANCH  18  19
ATOM     19  C   UNL d   1      53.657  34.128  54.524  0.00  0.00     0.066 C 
BRANCH  19  20
ATOM     20  C   UNL d   1      54.328  33.690  54.735  0.00  0.00     0.236 C 
ATOM     21  O   UNL d   1      54.922  34.038  55.172  0.00  0.00    -0.283 OA
ENDBRANCH  19  20
ENDBRANCH  18  19
ENDBRANCH  17  18
ENDBRANCH  14  15
ENDBRANCH  13  14
ENDBRANCH   6  13
TORSDOF 6
ENDMDL
MODEL 6
REMARK VINA RESULT:      -5.2      9.803     10.748
REMARK  6 active torsions:
REMARK  status: ('A' for Active; 'I' for Inactive)
REMARK    1  A    between atoms: S_10  and  C_6 
REMARK    2  A    between atoms: C_14  and  S_10 
REMARK    3  A    between atoms: C_11  and  C_14 
REMARK       I    between atoms: N_15  and  C_11 
REMARK    4  A    between atoms: C_20  and  N_15 
REMARK    5  A    between atoms: C_18  and  C_20 
REMARK    6  A    between atoms: C_21  and  C_18 
ROOT
ATOM      1  C   UNL d   1      45.144  28.919  58.275  0.00  0.00     0.187 A 
ATOM      2  C   UNL d   1      44.983  29.476  57.688  0.00  0.00     0.081 A 
ATOM      3  N   UNL d   1      45.251  28.124  58.063  0.00  0.00    -0.197 NA
ATOM      4  N   UNL d   1      45.034  28.461  56.684  0.00  0.00    -0.200 NA
ATOM      5  C   UNL d   1      44.928  29.250  56.896  0.00  0.00     0.189 A 
ATOM      6  C   UNL d   1      45.196  27.893  57.264  0.00  0.00     0.198 A 
ATOM      7  C   UNL d   1      44.905  30.209  58.056  0.00  0.00     0.029 A 
ATOM      8  O   UNL d   1      45.165  29.302  58.997  0.00  0.00    -0.289 OA
ATOM      9  C   UNL d   1      45.017  30.107  58.870  0.00  0.00     0.102 A 
ATOM     10  N   UNL d   1      44.767  29.817  56.319  0.00  0.00    -0.127 N 
ATOM     11  C   UNL d   1      44.741  30.930  57.674  0.00  0.00     0.002 C 
ATOM     12  C   UNL d   1      44.985  30.701  59.443  0.00  0.00     0.027 C 
ENDROOT
BRANCH   6  13
ATOM     13  S   UNL d   1      45.303  27.104  57.061  0.00  0.00    -0.043 SA
BRANCH  13  14
ATOM     14  C   UNL d   1      44.714  26.691  56.661  0.00  0.00     0.101 C 
BRANCH  14  15
ATOM     15  C   UNL d   1      44.777  25.879  56.560  0.00  0.00     0.286 C 
ATOM     16  O   UNL d   1      44.909  25.387  57.214  0.00  0.00    -0.265 OA
ATOM     17  N   UNL d   1      44.712  25.550  55.810  0.00  0.00    -0.206 NA
BRANCH  17  18
ATOM     18  C   UNL d   1      44.777  24.730  55.711  0.00  0.00     0.106 C 
BRANCH  18  19
ATOM     19  C   UNL d   1      44.648  24.405  54.975  0.00  0.00     0.066 C 
BRANCH  19  20
ATOM     20  C   UNL d   1      44.901  23.632  54.818  0.00  0.00     0.236 C 
ATOM     21  O   UNL d   1      44.915  23.354  54.053  0.00  0.00    -0.283 OA
ENDBRANCH  19  20
ENDBRANCH  18  19
ENDBRANCH  17  18
ENDBRANCH  14  15
ENDBRANCH  13  14
ENDBRANCH   6  13
TORSDOF 6
ENDMDL
MODEL 7
REMARK VINA RESULT:      -5.1      2.046      5.297
REMARK  6 active torsions:
REMARK  status: ('A' for Active; 'I' for Inactive)
REMARK    1  A    between atoms: S_10  and  C_6 
REMARK    2  A    between atoms: C_14  and  S_10 
REMARK    3  A    between atoms: C_11  and  C_14 
REMARK       I    between atoms: N_15  and  C_11 
REMARK    4  A    between atoms: C_20  and  N_15 
REMARK    5  A    between atoms: C_18  and  C_20 
REMARK    6  A    between atoms: C_21  and  C_18 
ROOT
ATOM      1  C   UNL d   1      51.669  33.315  52.969  0.00  0.00     0.187 A 
ATOM      2  C   UNL d   1      51.933  33.989  53.365  0.00  0.00     0.081 A 
ATOM      3  N   UNL d   1      52.162  32.648  52.928  0.00  0.00    -0.197 NA
ATOM      4  N   UNL d   1      53.170  33.345  53.677  0.00  0.00    -0.200 NA
ATOM      5  C   UNL d   1      52.678  34.006  53.717  0.00  0.00     0.189 A 
ATOM      6  C   UNL d   1      52.915  32.663  53.283  0.00  0.00     0.198 A 
ATOM      7  C   UNL d   1      51.336  34.554  53.317  0.00  0.00     0.029 A 
ATOM      8  O   UNL d   1      50.918  33.460  52.680  0.00  0.00    -0.289 OA
ATOM      9  C   UNL d   1      50.702  34.231  52.892  0.00  0.00     0.102 A 
ATOM     10  N   UNL d   1      52.930  34.686  54.109  0.00  0.00    -0.127 N 
ATOM     11  C   UNL d   1      51.364  35.321  53.640  0.00  0.00     0.002 C 
ATOM     12  C   UNL d   1      49.991  34.612  52.717  0.00  0.00     0.027 C 
ENDROOT
BRANCH   6  13
ATOM     13  S   UNL d   1      53.398  31.999  53.238  0.00  0.00    -0.043 SA
BRANCH  13  14
ATOM     14  C   UNL d   1      53.078  31.258  53.074  0.00  0.00     0.101 C 
BRANCH  14  15
ATOM     15  C   UNL d   1      53.481  30.579  53.295  0.00  0.00     0.286 C 
ATOM     16  O   UNL d   1      54.255  30.449  53.029  0.00  0.00    -0.265 OA
ATOM     17  N   UNL d   1      53.120  30.024  53.782  0.00  0.00    -0.206 NA
BRANCH  17  18
ATOM     18  C   UNL d   1      53.529  29.339  54.004  0.00  0.00     0.106 C 
BRANCH  18  19
ATOM     19  C   UNL d   1      53.162  28.792  54.483  0.00  0.00     0.066 C 
BRANCH  19  20
ATOM     20  C   UNL d   1      53.566  28.483  55.136  0.00  0.00     0.236 C 
ATOM     21  O   UNL d   1      53.153  28.246  55.798  0.00  0.00    -0.283 OA
ENDBRANCH  19  20
ENDBRANCH  18  19
ENDBRANCH  17  18
ENDBRANCH  14  15
ENDBRANCH  13  14
ENDBRANCH   6  13
TORSDOF 6
ENDMDL
MODEL 8
REMARK VINA RESULT:      -5.0      9.827     10.425
REMARK  6 active torsions:
REMARK  status: ('A' for Active; 'I' for Inactive)
REMARK    1  A    between atoms: S_10  and  C_6 
REMARK    2  A    between atoms: C_14  and  S_10 
REMARK    3  A    between atoms: C_11  and  C_14 
REMARK       I    between atoms: N_15  and  C_11 
REMARK    4  A    between atoms: C_20  and  N_15 
REMARK    5  A    between atoms: C_18  and  C_20 
REMARK    6  A    between atoms: C_21  and  C_18 
ROOT
ATOM      1  C   UNL d   1      45.188  28.038  58.278  0.00  0.00     0.187 A 
ATOM      2  C   UNL d   1      45.019  28.203  57.488  0.00  0.00     0.081 A 
ATOM      3  N   UNL d   1      45.231  28.661  58.824  0.00  0.00    -0.197 NA
ATOM      4  N   UNL d   1      44.934  29.599  57.777  0.00  0.00    -0.200 NA
ATOM      5  C   UNL d   1      44.893  28.978  57.237  0.00  0.00     0.189 A 
ATOM      6  C   UNL d   1      45.103  29.446  58.574  0.00  0.00     0.198 A 
ATOM      7  C   UNL d   1      45.013  27.487  57.080  0.00  0.00     0.029 A 
ATOM      8  O   UNL d   1      45.286  27.230  58.360  0.00  0.00    -0.289 OA
ATOM      9  C   UNL d   1      45.178  26.878  57.617  0.00  0.00     0.102 A 
ATOM     10  N   UNL d   1      44.724  29.130  56.444  0.00  0.00    -0.127 N 
ATOM     11  C   UNL d   1      44.866  27.391  56.266  0.00  0.00     0.002 C 
ATOM     12  C   UNL d   1      45.225  26.073  57.439  0.00  0.00     0.027 C 
ENDROOT
BRANCH   6  13
ATOM     13  S   UNL d   1      45.147  30.058  59.119  0.00  0.00    -0.043 SA
BRANCH  13  14
ATOM     14  C   UNL d   1      44.674  30.053  59.794  0.00  0.00     0.101 C 
BRANCH  14  15
ATOM     15  C   UNL d   1      44.660  30.706  60.290  0.00  0.00     0.286 C 
ATOM     16  O   UNL d   1      44.833  31.459  59.992  0.00  0.00    -0.265 OA
ATOM     17  N   UNL d   1      44.474  30.615  61.086  0.00  0.00    -0.206 NA
BRANCH  17  18
ATOM     18  C   UNL d   1      44.460  31.276  61.585  0.00  0.00     0.106 C 
BRANCH  18  19
ATOM     19  C   UNL d   1      44.420  31.167  62.391  0.00  0.00     0.066 C 
BRANCH  19  20
ATOM     20  C   UNL d   1      44.318  31.821  62.889  0.00  0.00     0.236 C 
ATOM     21  O   UNL d   1      44.380  31.733  63.697  0.00  0.00    -0.283 OA
ENDBRANCH  19  20
ENDBRANCH  18  19
ENDBRANCH  17  18
ENDBRANCH  14  15
ENDBRANCH  13  14
ENDBRANCH   6  13
TORSDOF 6
ENDMDL
MODEL 9
REMARK VINA RESULT:      -5.0      1.833      2.918
REMARK  6 active torsions:
REMARK  status: ('A' for Active; 'I' for Inactive)
REMARK    1  A    between atoms: S_10  and  C_6 
REMARK    2  A    between atoms: C_14  and  S_10 
REMARK    3  A    between atoms: C_11  and  C_14 
REMARK       I    between atoms: N_15  and  C_11 
REMARK    4  A    between atoms: C_20  and  N_15 
REMARK    5  A    between atoms: C_18  and  C_20 
REMARK    6  A    between atoms: C_21  and  C_18 
ROOT
ATOM      1  C   UNL d   1      53.217  30.802  54.145  0.00  0.00     0.187 A 
ATOM      2  C   UNL d   1      53.099  30.287  53.512  0.00  0.00     0.081 A 
ATOM      3  N   UNL d   1      53.151  31.620  54.022  0.00  0.00    -0.197 NA
ATOM      4  N   UNL d   1      52.850  31.388  52.636  0.00  0.00    -0.200 NA
ATOM      5  C   UNL d   1      52.916  30.576  52.761  0.00  0.00     0.189 A 
ATOM      6  C   UNL d   1      52.966  31.915  53.265  0.00  0.00     0.198 A 
ATOM      7  C   UNL d   1      53.198  29.519  53.794  0.00  0.00     0.029 A 
ATOM      8  O   UNL d   1      53.388  30.360  54.812  0.00  0.00    -0.289 OA
ATOM      9  C   UNL d   1      53.378  29.558  54.602  0.00  0.00     0.102 A 
ATOM     10  N   UNL d   1      52.800  30.050  52.137  0.00  0.00    -0.127 N 
ATOM     11  C   UNL d   1      53.130  28.822  53.345  0.00  0.00     0.002 C 
ATOM     12  C   UNL d   1      53.520  28.915  55.099  0.00  0.00     0.027 C 
ENDROOT
BRANCH   6  13
ATOM     13  S   UNL d   1      52.902  32.727  53.149  0.00  0.00    -0.043 SA
BRANCH  13  14
ATOM     14  C   UNL d   1      52.322  33.160  53.541  0.00  0.00     0.101 C 
BRANCH  14  15
ATOM     15  C   UNL d   1      51.954  33.788  53.162  0.00  0.00     0.286 C 
ATOM     16  O   UNL d   1      52.406  34.400  52.834  0.00  0.00    -0.265 OA
ATOM     17  N   UNL d   1      51.134  33.813  53.106  0.00  0.00    -0.206 NA
BRANCH  17  18
ATOM     18  C   UNL d   1      50.764  34.448  52.723  0.00  0.00     0.106 C 
BRANCH  18  19
ATOM     19  C   UNL d   1      49.955  34.528  52.774  0.00  0.00     0.066 C 
BRANCH  19  20
ATOM     20  C   UNL d   1      49.524  34.759  52.106  0.00  0.00     0.236 C 
ATOM     21  O   UNL d   1      48.805  35.133  52.192  0.00  0.00    -0.283 OA
ENDBRANCH  19  20
ENDBRANCH  18  19
ENDBRANCH  17  18
ENDBRANCH  14  15
ENDBRANCH  13  14
ENDBRANCH   6  13
TORSDOF 6
ENDMDL
