MODEL 1
REMARK VINA RESULT:      32.8      0.000      0.000
REMARK  4 active torsions:
REMARK  status: ('A' for Active; 'I' for Inactive)
REMARK    1  A    between atoms: C_10  and  C_3 
REMARK    2  A    between atoms: C_11  and  N_5 
REMARK    3  A    between atoms: O_17  and  C_10 
REMARK    4  A    between atoms: C_21  and  O_17 
ROOT
ATOM      1  C   UNL d   1      14.534  12.941  -1.232  0.00  0.00     0.086 A 
ATOM      2  C   UNL d   1      14.718  13.739  -1.174  0.00  0.00     0.038 A 
ATOM      3  C   UNL d   1      14.579  14.243  -1.811  0.00  0.00     0.165 A 
ATOM      4  C   UNL d   1      14.208  12.640  -1.931  0.00  0.00     0.282 A 
ATOM      5  N   UNL d   1      14.068  13.141  -2.567  0.00  0.00    -0.194 N 
ATOM      6  N   UNL d   1      14.253  13.943  -2.511  0.00  0.00    -0.157 NA
ATOM      7  C   UNL d   1      14.734  12.585  -0.513  0.00  0.00     0.137 A 
ATOM      8  C   UNL d   1      15.030  13.872  -0.421  0.00  0.00     0.039 A 
ATOM      9  S   UNL d   1      15.039  13.164  -0.018  0.00  0.00    -0.066 SA
ATOM     10  O   UNL d   1      14.020  11.832  -1.993  0.00  0.00    -0.265 OA
ATOM     11  N   UNL d   1      14.649  11.782  -0.307  0.00  0.00    -0.141 N 
ENDROOT
BRANCH   5  12
ATOM     12  C   UNL d   1      13.744  12.842  -3.263  0.00  0.00     0.086 A 
ATOM     13  C   UNL d   1      13.428  12.080  -3.276  0.00  0.00     0.019 A 
ATOM     14  C   UNL d   1      13.101  11.779  -3.978  0.00  0.00     0.002 A 
ATOM     15  C   UNL d   1      13.093  12.242  -4.661  0.00  0.00     0.000 A 
ATOM     16  C   UNL d   1      13.409  13.001  -4.646  0.00  0.00     0.002 A 
ATOM     17  C   UNL d   1      12.769  11.944  -5.356  0.00  0.00     0.000 C 
ATOM     18  C   UNL d   1      13.736  13.302  -3.944  0.00  0.00     0.019 A 
ENDBRANCH   5  12
BRANCH   3  19
ATOM     19  C   UNL d   1      14.766  15.051  -1.750  0.00  0.00     0.320 C 
ATOM     20  O   UNL d   1      14.763  15.415  -1.014  0.00  0.00    -0.257 OA
BRANCH  19  21
ATOM     21  O   UNL d   1      14.956  15.488  -2.427  0.00  0.00    -0.270 OA
BRANCH  21  22
ATOM     22  C   UNL d   1      15.094  16.296  -2.370  0.00  0.00     0.126 C 
ATOM     23  C   UNL d   1      14.858  16.803  -2.986  0.00  0.00     0.029 C 
ENDBRANCH  21  22
ENDBRANCH  19  21
ENDBRANCH   3  19
TORSDOF 4
ENDMDL
