MODEL 1
REMARK VINA RESULT:      -3.7      0.000      0.000
REMARK  7 active torsions:
REMARK  status: ('A' for Active; 'I' for Inactive)
REMARK    1  A    between atoms: C_7  and  C_3 
REMARK    2  A    between atoms: C_8  and  C_7 
REMARK       I    between atoms: N_12  and  C_8 
REMARK    3  A    between atoms: C_15  and  N_12 
REMARK    4  A    between atoms: C_13  and  C_15 
REMARK    5  A    between atoms: C_16  and  C_13 
REMARK    6  A    between atoms: O_14  and  C_16 
REMARK    7  A    between atoms: C_17  and  O_14 
ROOT
ATOM      1  C   UNL d   1      58.243  -0.247  29.545  0.00  0.00     0.082 C 
ENDROOT
BRANCH   1   2
ATOM      2  C   UNL d   1      58.734  -0.887  29.354  0.00  0.00     0.096 A 
ATOM      3  C   UNL d   1      59.522  -0.754  29.141  0.00  0.00     0.082 A 
ATOM      4  C   UNL d   1      60.024  -1.388  28.948  0.00  0.00     0.285 A 
ATOM      5  N   UNL d   1      59.713  -2.155  28.973  0.00  0.00    -0.152 NA
ATOM      6  O   UNL d   1      60.804  -1.256  28.737  0.00  0.00    -0.265 OA
ATOM      7  C   UNL d   1      58.925  -2.288  29.185  0.00  0.00     0.371 A 
ATOM      8  N   UNL d   1      58.440  -1.655  29.374  0.00  0.00    -0.191 NA
ATOM      9  O   UNL d   1      58.627  -3.061  29.207  0.00  0.00    -0.242 OA
ENDBRANCH   1   2
BRANCH   1  10
ATOM     10  C   UNL d   1      58.137  -0.032  30.335  0.00  0.00     0.281 C 
ATOM     11  O   UNL d   1      58.753   0.327  30.754  0.00  0.00    -0.265 OA
ATOM     12  N   UNL d   1      57.413  -0.176  30.705  0.00  0.00    -0.206 NA
BRANCH  12  13
ATOM     13  C   UNL d   1      57.307   0.040  31.494  0.00  0.00     0.104 C 
BRANCH  13  14
ATOM     14  C   UNL d   1      56.614  -0.176  31.888  0.00  0.00     0.048 C 
BRANCH  14  15
ATOM     15  C   UNL d   1      56.432   0.169  32.616  0.00  0.00     0.124 C 
BRANCH  15  16
ATOM     16  O   UNL d   1      55.650   0.146  32.891  0.00  0.00    -0.303 OA
BRANCH  16  17
ATOM     17  C   UNL d   1      55.496   0.313  33.685  0.00  0.00     0.123 C 
ATOM     18  C   UNL d   1      54.728   0.497  33.923  0.00  0.00     0.029 C 
ENDBRANCH  16  17
ENDBRANCH  15  16
ENDBRANCH  14  15
ENDBRANCH  13  14
ENDBRANCH  12  13
ENDBRANCH   1  10
TORSDOF 7
ENDMDL
MODEL 2
REMARK VINA RESULT:      -2.1      1.590      2.063
REMARK  7 active torsions:
REMARK  status: ('A' for Active; 'I' for Inactive)
REMARK    1  A    between atoms: C_7  and  C_3 
REMARK    2  A    between atoms: C_8  and  C_7 
REMARK       I    between atoms: N_12  and  C_8 
REMARK    3  A    between atoms: C_15  and  N_12 
REMARK    4  A    between atoms: C_13  and  C_15 
REMARK    5  A    between atoms: C_16  and  C_13 
REMARK    6  A    between atoms: O_14  and  C_16 
REMARK    7  A    between atoms: C_17  and  O_14 
ROOT
ATOM      1  C   UNL d   1      58.267   0.435  31.318  0.00  0.00     0.082 C 
ENDROOT
BRANCH   1   2
ATOM      2  C   UNL d   1      58.553   0.391  30.541  0.00  0.00     0.096 A 
ATOM      3  C   UNL d   1      58.051   0.557  29.906  0.00  0.00     0.082 A 
ATOM      4  C   UNL d   1      58.327   0.516  29.122  0.00  0.00     0.285 A 
ATOM      5  N   UNL d   1      59.117   0.305  28.996  0.00  0.00    -0.152 NA
ATOM      6  O   UNL d   1      57.830   0.681  28.494  0.00  0.00    -0.265 OA
ATOM      7  C   UNL d   1      59.619   0.138  29.632  0.00  0.00     0.371 A 
ATOM      8  N   UNL d   1      59.336   0.181  30.399  0.00  0.00    -0.191 NA
ATOM      9  O   UNL d   1      60.408  -0.073  29.491  0.00  0.00    -0.242 OA
ENDBRANCH   1   2
BRANCH   1  10
ATOM     10  C   UNL d   1      57.611  -0.014  31.541  0.00  0.00     0.281 C 
ATOM     11  O   UNL d   1      57.389  -0.674  31.095  0.00  0.00    -0.265 OA
ATOM     12  N   UNL d   1      57.177   0.200  32.210  0.00  0.00    -0.206 NA
BRANCH  12  13
ATOM     13  C   UNL d   1      56.521  -0.249  32.433  0.00  0.00     0.104 C 
BRANCH  13  14
ATOM     14  C   UNL d   1      56.129  -0.078  33.139  0.00  0.00     0.048 C 
BRANCH  14  15
ATOM     15  C   UNL d   1      55.316   0.068  33.132  0.00  0.00     0.124 C 
BRANCH  15  16
ATOM     16  O   UNL d   1      54.879  -0.039  33.828  0.00  0.00    -0.303 OA
BRANCH  16  17
ATOM     17  C   UNL d   1      54.663   0.621  34.275  0.00  0.00     0.123 C 
ATOM     18  C   UNL d   1      53.895   0.682  34.571  0.00  0.00     0.029 C 
ENDBRANCH  16  17
ENDBRANCH  15  16
ENDBRANCH  14  15
ENDBRANCH  13  14
ENDBRANCH  12  13
ENDBRANCH   1  10
TORSDOF 7
ENDMDL
