MODEL 1
REMARK VINA RESULT:      74.8      0.000      0.000
REMARK  3 active torsions:
REMARK  status: ('A' for Active; 'I' for Inactive)
REMARK    1  A    between atoms: N_11  and  C_4 
REMARK       I    between atoms: C_5  and  N_9 
REMARK       I    between atoms: N_12  and  C_5 
REMARK    2  A    between atoms: C_6  and  C_7 
REMARK    3  A    between atoms: C_14  and  N_12 
ROOT
ATOM      1  C   UNL d   1     -55.146-101.629 -42.942  0.00  0.00     0.354 C 
ATOM      2  N   UNL d   1     -55.097-101.707 -42.114  0.00  0.00    -0.253 N 
ATOM      3  N   UNL d   1     -55.005-101.848 -40.479  0.00  0.00    -0.285 N 
ATOM      4  N   UNL d   1     -55.457-100.942 -43.278  0.00  0.00    -0.192 NA
ATOM      5  O   UNL d   1     -54.882-102.246 -43.429  0.00  0.00    -0.244 OA
ATOM      6  C   UNL d   1     -55.360-101.093 -41.629  0.00  0.00     0.104 A 
ATOM      7  C   UNL d   1     -54.786-102.394 -41.778  0.00  0.00     0.104 A 
ATOM      8  C   UNL d   1     -55.312-101.166 -40.809  0.00  0.00     0.101 A 
ATOM      9  C   UNL d   1     -54.742-102.462 -40.964  0.00  0.00     0.101 A 
ENDROOT
BRANCH   4  10
ATOM     10  C   UNL d   1     -55.504-100.869 -44.100  0.00  0.00     0.090 A 
ATOM     11  C   UNL d   1     -55.464-100.123 -44.451  0.00  0.00     0.089 A 
ATOM     12  C   UNL d   1     -55.511-100.053 -45.269  0.00  0.00     0.005 A 
ATOM     13  C   UNL d   1     -55.597-100.721 -45.735  0.00  0.00     0.000 A 
ATOM     14  C   UNL d   1     -55.637-101.470 -45.380  0.00  0.00     0.002 A 
ATOM     15  C   UNL d   1     -55.590-101.538 -44.566  0.00  0.00     0.019 A 
BRANCH  11  16
ATOM     16  C   UNL d   1     -55.377 -99.450 -43.981  0.00  0.00     0.420 C 
ATOM     17  F   UNL d   1     -55.290 -98.777 -43.512  0.00  0.00    -0.166 F 
ATOM     18  F   UNL d   1     -56.012 -99.100 -44.365  0.00  0.00    -0.166 F 
ATOM     19  F   UNL d   1     -54.738 -99.802 -43.595  0.00  0.00    -0.166 F 
ENDBRANCH  11  16
ENDBRANCH   4  10
BRANCH   3  20
ATOM     20  C   UNL d   1     -54.957-101.921 -39.659  0.00  0.00     0.168 A 
ATOM     21  N   UNL d   1     -54.936-101.247 -39.183  0.00  0.00    -0.144 NA
ATOM     22  N   UNL d   1     -54.889-101.323 -38.367  0.00  0.00    -0.187 N 
ATOM     23  C   UNL d   1     -54.863-102.071 -38.022  0.00  0.00     0.187 A 
ATOM     24  C   UNL d   1     -54.859-100.769 -37.761  0.00  0.00     0.224 A 
ATOM     25  N   UNL d   1     -54.817-101.975 -37.204  0.00  0.00    -0.127 NA
ATOM     26  C   UNL d   1     -54.884-102.744 -38.492  0.00  0.00     0.044 A 
ATOM     27  N   UNL d   1     -54.815-101.161 -37.050  0.00  0.00    -0.124 NA
ATOM     28  C   UNL d   1     -54.931-102.670 -39.313  0.00  0.00     0.042 A 
ENDBRANCH   3  20
TORSDOF 3
ENDMDL
