MODEL 1
REMARK VINA RESULT:      -1.2      0.000      0.000
REMARK  5 active torsions:
REMARK  status: ('A' for Active; 'I' for Inactive)
REMARK       I    between atoms: C_6  and  N_1 
REMARK    1  A    between atoms: C_7  and  C_3 
REMARK    2  A    between atoms: C_8  and  C_4 
REMARK    3  A    between atoms: C_11  and  C_6 
REMARK    4  A    between atoms: C_9  and  C_17 
REMARK    5  A    between atoms: C_17  and  C_11 
ROOT
ATOM      1  N   UNL d   1      32.852  20.912 -22.857  0.00  0.00    -0.195 N 
ATOM      2  N   UNL d   1      32.884  20.340 -23.436  0.00  0.00    -0.163 NA
ATOM      3  C   UNL d   1      32.748  19.653 -23.056  0.00  0.00     0.103 A 
ATOM      4  C   UNL d   1      32.702  20.588 -22.152  0.00  0.00     0.088 A 
ATOM      5  C   UNL d   1      32.631  19.810 -22.239  0.00  0.00     0.040 A 
ATOM      6  C   UNL d   1      32.962  21.718 -22.996  0.00  0.00     0.281 C 
ATOM      7  O   UNL d   1      32.919  22.258 -22.372  0.00  0.00    -0.265 OA
ENDROOT
BRANCH   4   8
ATOM      8  C   UNL d   1      32.648  21.098 -21.483  0.00  0.00     0.018 A 
ATOM      9  C   UNL d   1      31.959  21.559 -21.403  0.00  0.00     0.002 A 
ATOM     10  C   UNL d   1      31.923  22.043 -20.755  0.00  0.00     0.007 A 
ATOM     11  C   UNL d   1      32.500  22.096 -20.206  0.00  0.00     0.035 A 
ATOM     12  C   UNL d   1      33.186  21.629 -20.296  0.00  0.00     0.007 A 
ATOM     13 BR   UNL d   1      32.401  22.628 -19.543  0.00  0.00    -0.049 Br
ATOM     14  C   UNL d   1      33.240  21.120 -20.965  0.00  0.00     0.002 A 
ENDBRANCH   4   8
BRANCH   6  15
ATOM     15  C   UNL d   1      33.122  21.983 -23.800  0.00  0.00     0.069 C 
BRANCH  15  16
ATOM     16  C   UNL d   1      33.216  22.798 -23.944  0.00  0.00     0.075 C 
BRANCH  16  17
ATOM     17  C   UNL d   1      32.817  23.160 -24.564  0.00  0.00     0.211 C 
ATOM     18  O   UNL d   1      33.240  23.645 -25.096  0.00  0.00    -0.644 OA
ATOM     19  O   UNL d   1      32.006  23.048 -24.663  0.00  0.00    -0.644 OA
ENDBRANCH  16  17
ENDBRANCH  15  16
ENDBRANCH   6  15
BRANCH   3  20
ATOM     20  C   UNL d   1      32.707  18.870 -23.331  0.00  0.00     0.019 A 
ATOM     21  C   UNL d   1      33.103  18.273 -22.940  0.00  0.00     0.002 A 
ATOM     22  C   UNL d   1      33.061  17.498 -23.215  0.00  0.00     0.007 A 
ATOM     23  C   UNL d   1      32.617  17.326 -23.890  0.00  0.00     0.035 A 
ATOM     24  C   UNL d   1      32.212  17.928 -24.294  0.00  0.00     0.007 A 
ATOM     25 BR   UNL d   1      32.556  16.503 -24.206  0.00  0.00    -0.049 Br
ATOM     26  C   UNL d   1      32.264  18.699 -24.006  0.00  0.00     0.002 A 
ENDBRANCH   3  20
TORSDOF 5
ENDMDL
MODEL 2
REMARK VINA RESULT:       0.6      2.357      5.013
REMARK  5 active torsions:
REMARK  status: ('A' for Active; 'I' for Inactive)
REMARK       I    between atoms: C_6  and  N_1 
REMARK    1  A    between atoms: C_7  and  C_3 
REMARK    2  A    between atoms: C_8  and  C_4 
REMARK    3  A    between atoms: C_11  and  C_6 
REMARK    4  A    between atoms: C_9  and  C_17 
REMARK    5  A    between atoms: C_17  and  C_11 
ROOT
ATOM      1  N   UNL d   1      31.646  18.534 -23.645  0.00  0.00    -0.195 N 
ATOM      2  N   UNL d   1      31.538  19.239 -23.251  0.00  0.00    -0.163 NA
ATOM      3  C   UNL d   1      32.241  19.395 -22.908  0.00  0.00     0.103 A 
ATOM      4  C   UNL d   1      32.384  18.270 -23.549  0.00  0.00     0.088 A 
ATOM      5  C   UNL d   1      32.779  18.779 -23.098  0.00  0.00     0.040 A 
ATOM      6  C   UNL d   1      31.058  18.156 -24.084  0.00  0.00     0.281 C 
ATOM      7  O   UNL d   1      31.220  17.440 -24.466  0.00  0.00    -0.265 OA
ENDROOT
BRANCH   4   8
ATOM      8  C   UNL d   1      32.599  17.544 -23.919  0.00  0.00     0.018 A 
ATOM      9  C   UNL d   1      32.756  17.560 -24.736  0.00  0.00     0.002 A 
ATOM     10  C   UNL d   1      32.961  16.855 -25.077  0.00  0.00     0.007 A 
ATOM     11  C   UNL d   1      33.018  16.166 -24.677  0.00  0.00     0.035 A 
ATOM     12  C   UNL d   1      32.858  16.162 -23.857  0.00  0.00     0.007 A 
ATOM     13 BR   UNL d   1      33.239  15.454 -25.096  0.00  0.00    -0.049 Br
ATOM     14  C   UNL d   1      32.643  16.888 -23.487  0.00  0.00     0.002 A 
ENDBRANCH   4   8
BRANCH   6  15
ATOM     15  C   UNL d   1      30.279  18.518 -24.134  0.00  0.00     0.069 C 
BRANCH  15  16
ATOM     16  C   UNL d   1      29.695  18.153 -24.603  0.00  0.00     0.075 C 
BRANCH  16  17
ATOM     17  C   UNL d   1      28.902  18.339 -24.502  0.00  0.00     0.211 C 
ATOM     18  O   UNL d   1      28.597  19.037 -24.844  0.00  0.00    -0.644 OA
ATOM     19  O   UNL d   1      28.407  17.843 -24.067  0.00  0.00    -0.644 OA
ENDBRANCH  16  17
ENDBRANCH  15  16
ENDBRANCH   6  15
BRANCH   3  20
ATOM     20  C   UNL d   1      32.493  20.027 -22.432  0.00  0.00     0.019 A 
ATOM     21  C   UNL d   1      32.934  20.636 -22.752  0.00  0.00     0.002 A 
ATOM     22  C   UNL d   1      33.182  21.261 -22.276  0.00  0.00     0.007 A 
ATOM     23  C   UNL d   1      32.985  21.269 -21.475  0.00  0.00     0.035 A 
ATOM     24  C   UNL d   1      32.538  20.653 -21.142  0.00  0.00     0.007 A 
ATOM     25 BR   UNL d   1      33.240  21.929 -20.943  0.00  0.00    -0.049 Br
ATOM     26  C   UNL d   1      32.297  20.035 -21.631  0.00  0.00     0.002 A 
ENDBRANCH   3  20
TORSDOF 5
ENDMDL
