MODEL 1
REMARK VINA RESULT:      36.3      0.000      0.000
REMARK  4 active torsions:
REMARK  status: ('A' for Active; 'I' for Inactive)
REMARK    1  A    between atoms: C_6  and  C_1 
REMARK    2  A    between atoms: S_7  and  C_3 
REMARK    3  A    between atoms: C_17  and  S_7 
REMARK    4  A    between atoms: C_18  and  C_17 
ROOT
ATOM      1  C   UNL d   1     -51.842  24.276  33.635  0.00  0.00     0.087 A 
ATOM      2  N   UNL d   1     -51.190  23.786  33.576  0.00  0.00    -0.245 NA
ATOM      3  C   UNL d   1     -51.600  25.063  33.580  0.00  0.00     0.049 A 
ATOM      4  C   UNL d   1     -50.789  25.069  33.486  0.00  0.00     0.025 A 
ATOM      5  C   UNL d   1     -50.534  24.281  33.483  0.00  0.00     0.082 A 
ATOM      6  C   UNL d   1     -50.258  25.693  33.403  0.00  0.00     0.002 A 
ATOM      7  C   UNL d   1     -49.747  24.101  33.398  0.00  0.00     0.019 A 
ATOM      8  C   UNL d   1     -49.455  25.514  33.316  0.00  0.00     0.000 A 
ATOM      9  C   UNL d   1     -49.210  24.725  33.315  0.00  0.00     0.002 A 
ENDROOT
BRANCH   1  10
ATOM     10  C   UNL d   1     -52.625  24.064  33.733  0.00  0.00     0.018 A 
ATOM     11  C   UNL d   1     -52.933  23.412  33.312  0.00  0.00     0.002 A 
ATOM     12  C   UNL d   1     -53.712  23.191  33.402  0.00  0.00     0.011 A 
ATOM     13  C   UNL d   1     -54.188  23.623  33.914  0.00  0.00     0.058 A 
ATOM     14  C   UNL d   1     -53.866  24.280  34.333  0.00  0.00     0.011 A 
ATOM     15 CL   UNL d   1     -54.973  23.402  34.005  0.00  0.00    -0.082 Cl
ATOM     16  C   UNL d   1     -53.097  24.496  34.243  0.00  0.00     0.002 A 
ENDBRANCH   1  10
BRANCH   3  17
ATOM     17  S   UNL d   1     -52.075  25.741  33.612  0.00  0.00    -0.083 SA
BRANCH  17  18
ATOM     18  C   UNL d   1     -51.808  26.474  33.308  0.00  0.00     0.058 C 
BRANCH  18  19
ATOM     19  C   UNL d   1     -51.775  27.151  33.779  0.00  0.00     0.129 C 
ATOM     20  N   UNL d   1     -51.486  27.868  33.483  0.00  0.00    -0.146 N 
ENDBRANCH  18  19
ENDBRANCH  17  18
ENDBRANCH   3  17
TORSDOF 4
ENDMDL
