MODEL 1
REMARK VINA RESULT:      24.5      0.000      0.000
REMARK  1 active torsions:
REMARK  status: ('A' for Active; 'I' for Inactive)
REMARK       I    between atoms: C_8  and  N_9 
REMARK    1  A    between atoms: N_9  and  C_10 
ROOT
ATOM      1  N   UNL d   1      13.540  13.654  -3.650  0.00  0.00    -0.304 N 
ATOM      2  C   UNL d   1      13.720  13.172  -3.006  0.00  0.00     0.066 A 
ATOM      3  C   UNL d   1      13.560  12.387  -3.218  0.00  0.00     0.018 A 
ATOM      4  C   UNL d   1      13.269  13.170  -4.261  0.00  0.00     0.064 A 
ATOM      5  C   UNL d   1      13.281  12.389  -3.994  0.00  0.00     0.018 A 
ATOM      6  C   UNL d   1      14.010  13.342  -2.251  0.00  0.00     0.037 A 
ATOM      7  C   UNL d   1      13.689  11.780  -2.678  0.00  0.00     0.003 A 
ATOM      8  C   UNL d   1      14.139  12.728  -1.709  0.00  0.00     0.086 A 
ATOM      9  C   UNL d   1      13.975  11.948  -1.932  0.00  0.00     0.019 A 
ATOM     10  C   UNL d   1      13.618  14.466  -3.677  0.00  0.00     0.099 C 
ATOM     11  C   UNL d   1      13.012  13.338  -5.028  0.00  0.00     0.018 A 
ATOM     12  C   UNL d   1      13.036  11.780  -4.496  0.00  0.00     0.002 A 
ATOM     13  C   UNL d   1      12.781  11.951  -5.256  0.00  0.00     0.000 A 
ATOM     14  C   UNL d   1      12.769  12.732  -5.522  0.00  0.00     0.002 A 
ENDROOT
BRANCH   8  15
ATOM     15  N   UNL d   1      14.425  12.903  -0.965  0.00  0.00    -0.208 NA
ATOM     16  C   UNL d   1      15.217  12.786  -0.783  0.00  0.00     0.279 C 
ATOM     17  O   UNL d   1      15.498  12.964  -0.032  0.00  0.00    -0.265 OA
ATOM     18  C   UNL d   1      15.723  12.490  -1.355  0.00  0.00     0.068 C 
ENDBRANCH   8  15
TORSDOF 1
ENDMDL
