MODEL 1
REMARK VINA RESULT:      14.2      0.000      0.000
REMARK  5 active torsions:
REMARK  status: ('A' for Active; 'I' for Inactive)
REMARK    1  A    between atoms: N_14  and  C_6 
REMARK    2  A    between atoms: C_20  and  N_14 
REMARK    3  A    between atoms: N_15  and  C_21 
REMARK    4  A    between atoms: C_17  and  C_20 
REMARK    5  A    between atoms: C_21  and  C_17 
ROOT
ATOM      1  N   UNL d   1      46.336 -18.077  43.508  0.00  0.00    -0.183 N 
ATOM      2  C   UNL d   1      46.430 -18.827  43.163  0.00  0.00     0.169 A 
ATOM      3  C   UNL d   1      46.482 -18.908  42.351  0.00  0.00     0.073 A 
ATOM      4  C   UNL d   1      46.439 -18.237  41.886  0.00  0.00     0.185 A 
ATOM      5  N   UNL d   1      46.344 -17.488  42.230  0.00  0.00    -0.142 NA
ATOM      6  C   UNL d   1      46.286 -18.016  44.321  0.00  0.00     0.218 A 
ATOM      7  N   UNL d   1      46.472 -19.493  43.641  0.00  0.00    -0.226 NA
ATOM      8  C   UNL d   1      46.575 -19.649  42.010  0.00  0.00     0.007 A 
ATOM      9  N   UNL d   1      46.490 -18.304  41.061  0.00  0.00    -0.225 NA
ATOM     10  C   UNL d   1      46.327 -18.672  44.799  0.00  0.00     0.071 A 
ATOM     11  C   UNL d   1      46.627 -19.731  41.198  0.00  0.00     0.019 A 
ATOM     12  C   UNL d   1      46.422 -19.422  44.454  0.00  0.00     0.087 A 
ATOM     13  C   UNL d   1      46.584 -19.053  40.717  0.00  0.00     0.083 A 
ATOM     14  C   UNL d   1      46.618 -20.318  42.491  0.00  0.00     0.000 C 
ATOM     15  C   UNL d   1      46.465 -20.113  44.954  0.00  0.00     0.021 C 
ATOM     16  C   UNL d   1      46.635 -19.127  39.907  0.00  0.00     0.021 C 
ENDROOT
BRANCH   6  17
ATOM     17  N   UNL d   1      46.189 -17.240  44.669  0.00  0.00    -0.380 NA
BRANCH  17  18
ATOM     18  C   UNL d   1      46.094 -16.453  44.955  0.00  0.00     0.164 C 
BRANCH  18  19
ATOM     19  C   UNL d   1      45.695 -15.878  44.473  0.00  0.00     0.054 C 
BRANCH  19  20
ATOM     20  C   UNL d   1      45.333 -15.200  44.846  0.00  0.00     0.083 C 
BRANCH  20  21
ATOM     21  N   UNL d   1      45.226 -14.477  44.410  0.00  0.00    -0.300 N 
ATOM     22  C   UNL d   1      44.451 -14.356  44.744  0.00  0.00     0.100 C 
ATOM     23  C   UNL d   1      45.527 -13.903  43.857  0.00  0.00     0.100 C 
ENDBRANCH  20  21
ENDBRANCH  19  20
ENDBRANCH  18  19
ENDBRANCH  17  18
ENDBRANCH   6  17
TORSDOF 5
ENDMDL
