MODEL 1
REMARK VINA RESULT:      19.3      0.000      0.000
REMARK  8 active torsions:
REMARK  status: ('A' for Active; 'I' for Inactive)
REMARK    1  A    between atoms: C_2  and  C_1 
REMARK    2  A    between atoms: C_12  and  C_5 
REMARK    3  A    between atoms: C_14  and  C_6 
REMARK    4  A    between atoms: O_20  and  C_13 
REMARK    5  A    between atoms: O_21  and  C_14 
REMARK    6  A    between atoms: O_23  and  C_15 
REMARK    7  A    between atoms: O_22  and  C_16 
REMARK    8  A    between atoms: C_26  and  O_21 
ROOT
ATOM      1  C   UNL d   1      45.328 -15.281  44.301  0.00  0.00     0.206 A 
ATOM      2  O   UNL d   1      45.792 -15.907  43.932  0.00  0.00    -0.268 OA
ATOM      3  N   UNL d   1      44.721 -15.656  44.789  0.00  0.00    -0.121 NA
ATOM      4  C   UNL d   1      45.474 -16.670  44.189  0.00  0.00     0.205 A 
ATOM      5  N   UNL d   1      44.803 -16.513  44.726  0.00  0.00    -0.121 NA
ENDROOT
BRANCH   1   6
ATOM      6  C   UNL d   1      45.450 -14.478  44.200  0.00  0.00     0.061 A 
ATOM      7  C   UNL d   1      44.912 -14.042  43.771  0.00  0.00     0.012 A 
ATOM      8  C   UNL d   1      45.020 -13.247  43.663  0.00  0.00     0.081 A 
ATOM      9  C   UNL d   1      45.674 -12.877  43.988  0.00  0.00     0.086 A 
ATOM     10  N   UNL d   1      46.211 -13.307  44.415  0.00  0.00    -0.245 NA
ATOM     11  C   UNL d   1      45.783 -12.081  43.881  0.00  0.00     0.021 C 
ATOM     12  C   UNL d   1      46.105 -14.107  44.525  0.00  0.00     0.085 A 
ATOM     13  C   UNL d   1      46.647 -14.535  44.955  0.00  0.00     0.021 C 
BRANCH   8  14
ATOM     14  C   UNL d   1      44.485 -12.822  43.238  0.00  0.00     0.302 C 
ATOM     15  O   UNL d   1      43.765 -12.631  43.565  0.00  0.00    -0.259 OA
BRANCH  14  16
ATOM     16  O   UNL d   1      44.656 -12.580  42.483  0.00  0.00    -0.271 OA
BRANCH  16  17
ATOM     17  C   UNL d   1      44.113 -12.149  42.064  0.00  0.00     0.126 C 
ATOM     18  C   UNL d   1      44.125 -12.162  41.239  0.00  0.00     0.029 C 
ENDBRANCH  16  17
ENDBRANCH  14  16
ENDBRANCH   8  14
ENDBRANCH   1   6
BRANCH   4  19
ATOM     19  C   UNL d   1      45.770 -17.460  43.955  0.00  0.00     0.047 A 
ATOM     20  C   UNL d   1      45.921 -17.628  43.125  0.00  0.00     0.030 A 
ATOM     21  C   UNL d   1      46.213 -18.407  42.891  0.00  0.00     0.118 A 
ATOM     22  C   UNL d   1      46.354 -19.022  43.497  0.00  0.00     0.138 A 
ATOM     23  C   UNL d   1      46.199 -18.843  44.331  0.00  0.00     0.118 A 
ATOM     24  C   UNL d   1      45.907 -18.062  44.560  0.00  0.00     0.030 A 
BRANCH  21  25
ATOM     25  O   UNL d   1      46.457 -18.899  42.212  0.00  0.00    -0.326 OA
ATOM     26  C   UNL d   1      46.647 -18.531  41.450  0.00  0.00     0.181 C 
ENDBRANCH  21  25
BRANCH  22  27
ATOM     27  O   UNL d   1      46.646 -19.800  43.262  0.00  0.00    -0.324 OA
ATOM     28  C   UNL d   1      46.331 -20.181  42.551  0.00  0.00     0.182 C 
ENDBRANCH  22  27
BRANCH  23  29
ATOM     29  O   UNL d   1      46.339 -19.450  44.934  0.00  0.00    -0.326 OA
ATOM     30  C   UNL d   1      45.998 -20.239  44.841  0.00  0.00     0.181 C 
ENDBRANCH  23  29
ENDBRANCH   4  19
TORSDOF 8
ENDMDL
