MODEL 1
REMARK VINA RESULT:      53.5      0.000      0.000
REMARK  5 active torsions:
REMARK  status: ('A' for Active; 'I' for Inactive)
REMARK    1  A    between atoms: C_7  and  N_1 
REMARK    2  A    between atoms: C_15  and  C_5 
REMARK    3  A    between atoms: C_14  and  C_6 
REMARK    4  A    between atoms: C_8  and  C_7 
REMARK       I    between atoms: N_11  and  C_8 
REMARK    5  A    between atoms: C_13  and  N_11 
ROOT
ATOM      1  N   UNL d   1      58.254  49.706  50.898  0.00  0.00    -0.235 N 
ATOM      2  C   UNL d   1      57.725  49.707  50.258  0.00  0.00     0.273 A 
ATOM      3  C   UNL d   1      57.959  49.705  51.676  0.00  0.00     0.273 A 
ATOM      4  S   UNL d   1      56.622  49.706  51.162  0.00  0.00    -0.077 SA
ATOM      5  C   UNL d   1      57.142  49.705  51.799  0.00  0.00     0.086 A 
ATOM      6  C   UNL d   1      56.919  49.707  50.396  0.00  0.00     0.086 A 
ATOM      7  O   UNL d   1      58.483  49.704  52.312  0.00  0.00    -0.266 OA
ATOM      8  O   UNL d   1      58.017  49.707  49.481  0.00  0.00    -0.266 OA
ENDROOT
BRANCH   1   9
ATOM      9  C   UNL d   1      59.069  49.706  50.758  0.00  0.00     0.148 C 
BRANCH   9  10
ATOM     10  C   UNL d   1      59.490  48.997  50.786  0.00  0.00     0.297 C 
ATOM     11  N   UNL d   1      60.302  48.994  50.643  0.00  0.00    -0.207 NA
ATOM     12  O   UNL d   1      59.090  48.293  50.959  0.00  0.00    -0.264 OA
BRANCH  11  13
ATOM     13  C   UNL d   1      60.722  48.285  50.671  0.00  0.00     0.085 A 
ATOM     14  C   UNL d   1      61.400  48.193  50.223  0.00  0.00     0.019 A 
ATOM     15  C   UNL d   1      61.815  47.485  50.255  0.00  0.00     0.002 A 
ATOM     16  C   UNL d   1      61.557  46.864  50.733  0.00  0.00     0.000 A 
ATOM     17  C   UNL d   1      60.868  46.961  51.186  0.00  0.00     0.002 A 
ATOM     18  C   UNL d   1      60.458  47.669  51.151  0.00  0.00     0.019 A 
ENDBRANCH  11  13
ENDBRANCH   9  10
ENDBRANCH   1   9
BRANCH   6  19
ATOM     19  C   UNL d   1      56.389  49.707  49.753  0.00  0.00     0.011 C 
ATOM     20  C   UNL d   1      56.642  49.456  49.008  0.00  0.00     0.001 C 
ENDBRANCH   6  19
BRANCH   5  21
ATOM     21  C   UNL d   1      56.850  49.704  52.571  0.00  0.00     0.011 C 
ATOM     22  C   UNL d   1      56.034  49.684  52.703  0.00  0.00     0.001 C 
ENDBRANCH   5  21
TORSDOF 5
ENDMDL
MODEL 2
REMARK VINA RESULT:      54.0      1.613      4.037
REMARK  5 active torsions:
REMARK  status: ('A' for Active; 'I' for Inactive)
REMARK    1  A    between atoms: C_7  and  N_1 
REMARK    2  A    between atoms: C_15  and  C_5 
REMARK    3  A    between atoms: C_14  and  C_6 
REMARK    4  A    between atoms: C_8  and  C_7 
REMARK       I    between atoms: N_11  and  C_8 
REMARK    5  A    between atoms: C_13  and  N_11 
ROOT
ATOM      1  N   UNL d   1      60.431  49.166  50.773  0.00  0.00    -0.235 N 
ATOM      2  C   UNL d   1      60.758  48.618  50.240  0.00  0.00     0.273 A 
ATOM      3  C   UNL d   1      60.678  49.165  51.567  0.00  0.00     0.273 A 
ATOM      4  S   UNL d   1      61.566  48.078  51.283  0.00  0.00    -0.077 SA
ATOM      5  C   UNL d   1      61.245  48.618  51.814  0.00  0.00     0.086 A 
ATOM      6  C   UNL d   1      61.319  48.083  50.500  0.00  0.00     0.086 A 
ATOM      7  O   UNL d   1      60.354  49.708  52.096  0.00  0.00    -0.266 OA
ATOM      8  O   UNL d   1      60.514  48.617  49.447  0.00  0.00    -0.266 OA
ENDROOT
BRANCH   1   9
ATOM      9  C   UNL d   1      59.864  49.707  50.509  0.00  0.00     0.148 C 
BRANCH   9  10
ATOM     10  C   UNL d   1      59.062  49.526  50.578  0.00  0.00     0.297 C 
ATOM     11  N   UNL d   1      58.567  49.593  49.922  0.00  0.00    -0.207 NA
ATOM     12  O   UNL d   1      58.762  49.279  51.308  0.00  0.00    -0.264 OA
BRANCH  11  13
ATOM     13  C   UNL d   1      57.766  49.412  49.991  0.00  0.00     0.085 A 
ATOM     14  C   UNL d   1      57.337  49.689  50.629  0.00  0.00     0.019 A 
ATOM     15  C   UNL d   1      56.539  49.506  50.693  0.00  0.00     0.002 A 
ATOM     16  C   UNL d   1      56.163  49.045  50.121  0.00  0.00     0.000 A 
ATOM     17  C   UNL d   1      56.601  48.765  49.474  0.00  0.00     0.002 A 
ATOM     18  C   UNL d   1      57.397  48.950  49.415  0.00  0.00     0.019 A 
ENDBRANCH  11  13
ENDBRANCH   9  10
ENDBRANCH   1   9
BRANCH   6  19
ATOM     19  C   UNL d   1      61.646  47.534  49.965  0.00  0.00     0.011 C 
ATOM     20  C   UNL d   1      61.272  46.809  49.835  0.00  0.00     0.001 C 
ENDBRANCH   6  19
BRANCH   5  21
ATOM     21  C   UNL d   1      61.489  48.618  52.603  0.00  0.00     0.011 C 
ATOM     22  C   UNL d   1      61.738  49.323  52.957  0.00  0.00     0.001 C 
ENDBRANCH   5  21
TORSDOF 5
ENDMDL
