MODEL 1
REMARK VINA RESULT:      33.1      0.000      0.000
REMARK  5 active torsions:
REMARK  status: ('A' for Active; 'I' for Inactive)
REMARK    1  A    between atoms: C_6  and  C_1 
REMARK    2  A    between atoms: C_14  and  N_3 
REMARK    3  A    between atoms: O_9  and  C_6 
REMARK    4  A    between atoms: C_15  and  O_9 
REMARK    5  A    between atoms: C_16  and  C_14 
ROOT
ATOM      1  C   UNL d   1      46.220 -18.596  42.797  0.00  0.00     0.120 A 
ATOM      2  C   UNL d   1      46.432 -19.192  43.327  0.00  0.00     0.177 A 
ATOM      3  N   UNL d   1      46.396 -18.877  44.088  0.00  0.00    -0.273 N 
ATOM      4  C   UNL d   1      46.163 -18.089  44.032  0.00  0.00     0.167 A 
ATOM      5  C   UNL d   1      46.055 -17.918  43.236  0.00  0.00     0.124 A 
ATOM      6  N   UNL d   1      46.038 -17.516  44.605  0.00  0.00    -0.225 NA
ATOM      7  N   UNL d   1      45.819 -17.164  43.013  0.00  0.00    -0.241 NA
ATOM      8  C   UNL d   1      45.802 -16.762  44.380  0.00  0.00     0.101 A 
ATOM      9  C   UNL d   1      45.692 -16.583  43.584  0.00  0.00     0.099 A 
ATOM     10  N   UNL d   1      46.643 -19.968  43.138  0.00  0.00    -0.128 N 
ATOM     11  C   UNL d   1      45.678 -16.189  44.953  0.00  0.00     0.021 A 
ATOM     12  C   UNL d   1      45.457 -15.829  43.365  0.00  0.00     0.021 A 
ATOM     13  C   UNL d   1      45.439 -15.424  44.728  0.00  0.00     0.002 A 
ATOM     14  C   UNL d   1      45.332 -15.256  43.937  0.00  0.00     0.002 A 
ENDROOT
BRANCH   1  15
ATOM     15  C   UNL d   1      46.182 -18.675  41.975  0.00  0.00     0.300 C 
ATOM     16  O   UNL d   1      45.860 -18.068  41.524  0.00  0.00    -0.259 OA
BRANCH  15  17
ATOM     17  O   UNL d   1      46.467 -19.359  41.606  0.00  0.00    -0.303 OA
BRANCH  17  18
ATOM     18  C   UNL d   1      46.470 -19.405  40.793  0.00  0.00     0.102 C 
ATOM     19  C   UNL d   1      46.296 -20.212  40.825  0.00  0.00     0.030 C 
ATOM     20  C   UNL d   1      46.645 -18.597  40.748  0.00  0.00     0.030 C 
ATOM     21  C   UNL d   1      46.476 -19.443  39.954  0.00  0.00     0.030 C 
ENDBRANCH  17  18
ENDBRANCH  15  17
ENDBRANCH   1  15
BRANCH   3  22
ATOM     22  C   UNL d   1      46.563 -19.276  44.787  0.00  0.00     0.083 C 
BRANCH  22  23
ATOM     23  C   UNL d   1      46.351 -20.072  44.860  0.00  0.00     0.019 C 
ATOM     24  C   UNL d   1      45.554 -20.275  44.955  0.00  0.00     0.002 C 
ENDBRANCH  22  23
ENDBRANCH   3  22
TORSDOF 5
ENDMDL
