MODEL 1
REMARK VINA RESULT:      -1.8      0.000      0.000
REMARK  1 active torsions:
REMARK  status: ('A' for Active; 'I' for Inactive)
REMARK    1  A    between atoms: N_11  and  C_4 
ROOT
ATOM      1  N   UNL d   1      32.903  21.500 -21.964  0.00  0.00    -0.195 N 
ATOM      2  C   UNL d   1      33.016  21.140 -22.704  0.00  0.00     0.168 A 
ATOM      3  C   UNL d   1      33.042  20.325 -22.771  0.00  0.00     0.073 A 
ATOM      4  C   UNL d   1      32.880  22.315 -21.917  0.00  0.00     0.153 A 
ATOM      5  N   UNL d   1      32.843  20.232 -21.356  0.00  0.00    -0.143 NA
ATOM      6  C   UNL d   1      32.955  19.872 -22.096  0.00  0.00     0.185 A 
ATOM      7  N   UNL d   1      33.102  21.605 -23.375  0.00  0.00    -0.227 NA
ATOM      8  C   UNL d   1      33.153  19.969 -23.502  0.00  0.00     0.007 A 
ATOM      9  N   UNL d   1      32.980  19.046 -22.147  0.00  0.00    -0.225 NA
ATOM     10  C   UNL d   1      32.964  22.780 -22.578  0.00  0.00     0.057 A 
ATOM     11  C   UNL d   1      33.180  19.154 -23.570  0.00  0.00     0.019 A 
ATOM     12  C   UNL d   1      33.077  22.420 -23.318  0.00  0.00     0.086 A 
ATOM     13  C   UNL d   1      33.092  18.686 -22.887  0.00  0.00     0.083 A 
ATOM     14  C   UNL d   1      33.240  20.437 -24.176  0.00  0.00     0.000 C 
ATOM     15  C   UNL d   1      33.166  22.906 -24.014  0.00  0.00     0.021 C 
ATOM     16  C   UNL d   1      33.118  17.874 -22.947  0.00  0.00     0.021 C 
ENDROOT
BRANCH   4  17
ATOM     17  N   UNL d   1      32.763  22.678 -21.151  0.00  0.00    -0.285 N 
ATOM     18  C   UNL d   1      32.154  23.279 -21.050  0.00  0.00     0.108 A 
ATOM     19  C   UNL d   1      32.042  23.636 -20.291  0.00  0.00     0.142 A 
ATOM     20  O   UNL d   1      32.528  23.402 -19.631  0.00  0.00    -0.300 OA
ATOM     21  C   UNL d   1      33.128  22.809 -19.736  0.00  0.00     0.142 A 
ATOM     22  C   UNL d   1      33.240  22.452 -20.496  0.00  0.00     0.108 A 
ENDBRANCH   4  17
TORSDOF 1
ENDMDL
MODEL 2
REMARK VINA RESULT:      -1.7      1.968      4.129
REMARK  1 active torsions:
REMARK  status: ('A' for Active; 'I' for Inactive)
REMARK    1  A    between atoms: N_11  and  C_4 
ROOT
ATOM      1  N   UNL d   1      32.790  19.386 -22.886  0.00  0.00    -0.195 N 
ATOM      2  C   UNL d   1      32.940  20.202 -22.928  0.00  0.00     0.168 A 
ATOM      3  C   UNL d   1      32.945  20.660 -22.250  0.00  0.00     0.073 A 
ATOM      4  C   UNL d   1      32.789  18.945 -23.573  0.00  0.00     0.153 A 
ATOM      5  N   UNL d   1      32.649  19.484 -21.489  0.00  0.00    -0.143 NA
ATOM      6  C   UNL d   1      32.799  20.299 -21.531  0.00  0.00     0.185 A 
ATOM      7  N   UNL d   1      33.086  20.553 -23.656  0.00  0.00    -0.227 NA
ATOM      8  C   UNL d   1      33.094  21.466 -22.292  0.00  0.00     0.007 A 
ATOM      9  N   UNL d   1      32.801  20.750 -20.836  0.00  0.00    -0.225 NA
ATOM     10  C   UNL d   1      32.932  19.288 -24.296  0.00  0.00     0.057 A 
ATOM     11  C   UNL d   1      33.100  21.925 -21.615  0.00  0.00     0.019 A 
ATOM     12  C   UNL d   1      33.083  20.103 -24.338  0.00  0.00     0.086 A 
ATOM     13  C   UNL d   1      32.952  21.565 -20.878  0.00  0.00     0.083 A 
ATOM     14  C   UNL d   1      33.240  21.818 -23.024  0.00  0.00     0.000 C 
ATOM     15  C   UNL d   1      33.234  20.465 -25.097  0.00  0.00     0.021 C 
ATOM     16  C   UNL d   1      32.955  22.016 -20.200  0.00  0.00     0.021 C 
ENDROOT
BRANCH   4  17
ATOM     17  N   UNL d   1      32.633  18.105 -23.521  0.00  0.00    -0.285 N 
ATOM     18  C   UNL d   1      31.884  17.791 -23.808  0.00  0.00     0.108 A 
ATOM     19  C   UNL d   1      31.733  16.959 -23.754  0.00  0.00     0.142 A 
ATOM     20  O   UNL d   1      32.318  16.438 -23.420  0.00  0.00    -0.300 OA
ATOM     21  C   UNL d   1      33.055  16.754 -23.139  0.00  0.00     0.142 A 
ATOM     22  C   UNL d   1      33.206  17.586 -23.192  0.00  0.00     0.108 A 
ENDBRANCH   4  17
TORSDOF 1
ENDMDL
MODEL 3
REMARK VINA RESULT:      -1.5      1.224      2.755
REMARK  1 active torsions:
REMARK  status: ('A' for Active; 'I' for Inactive)
REMARK    1  A    between atoms: N_11  and  C_4 
ROOT
ATOM      1  N   UNL d   1      32.843  22.525 -21.497  0.00  0.00    -0.195 N 
ATOM      2  C   UNL d   1      32.976  22.074 -22.182  0.00  0.00     0.168 A 
ATOM      3  C   UNL d   1      33.043  22.436 -22.912  0.00  0.00     0.073 A 
ATOM      4  C   UNL d   1      32.779  22.145 -20.776  0.00  0.00     0.153 A 
ATOM      5  N   UNL d   1      32.843  23.700 -22.270  0.00  0.00    -0.143 NA
ATOM      6  C   UNL d   1      32.976  23.250 -22.955  0.00  0.00     0.185 A 
ATOM      7  N   UNL d   1      33.041  21.257 -22.126  0.00  0.00    -0.227 NA
ATOM      8  C   UNL d   1      33.174  21.991 -23.590  0.00  0.00     0.007 A 
ATOM      9  N   UNL d   1      33.041  23.631 -23.687  0.00  0.00    -0.225 NA
ATOM     10  C   UNL d   1      32.843  21.337 -20.716  0.00  0.00     0.057 A 
ATOM     11  C   UNL d   1      33.241  22.352 -24.320  0.00  0.00     0.019 A 
ATOM     12  C   UNL d   1      32.975  20.887 -21.401  0.00  0.00     0.086 A 
ATOM     13  C   UNL d   1      33.174  23.181 -24.372  0.00  0.00     0.083 A 
ATOM     14  C   UNL d   1      33.239  21.170 -23.533  0.00  0.00     0.000 C 
ATOM     15  C   UNL d   1      33.043  20.038 -21.340  0.00  0.00     0.021 C 
ATOM     16  C   UNL d   1      33.240  23.547 -25.096  0.00  0.00     0.021 C 
ENDROOT
BRANCH   4  17
ATOM     17  N   UNL d   1      32.642  22.617 -20.075  0.00  0.00    -0.285 N 
ATOM     18  C   UNL d   1      31.911  23.066 -19.998  0.00  0.00     0.108 A 
ATOM     19  C   UNL d   1      31.779  23.531 -19.303  0.00  0.00     0.142 A 
ATOM     20  O   UNL d   1      32.365  23.555 -18.686  0.00  0.00    -0.300 OA
ATOM     21  C   UNL d   1      33.085  23.110 -18.767  0.00  0.00     0.142 A 
ATOM     22  C   UNL d   1      33.217  22.644 -19.463  0.00  0.00     0.108 A 
ENDBRANCH   4  17
TORSDOF 1
ENDMDL
MODEL 4
REMARK VINA RESULT:      -1.0      1.695      3.814
REMARK  1 active torsions:
REMARK  status: ('A' for Active; 'I' for Inactive)
REMARK    1  A    between atoms: N_11  and  C_4 
ROOT
ATOM      1  N   UNL d   1      32.875  20.305 -22.413  0.00  0.00    -0.195 N 
ATOM      2  C   UNL d   1      32.994  21.126 -22.400  0.00  0.00     0.168 A 
ATOM      3  C   UNL d   1      32.994  21.536 -21.692  0.00  0.00     0.073 A 
ATOM      4  C   UNL d   1      32.878  19.913 -23.130  0.00  0.00     0.153 A 
ATOM      5  N   UNL d   1      32.757  20.299 -21.011  0.00  0.00    -0.143 NA
ATOM      6  C   UNL d   1      32.876  21.121 -20.998  0.00  0.00     0.185 A 
ATOM      7  N   UNL d   1      33.112  21.532 -23.104  0.00  0.00    -0.227 NA
ATOM      8  C   UNL d   1      33.112  22.348 -21.679  0.00  0.00     0.007 A 
ATOM      9  N   UNL d   1      32.873  21.521 -20.273  0.00  0.00    -0.225 NA
ATOM     10  C   UNL d   1      32.994  20.310 -23.829  0.00  0.00     0.057 A 
ATOM     11  C   UNL d   1      33.113  22.758 -20.972  0.00  0.00     0.019 A 
ATOM     12  C   UNL d   1      33.113  21.132 -23.816  0.00  0.00     0.086 A 
ATOM     13  C   UNL d   1      32.992  22.343 -20.260  0.00  0.00     0.083 A 
ATOM     14  C   UNL d   1      33.231  22.756 -22.387  0.00  0.00     0.000 C 
ATOM     15  C   UNL d   1      33.236  21.551 -24.550  0.00  0.00     0.021 C 
ATOM     16  C   UNL d   1      32.992  22.745 -19.552  0.00  0.00     0.021 C 
ENDROOT
BRANCH   4  17
ATOM     17  N   UNL d   1      32.754  19.066 -23.135  0.00  0.00    -0.285 N 
ATOM     18  C   UNL d   1      32.128  18.728 -23.620  0.00  0.00     0.108 A 
ATOM     19  C   UNL d   1      32.009  17.889 -23.622  0.00  0.00     0.142 A 
ATOM     20  O   UNL d   1      32.506  17.385 -23.147  0.00  0.00    -0.300 OA
ATOM     21  C   UNL d   1      33.122  17.724 -22.671  0.00  0.00     0.142 A 
ATOM     22  C   UNL d   1      33.241  18.563 -22.669  0.00  0.00     0.108 A 
ENDBRANCH   4  17
TORSDOF 1
ENDMDL
MODEL 5
REMARK VINA RESULT:      -0.5      1.264      2.311
REMARK  1 active torsions:
REMARK  status: ('A' for Active; 'I' for Inactive)
REMARK    1  A    between atoms: N_11  and  C_4 
ROOT
ATOM      1  N   UNL d   1      32.906  20.654 -22.712  0.00  0.00    -0.195 N 
ATOM      2  C   UNL d   1      33.005  19.849 -22.537  0.00  0.00     0.168 A 
ATOM      3  C   UNL d   1      32.994  19.289 -23.133  0.00  0.00     0.073 A 
ATOM      4  C   UNL d   1      32.919  21.199 -22.104  0.00  0.00     0.153 A 
ATOM      5  N   UNL d   1      32.785  20.343 -24.079  0.00  0.00    -0.143 NA
ATOM      6  C   UNL d   1      32.884  19.538 -23.904  0.00  0.00     0.185 A 
ATOM      7  N   UNL d   1      33.115  19.611 -21.759  0.00  0.00    -0.227 NA
ATOM      8  C   UNL d   1      33.092  18.492 -22.961  0.00  0.00     0.007 A 
ATOM      9  N   UNL d   1      32.870  18.982 -24.519  0.00  0.00    -0.225 NA
ATOM     10  C   UNL d   1      33.028  20.969 -21.332  0.00  0.00     0.057 A 
ATOM     11  C   UNL d   1      33.081  17.932 -23.556  0.00  0.00     0.019 A 
ATOM     12  C   UNL d   1      33.127  20.164 -21.157  0.00  0.00     0.086 A 
ATOM     13  C   UNL d   1      32.970  18.177 -24.344  0.00  0.00     0.083 A 
ATOM     14  C   UNL d   1      33.202  18.254 -22.178  0.00  0.00     0.000 C 
ATOM     15  C   UNL d   1      33.241  19.920 -20.347  0.00  0.00     0.021 C 
ATOM     16  C   UNL d   1      32.958  17.624 -24.942  0.00  0.00     0.021 C 
ENDROOT
BRANCH   4  17
ATOM     17  N   UNL d   1      32.816  22.028 -22.293  0.00  0.00    -0.285 N 
ATOM     18  C   UNL d   1      32.279  22.510 -21.823  0.00  0.00     0.108 A 
ATOM     19  C   UNL d   1      32.180  23.329 -22.013  0.00  0.00     0.142 A 
ATOM     20  O   UNL d   1      32.609  23.673 -22.664  0.00  0.00    -0.300 OA
ATOM     21  C   UNL d   1      33.138  23.192 -23.124  0.00  0.00     0.142 A 
ATOM     22  C   UNL d   1      33.237  22.373 -22.934  0.00  0.00     0.108 A 
ENDBRANCH   4  17
TORSDOF 1
ENDMDL
MODEL 6
REMARK VINA RESULT:      -0.3      5.358      6.437
REMARK  1 active torsions:
REMARK  status: ('A' for Active; 'I' for Inactive)
REMARK    1  A    between atoms: N_11  and  C_4 
ROOT
ATOM      1  N   UNL d   1      29.617  16.515 -23.903  0.00  0.00    -0.195 N 
ATOM      2  C   UNL d   1      30.309  16.902 -24.149  0.00  0.00     0.168 A 
ATOM      3  C   UNL d   1      31.044  16.573 -24.004  0.00  0.00     0.073 A 
ATOM      4  C   UNL d   1      28.891  16.859 -24.056  0.00  0.00     0.153 A 
ATOM      5  N   UNL d   1      30.391  15.469 -23.368  0.00  0.00    -0.143 NA
ATOM      6  C   UNL d   1      31.083  15.856 -23.613  0.00  0.00     0.185 A 
ATOM      7  N   UNL d   1      30.256  17.622 -24.541  0.00  0.00    -0.227 NA
ATOM      8  C   UNL d   1      31.728  16.956 -24.247  0.00  0.00     0.007 A 
ATOM      9  N   UNL d   1      31.820  15.510 -23.460  0.00  0.00    -0.225 NA
ATOM     10  C   UNL d   1      28.834  17.571 -24.444  0.00  0.00     0.057 A 
ATOM     11  C   UNL d   1      32.463  16.628 -24.103  0.00  0.00     0.019 A 
ATOM     12  C   UNL d   1      29.526  17.958 -24.689  0.00  0.00     0.086 A 
ATOM     13  C   UNL d   1      32.512  15.897 -23.705  0.00  0.00     0.083 A 
ATOM     14  C   UNL d   1      31.675  17.679 -24.641  0.00  0.00     0.000 C 
ATOM     15  C   UNL d   1      29.468  18.706 -25.096  0.00  0.00     0.021 C 
ATOM     16  C   UNL d   1      33.241  15.565 -23.559  0.00  0.00     0.021 C 
ENDROOT
BRANCH   4  17
ATOM     17  N   UNL d   1      28.183  16.453 -23.800  0.00  0.00    -0.285 N 
ATOM     18  C   UNL d   1      27.828  15.852 -24.304  0.00  0.00     0.108 A 
ATOM     19  C   UNL d   1      27.127  15.453 -24.047  0.00  0.00     0.142 A 
ATOM     20  O   UNL d   1      26.776  15.645 -23.294  0.00  0.00    -0.300 OA
ATOM     21  C   UNL d   1      27.131  16.239 -22.801  0.00  0.00     0.142 A 
ATOM     22  C   UNL d   1      27.832  16.638 -23.058  0.00  0.00     0.108 A 
ENDBRANCH   4  17
TORSDOF 1
ENDMDL
MODEL 7
REMARK VINA RESULT:       0.1      1.552      3.792
REMARK  1 active torsions:
REMARK  status: ('A' for Active; 'I' for Inactive)
REMARK    1  A    between atoms: N_11  and  C_4 
ROOT
ATOM      1  N   UNL d   1      33.237  22.209 -22.090  0.00  0.00    -0.195 N 
ATOM      2  C   UNL d   1      33.237  21.732 -21.411  0.00  0.00     0.168 A 
ATOM      3  C   UNL d   1      33.238  22.069 -20.665  0.00  0.00     0.073 A 
ATOM      4  C   UNL d   1      33.237  21.855 -22.826  0.00  0.00     0.153 A 
ATOM      5  N   UNL d   1      33.238  23.361 -21.281  0.00  0.00    -0.143 NA
ATOM      6  C   UNL d   1      33.238  22.884 -20.602  0.00  0.00     0.185 A 
ATOM      7  N   UNL d   1      33.237  20.914 -21.487  0.00  0.00    -0.227 NA
ATOM      8  C   UNL d   1      33.238  21.597 -19.993  0.00  0.00     0.007 A 
ATOM      9  N   UNL d   1      33.239  23.239 -19.854  0.00  0.00    -0.225 NA
ATOM     10  C   UNL d   1      33.236  21.046 -22.907  0.00  0.00     0.057 A 
ATOM     11  C   UNL d   1      33.238  21.933 -19.248  0.00  0.00     0.019 A 
ATOM     12  C   UNL d   1      33.236  20.569 -22.227  0.00  0.00     0.086 A 
ATOM     13  C   UNL d   1      33.239  22.762 -19.175  0.00  0.00     0.083 A 
ATOM     14  C   UNL d   1      33.237  20.775 -20.070  0.00  0.00     0.000 C 
ATOM     15  C   UNL d   1      33.236  19.719 -22.310  0.00  0.00     0.021 C 
ATOM     16  C   UNL d   1      33.239  23.104 -18.435  0.00  0.00     0.021 C 
ENDROOT
BRANCH   4  17
ATOM     17  N   UNL d   1      33.237  22.354 -23.522  0.00  0.00    -0.285 N 
ATOM     18  C   UNL d   1      33.236  23.211 -23.433  0.00  0.00     0.108 A 
ATOM     19  C   UNL d   1      33.236  23.702 -24.123  0.00  0.00     0.142 A 
ATOM     20  O   UNL d   1      33.236  23.349 -24.899  0.00  0.00    -0.300 OA
ATOM     21  C   UNL d   1      33.237  22.504 -24.980  0.00  0.00     0.142 A 
ATOM     22  C   UNL d   1      33.237  22.013 -24.290  0.00  0.00     0.108 A 
ENDBRANCH   4  17
TORSDOF 1
ENDMDL
