MODEL 1
REMARK VINA RESULT:      45.0      0.000      0.000
REMARK  5 active torsions:
REMARK  status: ('A' for Active; 'I' for Inactive)
REMARK    1  A    between atoms: N_2  and  S_1 
REMARK    2  A    between atoms: C_5  and  S_1 
REMARK    3  A    between atoms: C_3  and  N_2 
REMARK    4  A    between atoms: C_4  and  C_3 
REMARK       I    between atoms: N_8  and  C_4 
REMARK    5  A    between atoms: C_12  and  N_8 
ROOT
ATOM      1  N   UNL d   1     -55.406 -99.916 -44.602  0.00  0.00    -0.223 N 
ATOM      2  C   UNL d   1     -55.700-100.276 -45.287  0.00  0.00     0.112 C 
ENDROOT
BRANCH   1   3
ATOM      3  S   UNL d   1     -55.808 -99.275 -44.277  0.00  0.00     0.272 S 
ATOM      4  O   UNL d   1     -55.415 -98.756 -43.768  0.00  0.00    -0.200 OA
ATOM      5  O   UNL d   1     -56.012 -99.887 -44.788  0.00  0.00    -0.200 OA
BRANCH   3   6
ATOM      6  C   UNL d   1     -56.606 -99.148 -44.457  0.00  0.00     0.104 A 
ATOM      7  C   UNL d   1     -56.827 -98.883 -45.208  0.00  0.00     0.013 A 
ATOM      8  C   UNL d   1     -57.631 -98.758 -45.382  0.00  0.00     0.001 A 
ATOM      9  C   UNL d   1     -58.206 -98.898 -44.807  0.00  0.00     0.000 A 
ATOM     10  C   UNL d   1     -57.985 -99.164 -44.056  0.00  0.00     0.001 A 
ATOM     11  C   UNL d   1     -59.002 -98.773 -44.983  0.00  0.00     0.000 C 
ATOM     12  C   UNL d   1     -57.189 -99.289 -43.880  0.00  0.00     0.013 A 
ENDBRANCH   3   6
ENDBRANCH   1   3
BRANCH   1  13
ATOM     13  C   UNL d   1     -54.716-100.200 -44.251  0.00  0.00     0.154 C 
BRANCH  13  14
ATOM     14  C   UNL d   1     -54.747-100.860 -43.757  0.00  0.00     0.298 C 
ATOM     15  N   UNL d   1     -54.747-100.757 -42.936  0.00  0.00    -0.207 NA
ATOM     16  O   UNL d   1     -54.778-101.620 -44.082  0.00  0.00    -0.264 OA
BRANCH  15  17
ATOM     17  C   UNL d   1     -54.779-101.417 -42.442  0.00  0.00     0.085 A 
ATOM     18  C   UNL d   1     -54.711-101.325 -41.631  0.00  0.00     0.019 A 
ATOM     19  C   UNL d   1     -54.742-101.984 -41.137  0.00  0.00     0.002 A 
ATOM     20  C   UNL d   1     -54.842-102.737 -41.461  0.00  0.00     0.000 A 
ATOM     21  C   UNL d   1     -54.909-102.825 -42.280  0.00  0.00     0.002 A 
ATOM     22  C   UNL d   1     -54.877-102.165 -42.766  0.00  0.00     0.019 A 
ENDBRANCH  15  17
ENDBRANCH  13  14
ENDBRANCH   1  13
TORSDOF 5
ENDMDL
MODEL 2
REMARK VINA RESULT:      47.1      1.026      4.129
REMARK  5 active torsions:
REMARK  status: ('A' for Active; 'I' for Inactive)
REMARK    1  A    between atoms: N_2  and  S_1 
REMARK    2  A    between atoms: C_5  and  S_1 
REMARK    3  A    between atoms: C_3  and  N_2 
REMARK    4  A    between atoms: C_4  and  C_3 
REMARK       I    between atoms: N_8  and  C_4 
REMARK    5  A    between atoms: C_12  and  N_8 
ROOT
ATOM      1  N   UNL d   1     -55.550 -99.508 -44.104  0.00  0.00    -0.223 N 
ATOM      2  C   UNL d   1     -55.042 -99.204 -43.527  0.00  0.00     0.112 C 
ENDROOT
BRANCH   1   3
ATOM      3  S   UNL d   1     -55.495-100.303 -44.315  0.00  0.00     0.272 S 
ATOM      4  O   UNL d   1     -55.599-100.529 -45.102  0.00  0.00    -0.200 OA
ATOM      5  O   UNL d   1     -55.426 -99.884 -43.609  0.00  0.00    -0.200 OA
BRANCH   3   6
ATOM      6  C   UNL d   1     -55.335-100.876 -43.740  0.00  0.00     0.104 A 
ATOM      7  C   UNL d   1     -54.886-101.544 -43.929  0.00  0.00     0.013 A 
ATOM      8  C   UNL d   1     -54.729-102.116 -43.346  0.00  0.00     0.001 A 
ATOM      9  C   UNL d   1     -55.021-102.017 -42.580  0.00  0.00     0.000 A 
ATOM     10  C   UNL d   1     -55.470-101.349 -42.391  0.00  0.00     0.001 A 
ATOM     11  C   UNL d   1     -54.864-102.586 -42.004  0.00  0.00     0.000 C 
ATOM     12  C   UNL d   1     -55.627-100.780 -42.967  0.00  0.00     0.013 A 
ENDBRANCH   3   6
ENDBRANCH   1   3
BRANCH   1  13
ATOM     13  C   UNL d   1     -56.106 -99.017 -44.465  0.00  0.00     0.154 C 
BRANCH  13  14
ATOM     14  C   UNL d   1     -56.856 -98.931 -44.132  0.00  0.00     0.298 C 
ATOM     15  N   UNL d   1     -57.527 -99.014 -44.608  0.00  0.00    -0.207 NA
ATOM     16  O   UNL d   1     -56.935 -98.762 -43.326  0.00  0.00    -0.264 OA
BRANCH  15  17
ATOM     17  C   UNL d   1     -58.277 -98.929 -44.275  0.00  0.00     0.085 A 
ATOM     18  C   UNL d   1     -58.360 -98.863 -43.463  0.00  0.00     0.019 A 
ATOM     19  C   UNL d   1     -59.110 -98.777 -43.131  0.00  0.00     0.002 A 
ATOM     20  C   UNL d   1     -59.776 -98.758 -43.617  0.00  0.00     0.000 A 
ATOM     21  C   UNL d   1     -59.688 -98.825 -44.437  0.00  0.00     0.002 A 
ATOM     22  C   UNL d   1     -58.939 -98.910 -44.761  0.00  0.00     0.019 A 
ENDBRANCH  15  17
ENDBRANCH  13  14
ENDBRANCH   1  13
TORSDOF 5
ENDMDL
