MODEL 1
REMARK VINA RESULT:      -2.7      0.000      0.000
REMARK  1 active torsions:
REMARK  status: ('A' for Active; 'I' for Inactive)
REMARK    1  A    between atoms: C_5  and  C_1 
ROOT
ATOM      1  C   UNL d   1      29.280  16.353 -23.853  0.00  0.00     0.164 A 
ATOM      2  O   UNL d   1      30.003  16.027 -23.447  0.00  0.00    -0.301 OA
ATOM      3  C   UNL d   1      29.536  16.937 -24.352  0.00  0.00     0.033 A 
ATOM      4  C   UNL d   1      30.341  17.018 -24.307  0.00  0.00     0.025 A 
ATOM      5  C   UNL d   1      30.629  16.459 -23.751  0.00  0.00     0.100 A 
ATOM      6  C   UNL d   1      30.865  17.529 -24.698  0.00  0.00     0.009 A 
ATOM      7  C   UNL d   1      31.434  16.421 -23.597  0.00  0.00     0.025 A 
ATOM      8  C   UNL d   1      31.674  17.479 -24.533  0.00  0.00     0.035 A 
ATOM      9  C   UNL d   1      31.961  16.920 -23.977  0.00  0.00     0.009 A 
ATOM     10 BR   UNL d   1      32.200  17.990 -24.924  0.00  0.00    -0.049 Br
ENDROOT
BRANCH   1  11
ATOM     11  C   UNL d   1      28.487  16.140 -23.775  0.00  0.00     0.235 C 
ATOM     12  O   UNL d   1      27.960  16.606 -23.336  0.00  0.00    -0.642 OA
ATOM     13  O   UNL d   1      28.177  15.453 -24.129  0.00  0.00    -0.642 OA
ENDBRANCH   1  11
TORSDOF 1
ENDMDL
MODEL 2
REMARK VINA RESULT:      -2.7      6.283      6.980
REMARK  1 active torsions:
REMARK  status: ('A' for Active; 'I' for Inactive)
REMARK    1  A    between atoms: C_5  and  C_1 
ROOT
ATOM      1  C   UNL d   1      32.864  21.006 -21.349  0.00  0.00     0.164 A 
ATOM      2  O   UNL d   1      32.399  21.699 -21.659  0.00  0.00    -0.301 OA
ATOM      3  C   UNL d   1      33.157  21.227 -20.627  0.00  0.00     0.033 A 
ATOM      4  C   UNL d   1      32.929  21.983 -20.445  0.00  0.00     0.025 A 
ATOM      5  C   UNL d   1      32.463  22.274 -21.080  0.00  0.00     0.100 A 
ATOM      6  C   UNL d   1      33.080  22.459 -19.783  0.00  0.00     0.009 A 
ATOM      7  C   UNL d   1      32.156  23.035 -21.041  0.00  0.00     0.025 A 
ATOM      8  C   UNL d   1      32.764  23.223 -19.757  0.00  0.00     0.035 A 
ATOM      9  C   UNL d   1      32.299  23.514 -20.391  0.00  0.00     0.009 A 
ATOM     10 BR   UNL d   1      32.915  23.701 -19.093  0.00  0.00    -0.049 Br
ENDROOT
BRANCH   1  11
ATOM     11  C   UNL d   1      33.002  20.266 -21.686  0.00  0.00     0.235 C 
ATOM     12  O   UNL d   1      32.907  20.142 -22.500  0.00  0.00    -0.642 OA
ATOM     13  O   UNL d   1      33.241  19.612 -21.231  0.00  0.00    -0.642 OA
ENDBRANCH   1  11
TORSDOF 1
ENDMDL
MODEL 3
REMARK VINA RESULT:      -2.6      1.979      3.162
REMARK  1 active torsions:
REMARK  status: ('A' for Active; 'I' for Inactive)
REMARK    1  A    between atoms: C_5  and  C_1 
ROOT
ATOM      1  C   UNL d   1      31.547  16.904 -23.876  0.00  0.00     0.164 A 
ATOM      2  O   UNL d   1      30.951  17.383 -24.332  0.00  0.00    -0.301 OA
ATOM      3  C   UNL d   1      31.146  16.280 -23.552  0.00  0.00     0.033 A 
ATOM      4  C   UNL d   1      30.361  16.310 -23.752  0.00  0.00     0.025 A 
ATOM      5  C   UNL d   1      30.241  16.988 -24.231  0.00  0.00     0.100 A 
ATOM      6  C   UNL d   1      29.726  15.811 -23.564  0.00  0.00     0.009 A 
ATOM      7  C   UNL d   1      29.488  17.154 -24.515  0.00  0.00     0.025 A 
ATOM      8  C   UNL d   1      28.973  15.990 -23.856  0.00  0.00     0.035 A 
ATOM      9  C   UNL d   1      28.853  16.668 -24.336  0.00  0.00     0.009 A 
ATOM     10 BR   UNL d   1      28.337  15.490 -23.669  0.00  0.00    -0.049 Br
ENDROOT
BRANCH   1  11
ATOM     11  C   UNL d   1      32.356  17.025 -23.771  0.00  0.00     0.235 C 
ATOM     12  O   UNL d   1      32.644  17.460 -23.127  0.00  0.00    -0.642 OA
ATOM     13  O   UNL d   1      32.921  16.720 -24.301  0.00  0.00    -0.642 OA
ENDBRANCH   1  11
TORSDOF 1
ENDMDL
MODEL 4
REMARK VINA RESULT:      -2.5      2.018      3.081
REMARK  1 active torsions:
REMARK  status: ('A' for Active; 'I' for Inactive)
REMARK    1  A    between atoms: C_5  and  C_1 
ROOT
ATOM      1  C   UNL d   1      31.684  17.325 -24.055  0.00  0.00     0.164 A 
ATOM      2  O   UNL d   1      31.697  16.611 -23.524  0.00  0.00    -0.301 OA
ATOM      3  C   UNL d   1      30.934  17.379 -24.355  0.00  0.00     0.033 A 
ATOM      4  C   UNL d   1      30.469  16.778 -24.071  0.00  0.00     0.025 A 
ATOM      5  C   UNL d   1      30.938  16.306 -23.561  0.00  0.00     0.100 A 
ATOM      6  C   UNL d   1      29.673  16.588 -24.206  0.00  0.00     0.009 A 
ATOM      7  C   UNL d   1      30.603  15.652 -23.194  0.00  0.00     0.025 A 
ATOM      8  C   UNL d   1      29.348  15.927 -23.830  0.00  0.00     0.035 A 
ATOM      9  C   UNL d   1      29.817  15.454 -23.320  0.00  0.00     0.009 A 
ATOM     10 BR   UNL d   1      28.551  15.736 -23.965  0.00  0.00    -0.049 Br
ENDROOT
BRANCH   1  11
ATOM     11  C   UNL d   1      32.285  17.859 -24.242  0.00  0.00     0.235 C 
ATOM     12  O   UNL d   1      32.769  17.744 -24.904  0.00  0.00    -0.642 OA
ATOM     13  O   UNL d   1      32.435  18.534 -23.778  0.00  0.00    -0.642 OA
ENDBRANCH   1  11
TORSDOF 1
ENDMDL
MODEL 5
REMARK VINA RESULT:      -2.5      5.877      6.583
REMARK  1 active torsions:
REMARK  status: ('A' for Active; 'I' for Inactive)
REMARK    1  A    between atoms: C_5  and  C_1 
ROOT
ATOM      1  C   UNL d   1      32.542  22.480 -20.903  0.00  0.00     0.164 A 
ATOM      2  O   UNL d   1      32.782  22.510 -21.760  0.00  0.00    -0.301 OA
ATOM      3  C   UNL d   1      32.550  21.700 -20.685  0.00  0.00     0.033 A 
ATOM      4  C   UNL d   1      32.770  21.232 -21.310  0.00  0.00     0.025 A 
ATOM      5  C   UNL d   1      32.913  21.729 -21.970  0.00  0.00     0.100 A 
ATOM      6  C   UNL d   1      32.863  20.410 -21.375  0.00  0.00     0.009 A 
ATOM      7  C   UNL d   1      33.145  21.397 -22.684  0.00  0.00     0.025 A 
ATOM      8  C   UNL d   1      33.098  20.089 -22.100  0.00  0.00     0.035 A 
ATOM      9  C   UNL d   1      33.240  20.586 -22.761  0.00  0.00     0.009 A 
ATOM     10 BR   UNL d   1      33.191  19.266 -22.167  0.00  0.00    -0.049 Br
ENDROOT
BRANCH   1  11
ATOM     11  C   UNL d   1      32.340  23.091 -20.387  0.00  0.00     0.235 C 
ATOM     12  O   UNL d   1      31.725  23.617 -20.566  0.00  0.00    -0.642 OA
ATOM     13  O   UNL d   1      32.740  23.210 -19.666  0.00  0.00    -0.642 OA
ENDBRANCH   1  11
TORSDOF 1
ENDMDL
MODEL 6
REMARK VINA RESULT:      -2.3      4.291      5.122
REMARK  1 active torsions:
REMARK  status: ('A' for Active; 'I' for Inactive)
REMARK    1  A    between atoms: C_5  and  C_1 
ROOT
ATOM      1  C   UNL d   1      32.751  20.707 -21.490  0.00  0.00     0.164 A 
ATOM      2  O   UNL d   1      32.904  19.839 -21.366  0.00  0.00    -0.301 OA
ATOM      3  C   UNL d   1      32.775  20.836 -22.289  0.00  0.00     0.033 A 
ATOM      4  C   UNL d   1      32.926  20.145 -22.685  0.00  0.00     0.025 A 
ATOM      5  C   UNL d   1      33.005  19.532 -22.118  0.00  0.00     0.100 A 
ATOM      6  C   UNL d   1      33.005  19.981 -23.494  0.00  0.00     0.009 A 
ATOM      7  C   UNL d   1      33.161  18.766 -22.369  0.00  0.00     0.025 A 
ATOM      8  C   UNL d   1      33.162  19.204 -23.734  0.00  0.00     0.035 A 
ATOM      9  C   UNL d   1      33.241  18.591 -23.166  0.00  0.00     0.009 A 
ATOM     10 BR   UNL d   1      33.241  19.039 -24.544  0.00  0.00    -0.049 Br
ENDROOT
BRANCH   1  11
ATOM     11  C   UNL d   1      32.608  21.305 -20.940  0.00  0.00     0.235 C 
ATOM     12  O   UNL d   1      33.231  21.674 -20.537  0.00  0.00    -0.642 OA
ATOM     13  O   UNL d   1      31.838  21.566 -20.762  0.00  0.00    -0.642 OA
ENDBRANCH   1  11
TORSDOF 1
ENDMDL
MODEL 7
REMARK VINA RESULT:      -2.3      1.702      2.540
REMARK  1 active torsions:
REMARK  status: ('A' for Active; 'I' for Inactive)
REMARK    1  A    between atoms: C_5  and  C_1 
ROOT
ATOM      1  C   UNL d   1      31.422  16.804 -24.510  0.00  0.00     0.164 A 
ATOM      2  O   UNL d   1      31.780  17.431 -25.031  0.00  0.00    -0.301 OA
ATOM      3  C   UNL d   1      31.637  16.982 -23.750  0.00  0.00     0.033 A 
ATOM      4  C   UNL d   1      32.092  17.654 -23.732  0.00  0.00     0.025 A 
ATOM      5  C   UNL d   1      32.179  17.929 -24.519  0.00  0.00     0.100 A 
ATOM      6  C   UNL d   1      32.445  18.061 -23.102  0.00  0.00     0.009 A 
ATOM      7  C   UNL d   1      32.619  18.608 -24.663  0.00  0.00     0.025 A 
ATOM      8  C   UNL d   1      32.885  18.744 -23.262  0.00  0.00     0.035 A 
ATOM      9  C   UNL d   1      32.973  19.020 -24.049  0.00  0.00     0.009 A 
ATOM     10 BR   UNL d   1      33.240  19.153 -22.631  0.00  0.00    -0.049 Br
ENDROOT
BRANCH   1  11
ATOM     11  C   UNL d   1      30.958  16.151 -24.707  0.00  0.00     0.235 C 
ATOM     12  O   UNL d   1      31.297  15.466 -25.026  0.00  0.00    -0.642 OA
ATOM     13  O   UNL d   1      30.133  16.147 -24.597  0.00  0.00    -0.642 OA
ENDBRANCH   1  11
TORSDOF 1
ENDMDL
MODEL 8
REMARK VINA RESULT:      -2.1      7.396      8.034
REMARK  1 active torsions:
REMARK  status: ('A' for Active; 'I' for Inactive)
REMARK    1  A    between atoms: C_5  and  C_1 
ROOT
ATOM      1  C   UNL d   1      32.748  23.066 -19.193  0.00  0.00     0.164 A 
ATOM      2  O   UNL d   1      32.414  23.636 -19.790  0.00  0.00    -0.301 OA
ATOM      3  C   UNL d   1      33.065  22.449 -19.610  0.00  0.00     0.033 A 
ATOM      4  C   UNL d   1      32.970  22.565 -20.407  0.00  0.00     0.025 A 
ATOM      5  C   UNL d   1      32.570  23.294 -20.518  0.00  0.00     0.100 A 
ATOM      6  C   UNL d   1      33.193  22.105 -21.060  0.00  0.00     0.009 A 
ATOM      7  C   UNL d   1      32.400  23.550 -21.279  0.00  0.00     0.025 A 
ATOM      8  C   UNL d   1      33.016  22.376 -21.822  0.00  0.00     0.035 A 
ATOM      9  C   UNL d   1      32.615  23.105 -21.933  0.00  0.00     0.009 A 
ATOM     10 BR   UNL d   1      33.239  21.915 -22.477  0.00  0.00    -0.049 Br
ENDROOT
BRANCH   1  11
ATOM     11  C   UNL d   1      32.759  23.107 -18.369  0.00  0.00     0.235 C 
ATOM     12  O   UNL d   1      32.321  23.682 -17.963  0.00  0.00    -0.642 OA
ATOM     13  O   UNL d   1      33.206  22.579 -17.907  0.00  0.00    -0.642 OA
ENDBRANCH   1  11
TORSDOF 1
ENDMDL
MODEL 9
REMARK VINA RESULT:      -2.1      3.397      4.294
REMARK  1 active torsions:
REMARK  status: ('A' for Active; 'I' for Inactive)
REMARK    1  A    between atoms: C_5  and  C_1 
ROOT
ATOM      1  C   UNL d   1      33.035  19.393 -22.713  0.00  0.00     0.164 A 
ATOM      2  O   UNL d   1      32.848  19.392 -23.584  0.00  0.00    -0.301 OA
ATOM      3  C   UNL d   1      33.063  18.618 -22.480  0.00  0.00     0.033 A 
ATOM      4  C   UNL d   1      32.916  18.126 -23.107  0.00  0.00     0.025 A 
ATOM      5  C   UNL d   1      32.784  18.601 -23.785  0.00  0.00     0.100 A 
ATOM      6  C   UNL d   1      32.882  17.299 -23.160  0.00  0.00     0.009 A 
ATOM      7  C   UNL d   1      32.620  18.241 -24.505  0.00  0.00     0.025 A 
ATOM      8  C   UNL d   1      32.716  16.950 -23.892  0.00  0.00     0.035 A 
ATOM      9  C   UNL d   1      32.584  17.425 -24.570  0.00  0.00     0.009 A 
ATOM     10 BR   UNL d   1      32.682  16.121 -23.946  0.00  0.00    -0.049 Br
ENDROOT
BRANCH   1  11
ATOM     11  C   UNL d   1      33.162  20.025 -22.198  0.00  0.00     0.235 C 
ATOM     12  O   UNL d   1      33.238  19.904 -21.382  0.00  0.00    -0.642 OA
ATOM     13  O   UNL d   1      33.220  20.810 -22.470  0.00  0.00    -0.642 OA
ENDBRANCH   1  11
TORSDOF 1
ENDMDL
