MODEL 1
REMARK VINA RESULT:      -4.5      0.000      0.000
REMARK  4 active torsions:
REMARK  status: ('A' for Active; 'I' for Inactive)
REMARK    1  A    between atoms: N_7  and  C_3 
REMARK       I    between atoms: C_8  and  N_7 
REMARK    2  A    between atoms: C_14  and  C_8 
REMARK    3  A    between atoms: C_15  and  C_14 
REMARK    4  A    between atoms: C_16  and  C_14 
ROOT
ATOM      1  C   UNL d   1      59.360   0.562  30.148  0.00  0.00     0.343 A 
ATOM      2  N   UNL d   1      58.897   0.566  30.820  0.00  0.00    -0.241 N 
ATOM      3  C   UNL d   1      58.086   0.455  30.763  0.00  0.00     0.159 A 
ATOM      4  N   UNL d   1      59.014   0.446  29.410  0.00  0.00    -0.224 N 
ATOM      5  C   UNL d   1      57.739   0.339  30.025  0.00  0.00     0.099 A 
ATOM      6  C   UNL d   1      58.200   0.333  29.335  0.00  0.00     0.271 A 
ATOM      7  O   UNL d   1      60.177   0.674  30.207  0.00  0.00    -0.245 OA
ATOM      8  O   UNL d   1      57.857   0.219  28.605  0.00  0.00    -0.266 OA
ATOM      9  C   UNL d   1      59.244   0.682  31.559  0.00  0.00     0.105 C 
ATOM     10  C   UNL d   1      59.483   0.442  28.730  0.00  0.00     0.107 C 
ENDROOT
BRANCH   3  11
ATOM     11  N   UNL d   1      57.616   0.459  31.443  0.00  0.00    -0.190 NA
ATOM     12  C   UNL d   1      57.092  -0.158  31.584  0.00  0.00     0.280 C 
ATOM     13  O   UNL d   1      57.034  -0.781  31.048  0.00  0.00    -0.265 OA
BRANCH  12  14
ATOM     14  C   UNL d   1      56.625  -0.152  32.261  0.00  0.00     0.058 C 
BRANCH  14  15
ATOM     15  C   UNL d   1      56.189   0.527  32.465  0.00  0.00     0.005 C 
ATOM     16  C   UNL d   1      55.764   0.543  33.176  0.00  0.00     0.000 C 
ENDBRANCH  14  15
BRANCH  14  17
ATOM     17  C   UNL d   1      56.583  -0.797  32.732  0.00  0.00     0.005 C 
ATOM     18  C   UNL d   1      55.903  -1.269  32.756  0.00  0.00     0.000 C 
ENDBRANCH  14  17
ENDBRANCH  12  14
ENDBRANCH   3  11
TORSDOF 4
ENDMDL
MODEL 2
REMARK VINA RESULT:      -3.6      1.521      3.781
REMARK  4 active torsions:
REMARK  status: ('A' for Active; 'I' for Inactive)
REMARK    1  A    between atoms: N_7  and  C_3 
REMARK       I    between atoms: C_8  and  N_7 
REMARK    2  A    between atoms: C_14  and  C_8 
REMARK    3  A    between atoms: C_15  and  C_14 
REMARK    4  A    between atoms: C_16  and  C_14 
ROOT
ATOM      1  C   UNL d   1      56.841  -0.031  33.169  0.00  0.00     0.343 A 
ATOM      2  N   UNL d   1      57.313   0.092  32.515  0.00  0.00    -0.241 N 
ATOM      3  C   UNL d   1      57.214  -0.367  31.842  0.00  0.00     0.159 A 
ATOM      4  N   UNL d   1      56.263  -0.618  33.156  0.00  0.00    -0.224 N 
ATOM      5  C   UNL d   1      56.635  -0.954  31.828  0.00  0.00     0.099 A 
ATOM      6  C   UNL d   1      56.150  -1.088  32.487  0.00  0.00     0.271 A 
ATOM      7  O   UNL d   1      56.943   0.432  33.846  0.00  0.00    -0.245 OA
ATOM      8  O   UNL d   1      55.579  -1.669  32.474  0.00  0.00    -0.266 OA
ATOM      9  C   UNL d   1      57.891   0.679  32.528  0.00  0.00     0.105 C 
ATOM     10  C   UNL d   1      55.786  -0.742  33.819  0.00  0.00     0.107 C 
ENDROOT
BRANCH   3  11
ATOM     11  N   UNL d   1      57.690  -0.243  31.179  0.00  0.00    -0.190 NA
ATOM     12  C   UNL d   1      57.771  -0.835  30.614  0.00  0.00     0.280 C 
ATOM     13  O   UNL d   1      57.376  -1.552  30.708  0.00  0.00    -0.265 OA
BRANCH  12  14
ATOM     14  C   UNL d   1      58.246  -0.710  29.955  0.00  0.00     0.058 C 
BRANCH  14  15
ATOM     15  C   UNL d   1      58.870  -1.233  29.781  0.00  0.00     0.005 C 
ATOM     16  C   UNL d   1      58.763  -1.822  29.208  0.00  0.00     0.000 C 
ENDBRANCH  14  15
BRANCH  14  17
ATOM     17  C   UNL d   1      58.117  -0.086  29.472  0.00  0.00     0.005 C 
ATOM     18  C   UNL d   1      58.725   0.234  29.009  0.00  0.00     0.000 C 
ENDBRANCH  14  17
ENDBRANCH  12  14
ENDBRANCH   3  11
TORSDOF 4
ENDMDL
MODEL 3
REMARK VINA RESULT:      -3.6      1.593      3.783
REMARK  4 active torsions:
REMARK  status: ('A' for Active; 'I' for Inactive)
REMARK    1  A    between atoms: N_7  and  C_3 
REMARK       I    between atoms: C_8  and  N_7 
REMARK    2  A    between atoms: C_14  and  C_8 
REMARK    3  A    between atoms: C_15  and  C_14 
REMARK    4  A    between atoms: C_16  and  C_14 
ROOT
ATOM      1  C   UNL d   1      57.001   0.552  33.756  0.00  0.00     0.343 A 
ATOM      2  N   UNL d   1      57.449   0.571  33.074  0.00  0.00    -0.241 N 
ATOM      3  C   UNL d   1      57.089   0.481  32.342  0.00  0.00     0.159 A 
ATOM      4  N   UNL d   1      56.186   0.441  33.711  0.00  0.00    -0.224 N 
ATOM      5  C   UNL d   1      56.274   0.370  32.297  0.00  0.00     0.099 A 
ATOM      6  C   UNL d   1      55.809   0.349  32.983  0.00  0.00     0.271 A 
ATOM      7  O   UNL d   1      57.365   0.643  34.493  0.00  0.00    -0.245 OA
ATOM      8  O   UNL d   1      55.003   0.239  32.939  0.00  0.00    -0.266 OA
ATOM      9  C   UNL d   1      58.264   0.682  33.119  0.00  0.00     0.105 C 
ATOM     10  C   UNL d   1      55.734   0.422  34.403  0.00  0.00     0.107 C 
ENDROOT
BRANCH   3  11
ATOM     11  N   UNL d   1      57.541   0.500  31.651  0.00  0.00    -0.190 NA
ATOM     12  C   UNL d   1      57.476  -0.107  31.101  0.00  0.00     0.280 C 
ATOM     13  O   UNL d   1      56.961  -0.735  31.237  0.00  0.00    -0.265 OA
BRANCH  12  14
ATOM     14  C   UNL d   1      57.927  -0.086  30.413  0.00  0.00     0.058 C 
BRANCH  14  15
ATOM     15  C   UNL d   1      58.291  -0.779  30.127  0.00  0.00     0.005 C 
ATOM     16  C   UNL d   1      58.971  -0.720  29.657  0.00  0.00     0.000 C 
ENDBRANCH  14  15
BRANCH  14  17
ATOM     17  C   UNL d   1      58.023   0.597  30.009  0.00  0.00     0.005 C 
ATOM     18  C   UNL d   1      57.777   0.670  29.221  0.00  0.00     0.000 C 
ENDBRANCH  14  17
ENDBRANCH  12  14
ENDBRANCH   3  11
TORSDOF 4
ENDMDL
MODEL 4
REMARK VINA RESULT:      -2.9      2.905      3.899
REMARK  4 active torsions:
REMARK  status: ('A' for Active; 'I' for Inactive)
REMARK    1  A    between atoms: N_7  and  C_3 
REMARK       I    between atoms: C_8  and  N_7 
REMARK    2  A    between atoms: C_14  and  C_8 
REMARK    3  A    between atoms: C_15  and  C_14 
REMARK    4  A    between atoms: C_16  and  C_14 
ROOT
ATOM      1  C   UNL d   1      60.362  -3.163  28.758  0.00  0.00     0.343 A 
ATOM      2  N   UNL d   1      60.236  -2.362  28.857  0.00  0.00    -0.241 N 
ATOM      3  C   UNL d   1      59.474  -2.058  28.831  0.00  0.00     0.159 A 
ATOM      4  N   UNL d   1      59.723  -3.667  28.633  0.00  0.00    -0.224 N 
ATOM      5  C   UNL d   1      58.835  -2.562  28.705  0.00  0.00     0.099 A 
ATOM      6  C   UNL d   1      58.951  -3.377  28.603  0.00  0.00     0.271 A 
ATOM      7  O   UNL d   1      61.129  -3.468  28.785  0.00  0.00    -0.245 OA
ATOM      8  O   UNL d   1      58.319  -3.876  28.479  0.00  0.00    -0.266 OA
ATOM      9  C   UNL d   1      60.875  -1.857  28.983  0.00  0.00     0.105 C 
ATOM     10  C   UNL d   1      59.851  -4.478  28.533  0.00  0.00     0.107 C 
ENDROOT
BRANCH   3  11
ATOM     11  N   UNL d   1      59.346  -1.248  28.930  0.00  0.00    -0.190 NA
ATOM     12  C   UNL d   1      58.696  -0.984  29.357  0.00  0.00     0.280 C 
ATOM     13  O   UNL d   1      58.171  -1.527  29.687  0.00  0.00    -0.265 OA
BRANCH  12  14
ATOM     14  C   UNL d   1      58.570  -0.177  29.455  0.00  0.00     0.058 C 
BRANCH  14  15
ATOM     15  C   UNL d   1      58.454   0.141  30.216  0.00  0.00     0.005 C 
ATOM     16  C   UNL d   1      59.003   0.681  30.522  0.00  0.00     0.000 C 
ENDBRANCH  14  15
BRANCH  14  17
ATOM     17  C   UNL d   1      58.557   0.313  28.824  0.00  0.00     0.005 C 
ATOM     18  C   UNL d   1      57.857   0.682  28.578  0.00  0.00     0.000 C 
ENDBRANCH  14  17
ENDBRANCH  12  14
ENDBRANCH   3  11
TORSDOF 4
ENDMDL
MODEL 5
REMARK VINA RESULT:      -2.5      9.983     10.351
REMARK  4 active torsions:
REMARK  status: ('A' for Active; 'I' for Inactive)
REMARK    1  A    between atoms: N_7  and  C_3 
REMARK       I    between atoms: C_8  and  N_7 
REMARK    2  A    between atoms: C_14  and  C_8 
REMARK    3  A    between atoms: C_15  and  C_14 
REMARK    4  A    between atoms: C_16  and  C_14 
ROOT
ATOM      1  C   UNL d   1      58.413  -9.762  31.853  0.00  0.00     0.343 A 
ATOM      2  N   UNL d   1      58.478  -9.733  32.667  0.00  0.00    -0.241 N 
ATOM      3  C   UNL d   1      59.218  -9.731  33.022  0.00  0.00     0.159 A 
ATOM      4  N   UNL d   1      59.092  -9.789  31.387  0.00  0.00    -0.224 N 
ATOM      5  C   UNL d   1      59.897  -9.759  32.555  0.00  0.00     0.099 A 
ATOM      6  C   UNL d   1      59.843  -9.788  31.728  0.00  0.00     0.271 A 
ATOM      7  O   UNL d   1      57.668  -9.764  31.497  0.00  0.00    -0.245 OA
ATOM      8  O   UNL d   1      60.514  -9.815  31.266  0.00  0.00    -0.266 OA
ATOM      9  C   UNL d   1      57.800  -9.706  33.133  0.00  0.00     0.105 C 
ATOM     10  C   UNL d   1      59.025  -9.818  30.564  0.00  0.00     0.107 C 
ENDROOT
BRANCH   3  11
ATOM     11  N   UNL d   1      59.285  -9.702  33.844  0.00  0.00    -0.190 NA
ATOM     12  C   UNL d   1      59.851  -9.220  34.194  0.00  0.00     0.280 C 
ATOM     13  O   UNL d   1      60.353  -8.765  33.725  0.00  0.00    -0.265 OA
BRANCH  12  14
ATOM     14  C   UNL d   1      59.916  -9.193  35.013  0.00  0.00     0.058 C 
BRANCH  14  15
ATOM     15  C   UNL d   1      60.566  -9.548  35.396  0.00  0.00     0.005 C 
ATOM     16  C   UNL d   1      60.494  -9.788  36.185  0.00  0.00     0.000 C 
ENDBRANCH  14  15
BRANCH  14  17
ATOM     17  C   UNL d   1      59.360  -8.826  35.454  0.00  0.00     0.005 C 
ATOM     18  C   UNL d   1      59.563  -8.379  36.122  0.00  0.00     0.000 C 
ENDBRANCH  14  17
ENDBRANCH  12  14
ENDBRANCH   3  11
TORSDOF 4
ENDMDL
MODEL 6
REMARK VINA RESULT:      -2.3      1.134      1.593
REMARK  4 active torsions:
REMARK  status: ('A' for Active; 'I' for Inactive)
REMARK    1  A    between atoms: N_7  and  C_3 
REMARK       I    between atoms: C_8  and  N_7 
REMARK    2  A    between atoms: C_14  and  C_8 
REMARK    3  A    between atoms: C_15  and  C_14 
REMARK    4  A    between atoms: C_16  and  C_14 
ROOT
ATOM      1  C   UNL d   1      58.600   0.482  31.444  0.00  0.00     0.343 A 
ATOM      2  N   UNL d   1      58.115   0.575  32.094  0.00  0.00    -0.241 N 
ATOM      3  C   UNL d   1      57.300   0.563  32.006  0.00  0.00     0.159 A 
ATOM      4  N   UNL d   1      58.269   0.376  30.696  0.00  0.00    -0.224 N 
ATOM      5  C   UNL d   1      56.969   0.456  31.259  0.00  0.00     0.099 A 
ATOM      6  C   UNL d   1      57.451   0.361  30.591  0.00  0.00     0.271 A 
ATOM      7  O   UNL d   1      59.421   0.495  31.533  0.00  0.00    -0.245 OA
ATOM      8  O   UNL d   1      57.125   0.255  29.852  0.00  0.00    -0.266 OA
ATOM      9  C   UNL d   1      58.446   0.682  32.841  0.00  0.00     0.105 C 
ATOM     10  C   UNL d   1      58.760   0.282  30.038  0.00  0.00     0.107 C 
ENDROOT
BRANCH   3  11
ATOM     11  N   UNL d   1      56.809   0.657  32.664  0.00  0.00    -0.190 NA
ATOM     12  C   UNL d   1      56.195   0.127  32.798  0.00  0.00     0.280 C 
ATOM     13  O   UNL d   1      56.069  -0.499  32.277  0.00  0.00    -0.265 OA
BRANCH  12  14
ATOM     14  C   UNL d   1      55.708   0.222  33.454  0.00  0.00     0.058 C 
BRANCH  14  15
ATOM     15  C   UNL d   1      54.879   0.198  33.368  0.00  0.00     0.005 C 
ATOM     16  C   UNL d   1      54.405   0.680  33.847  0.00  0.00     0.000 C 
ENDBRANCH  14  15
BRANCH  14  17
ATOM     17  C   UNL d   1      56.020   0.338  34.180  0.00  0.00     0.005 C 
ATOM     18  C   UNL d   1      55.865  -0.184  34.804  0.00  0.00     0.000 C 
ENDBRANCH  14  17
ENDBRANCH  12  14
ENDBRANCH   3  11
TORSDOF 4
ENDMDL
MODEL 7
REMARK VINA RESULT:      -1.7      1.731      4.030
REMARK  4 active torsions:
REMARK  status: ('A' for Active; 'I' for Inactive)
REMARK    1  A    between atoms: N_7  and  C_3 
REMARK       I    between atoms: C_8  and  N_7 
REMARK    2  A    between atoms: C_14  and  C_8 
REMARK    3  A    between atoms: C_15  and  C_14 
REMARK    4  A    between atoms: C_16  and  C_14 
ROOT
ATOM      1  C   UNL d   1      55.980   0.117  33.516  0.00  0.00     0.343 A 
ATOM      2  N   UNL d   1      56.130  -0.026  32.727  0.00  0.00    -0.241 N 
ATOM      3  C   UNL d   1      56.889   0.064  32.428  0.00  0.00     0.159 A 
ATOM      4  N   UNL d   1      56.592   0.353  34.016  0.00  0.00    -0.224 N 
ATOM      5  C   UNL d   1      57.501   0.300  32.927  0.00  0.00     0.099 A 
ATOM      6  C   UNL d   1      57.360   0.448  33.731  0.00  0.00     0.271 A 
ATOM      7  O   UNL d   1      55.216   0.025  33.816  0.00  0.00    -0.245 OA
ATOM      8  O   UNL d   1      57.965   0.682  34.225  0.00  0.00    -0.266 OA
ATOM      9  C   UNL d   1      55.519  -0.262  32.227  0.00  0.00     0.105 C 
ATOM     10  C   UNL d   1      56.439   0.497  34.815  0.00  0.00     0.107 C 
ENDROOT
BRANCH   3  11
ATOM     11  N   UNL d   1      57.042  -0.080  31.629  0.00  0.00    -0.190 NA
ATOM     12  C   UNL d   1      57.719   0.228  31.278  0.00  0.00     0.280 C 
ATOM     13  O   UNL d   1      58.245   0.680  31.722  0.00  0.00    -0.265 OA
BRANCH  12  14
ATOM     14  C   UNL d   1      57.869   0.083  30.483  0.00  0.00     0.058 C 
BRANCH  14  15
ATOM     15  C   UNL d   1      57.746   0.681  29.916  0.00  0.00     0.005 C 
ATOM     16  C   UNL d   1      57.865   0.515  29.113  0.00  0.00     0.000 C 
ENDBRANCH  14  15
BRANCH  14  17
ATOM     17  C   UNL d   1      58.135  -0.631  30.242  0.00  0.00     0.005 C 
ATOM     18  C   UNL d   1      58.757  -0.699  29.699  0.00  0.00     0.000 C 
ENDBRANCH  14  17
ENDBRANCH  12  14
ENDBRANCH   3  11
TORSDOF 4
ENDMDL
