MODEL 1
REMARK VINA RESULT:      21.8      0.000      0.000
REMARK  3 active torsions:
REMARK  status: ('A' for Active; 'I' for Inactive)
REMARK    1  A    between atoms: S_10  and  C_6 
REMARK    2  A    between atoms: C_13  and  S_10 
REMARK    3  A    between atoms: C_14  and  C_13 
ROOT
ATOM      1  C   UNL d   1     -51.633  25.563  33.307  0.00  0.00     0.141 A 
ATOM      2  O   UNL d   1     -51.404  24.770  33.307  0.00  0.00    -0.303 OA
ATOM      3  C   UNL d   1     -52.460  25.593  33.306  0.00  0.00     0.110 A 
ATOM      4  C   UNL d   1     -52.740  24.820  33.306  0.00  0.00     0.043 A 
ATOM      5  C   UNL d   1     -52.093  24.307  33.307  0.00  0.00     0.102 A 
ATOM      6  C   UNL d   1     -51.196  26.257  33.307  0.00  0.00     0.137 A 
ATOM      7  N   UNL d   1     -51.583  26.991  33.306  0.00  0.00    -0.215 NA
ATOM      8  N   UNL d   1     -52.839  26.323  33.306  0.00  0.00    -0.222 NA
ATOM      9  C   UNL d   1     -52.401  27.018  33.306  0.00  0.00     0.200 A 
ATOM     10  C   UNL d   1     -53.511  24.515  33.306  0.00  0.00     0.004 A 
ATOM     11  C   UNL d   1     -52.208  23.488  33.307  0.00  0.00     0.025 A 
ATOM     12  C   UNL d   1     -53.627  23.696  33.307  0.00  0.00     0.000 A 
ATOM     13  C   UNL d   1     -52.979  23.188  33.307  0.00  0.00     0.002 A 
ENDROOT
BRANCH   6  14
ATOM     14  S   UNL d   1     -50.365  26.235  33.307  0.00  0.00    -0.065 SA
BRANCH  14  15
ATOM     15  C   UNL d   1     -49.939  26.941  33.350  0.00  0.00     0.037 C 
BRANCH  15  16
ATOM     16  C   UNL d   1     -49.132  26.927  33.516  0.00  0.00     0.007 C 
ATOM     17  C   UNL d   1     -48.868  27.174  34.256  0.00  0.00     0.001 C 
ENDBRANCH  15  16
ENDBRANCH  14  15
ENDBRANCH   6  14
TORSDOF 3
ENDMDL
