MODEL 1
REMARK VINA RESULT:      31.1      0.000      0.000
REMARK  3 active torsions:
REMARK  status: ('A' for Active; 'I' for Inactive)
REMARK    1  A    between atoms: S_10  and  C_2 
REMARK    2  A    between atoms: C_9  and  C_4 
REMARK    3  A    between atoms: C_17  and  C_12 
ROOT
ATOM      1  C   UNL d   1      14.664  12.699  -1.466  0.00  0.00     0.092 A 
ATOM      2  C   UNL d   1      14.779  12.660  -0.665  0.00  0.00     0.119 A 
ATOM      3  N   UNL d   1      14.179  12.356  -0.176  0.00  0.00    -0.201 NA
ATOM      4  C   UNL d   1      13.947  12.434  -1.794  0.00  0.00     0.016 A 
ATOM      5  C   UNL d   1      13.471  12.095  -0.505  0.00  0.00     0.280 A 
ATOM      6  C   UNL d   1      15.260  13.001  -1.954  0.00  0.00     0.103 C 
ATOM      7  N   UNL d   1      15.861  13.306  -2.437  0.00  0.00    -0.191 NA
ATOM      8  C   UNL d   1      13.356  12.134  -1.306  0.00  0.00     0.063 A 
ATOM      9  O   UNL d   1      12.875  11.793  -0.017  0.00  0.00    -0.265 OA
ENDROOT
BRANCH   2  10
ATOM     10  S   UNL d   1      15.491  12.923  -0.337  0.00  0.00    -0.093 SA
ATOM     11  C   UNL d   1      15.566  13.708  -0.069  0.00  0.00     0.076 C 
ENDBRANCH   2  10
BRANCH   4  12
ATOM     12  C   UNL d   1      13.831  12.473  -2.605  0.00  0.00     0.001 A 
ATOM     13  C   UNL d   1      13.914  13.190  -2.978  0.00  0.00     0.000 A 
ATOM     14  C   UNL d   1      13.799  13.240  -3.799  0.00  0.00     0.000 A 
ATOM     15  C   UNL d   1      13.605  12.582  -4.226  0.00  0.00     0.000 A 
ATOM     16  C   UNL d   1      13.523  11.860  -3.842  0.00  0.00     0.000 A 
ATOM     17  C   UNL d   1      13.638  11.804  -3.016  0.00  0.00     0.000 A 
BRANCH  15  18
ATOM     18  C   UNL d   1      13.475  12.626  -5.133  0.00  0.00     0.000 C 
ATOM     19  C   UNL d   1      13.648  11.850  -5.894  0.00  0.00     0.000 C 
ATOM     20  C   UNL d   1      13.073  13.566  -5.745  0.00  0.00     0.000 C 
ENDBRANCH  15  18
ENDBRANCH   4  12
TORSDOF 3
ENDMDL
