MODEL 1
REMARK VINA RESULT:      30.4      0.000      0.000
REMARK  3 active torsions:
REMARK  status: ('A' for Active; 'I' for Inactive)
REMARK       I    between atoms: C_4  and  N_1 
REMARK    1  A    between atoms: C_2  and  S_8 
REMARK    2  A    between atoms: C_10  and  C_4 
REMARK    3  A    between atoms: S_8  and  C_10 
ROOT
ATOM      1  N   UNL d   1     -51.831  25.054  33.308  0.00  0.00    -0.274 N 
ATOM      2  C   UNL d   1     -52.508  24.580  33.309  0.00  0.00     0.067 A 
ATOM      3  C   UNL d   1     -51.811  25.889  33.307  0.00  0.00     0.259 C 
ATOM      4  C   UNL d   1     -51.165  24.554  33.308  0.00  0.00     0.083 A 
ATOM      5  C   UNL d   1     -52.270  23.791  33.309  0.00  0.00     0.018 A 
ATOM      6  O   UNL d   1     -52.520  26.328  33.307  0.00  0.00    -0.267 OA
ATOM      7  C   UNL d   1     -51.446  23.780  33.309  0.00  0.00     0.021 A 
ATOM      8  C   UNL d   1     -53.311  24.767  33.309  0.00  0.00     0.018 A 
ATOM      9  C   UNL d   1     -52.824  23.189  33.310  0.00  0.00     0.002 A 
ATOM     10  C   UNL d   1     -53.873  24.177  33.310  0.00  0.00     0.002 A 
ATOM     11  C   UNL d   1     -53.641  23.378  33.310  0.00  0.00     0.000 A 
ENDROOT
BRANCH   3  12
ATOM     12  C   UNL d   1     -51.079  26.292  33.306  0.00  0.00     0.127 C 
BRANCH  12  13
ATOM     13  S   UNL d   1     -51.061  27.113  33.353  0.00  0.00    -0.069 SA
BRANCH  13  14
ATOM     14  C   UNL d   1     -50.392  27.493  33.665  0.00  0.00     0.140 A 
ATOM     15  N   UNL d   1     -49.834  27.274  34.242  0.00  0.00    -0.230 NA
ATOM     16  C   UNL d   1     -49.292  27.893  34.309  0.00  0.00     0.107 A 
ATOM     17  C   UNL d   1     -49.498  28.488  33.790  0.00  0.00     0.058 A 
ATOM     18  S   UNL d   1     -50.178  28.250  33.387  0.00  0.00    -0.059 SA
ENDBRANCH  13  14
ENDBRANCH  12  13
ENDBRANCH   3  12
TORSDOF 3
ENDMDL
MODEL 2
REMARK VINA RESULT:      30.5      1.945      4.132
REMARK  3 active torsions:
REMARK  status: ('A' for Active; 'I' for Inactive)
REMARK       I    between atoms: C_4  and  N_1 
REMARK    1  A    between atoms: C_2  and  S_8 
REMARK    2  A    between atoms: C_10  and  C_4 
REMARK    3  A    between atoms: S_8  and  C_10 
ROOT
ATOM      1  N   UNL d   1     -51.355  25.154  33.324  0.00  0.00    -0.274 N 
ATOM      2  C   UNL d   1     -50.954  25.876  33.335  0.00  0.00     0.067 A 
ATOM      3  C   UNL d   1     -51.007  24.395  33.326  0.00  0.00     0.259 C 
ATOM      4  C   UNL d   1     -52.172  25.311  33.310  0.00  0.00     0.083 A 
ATOM      5  C   UNL d   1     -51.514  26.482  33.328  0.00  0.00     0.018 A 
ATOM      6  O   UNL d   1     -50.176  24.311  33.341  0.00  0.00    -0.267 OA
ATOM      7  C   UNL d   1     -52.260  26.130  33.313  0.00  0.00     0.021 A 
ATOM      8  C   UNL d   1     -50.150  26.060  33.351  0.00  0.00     0.018 A 
ATOM      9  C   UNL d   1     -51.280  27.266  33.337  0.00  0.00     0.002 A 
ATOM     10  C   UNL d   1     -49.904  26.837  33.359  0.00  0.00     0.002 A 
ATOM     11  C   UNL d   1     -50.463  27.453  33.352  0.00  0.00     0.000 A 
ENDROOT
BRANCH   3  12
ATOM     12  C   UNL d   1     -51.487  23.712  33.314  0.00  0.00     0.127 C 
BRANCH  12  13
ATOM     13  S   UNL d   1     -51.834  23.438  34.008  0.00  0.00    -0.069 SA
BRANCH  13  14
ATOM     14  C   UNL d   1     -52.659  23.358  34.052  0.00  0.00     0.140 A 
ATOM     15  N   UNL d   1     -53.194  23.354  34.689  0.00  0.00    -0.230 NA
ATOM     16  C   UNL d   1     -53.951  23.252  34.375  0.00  0.00     0.107 A 
ATOM     17  C   UNL d   1     -53.900  23.194  33.563  0.00  0.00     0.058 A 
ATOM     18  S   UNL d   1     -53.103  23.258  33.353  0.00  0.00    -0.059 SA
ENDBRANCH  13  14
ENDBRANCH  12  13
ENDBRANCH   3  12
TORSDOF 3
ENDMDL
