MODEL 1
REMARK VINA RESULT:      36.1      0.000      0.000
REMARK  3 active torsions:
REMARK  status: ('A' for Active; 'I' for Inactive)
REMARK    1  A    between atoms: C_4  and  N_1 
REMARK    2  A    between atoms: C_6  and  C_4 
REMARK       I    between atoms: N_8  and  C_6 
REMARK    3  A    between atoms: C_10  and  N_8 
ROOT
ATOM      1  C   UNL d   1     -55.713 -99.852 -44.474  0.00  0.00     0.165 C 
ENDROOT
BRANCH   1   2
ATOM      2  N   UNL d   1     -55.476-100.647 -44.463  0.00  0.00    -0.204 N 
ATOM      3  N   UNL d   1     -55.441-101.152 -45.123  0.00  0.00    -0.059 NA
ATOM      4  N   UNL d   1     -55.178-101.891 -44.865  0.00  0.00    -0.129 NA
ATOM      5  C   UNL d   1     -55.048-101.850 -44.049  0.00  0.00     0.122 A 
ATOM      6  C   UNL d   1     -55.233-101.077 -43.800  0.00  0.00     0.104 A 
ATOM      7  C   UNL d   1     -54.788-102.407 -43.503  0.00  0.00     0.022 A 
ATOM      8  C   UNL d   1     -55.156-100.870 -43.007  0.00  0.00     0.021 A 
ATOM      9  C   UNL d   1     -54.896-101.428 -42.460  0.00  0.00     0.002 A 
ATOM     10  C   UNL d   1     -54.713-102.193 -42.707  0.00  0.00     0.002 A 
ENDBRANCH   1   2
BRANCH   1  11
ATOM     11  C   UNL d   1     -55.556 -99.245 -45.009  0.00  0.00     0.299 C 
ATOM     12  N   UNL d   1     -56.217 -98.757 -44.975  0.00  0.00    -0.207 NA
ATOM     13  O   UNL d   1     -54.847 -99.239 -45.430  0.00  0.00    -0.263 OA
BRANCH  12  14
ATOM     14  C   UNL d   1     -56.924 -98.767 -44.552  0.00  0.00     0.085 A 
ATOM     15  C   UNL d   1     -57.645 -98.786 -44.956  0.00  0.00     0.019 A 
ATOM     16  C   UNL d   1     -58.354 -98.795 -44.533  0.00  0.00     0.002 A 
ATOM     17  C   UNL d   1     -59.072 -98.814 -44.933  0.00  0.00     0.000 C 
ATOM     18  C   UNL d   1     -58.339 -98.785 -43.706  0.00  0.00     0.000 A 
ATOM     19  C   UNL d   1     -57.613 -98.766 -43.302  0.00  0.00     0.002 A 
ATOM     20  C   UNL d   1     -56.909 -98.756 -43.723  0.00  0.00     0.019 A 
ENDBRANCH  12  14
ENDBRANCH   1  11
TORSDOF 3
ENDMDL
