MODEL 1
REMARK VINA RESULT:      26.2      0.000      0.000
REMARK  3 active torsions:
REMARK  status: ('A' for Active; 'I' for Inactive)
REMARK    1  A    between atoms: C_4  and  C_1 
REMARK    2  A    between atoms: C_7  and  C_4 
REMARK    3  A    between atoms: C_10  and  C_7 
ROOT
ATOM      1  C   UNL d   1      58.083  49.684  50.647  0.00  0.00     0.062 A 
ATOM      2  C   UNL d   1      57.734  49.683  51.395  0.00  0.00     0.279 A 
ATOM      3  N   UNL d   1      56.918  49.661  51.294  0.00  0.00    -0.208 NA
ATOM      4  C   UNL d   1      57.482  49.662  50.088  0.00  0.00     0.022 A 
ATOM      5  C   UNL d   1      56.763  49.648  50.483  0.00  0.00     0.085 A 
ATOM      6  O   UNL d   1      58.129  49.702  52.118  0.00  0.00    -0.265 OA
ATOM      7  C   UNL d   1      57.505  49.653  49.262  0.00  0.00     0.002 A 
ATOM      8  C   UNL d   1      56.056  49.625  50.049  0.00  0.00     0.019 A 
ATOM      9  C   UNL d   1      56.799  49.630  48.829  0.00  0.00     0.000 A 
ATOM     10  C   UNL d   1      56.078  49.616  49.230  0.00  0.00     0.002 A 
ENDROOT
BRANCH   1  11
ATOM     11  C   UNL d   1      58.891  49.702  50.492  0.00  0.00     0.047 C 
BRANCH  11  12
ATOM     12  C   UNL d   1      59.285  49.459  51.178  0.00  0.00     0.196 C 
ATOM     13  O   UNL d   1      58.856  49.197  51.827  0.00  0.00    -0.287 OA
BRANCH  12  14
ATOM     14  C   UNL d   1      60.109  49.483  51.205  0.00  0.00     0.039 A 
ATOM     15  C   UNL d   1      60.496  49.630  51.919  0.00  0.00     0.003 A 
ATOM     16  C   UNL d   1      61.315  49.655  51.951  0.00  0.00     0.000 A 
ATOM     17  C   UNL d   1      61.761  49.532  51.264  0.00  0.00     0.000 A 
ATOM     18  C   UNL d   1      61.374  49.385  50.550  0.00  0.00     0.000 A 
ATOM     19  C   UNL d   1      60.552  49.360  50.516  0.00  0.00     0.003 A 
ENDBRANCH  12  14
ENDBRANCH  11  12
ENDBRANCH   1  11
TORSDOF 3
ENDMDL
