MODEL 1
REMARK VINA RESULT:     -12.0      0.000      0.000
REMARK  1 active torsions:
REMARK  status: ('A' for Active; 'I' for Inactive)
REMARK    1  A    between atoms: C_2  and  N_1 
ROOT
ATOM      1  C   UNL d   1      53.493  32.777  53.740  0.00  0.00     0.169 A 
ATOM      2  C   UNL d   1      52.987  33.404  53.754  0.00  0.00     0.060 A 
ATOM      3  C   UNL d   1      53.192  34.096  54.198  0.00  0.00     0.115 A 
ATOM      4  S   UNL d   1      52.588  34.639  54.116  0.00  0.00    -0.068 SA
ATOM      5  C   UNL d   1      52.255  33.559  53.417  0.00  0.00     0.011 A 
ATOM      6  N   UNL d   1      54.194  32.784  54.137  0.00  0.00    -0.208 NA
ATOM      7  N   UNL d   1      53.889  34.120  54.600  0.00  0.00    -0.220 NA
ATOM      8  C   UNL d   1      52.012  34.322  53.643  0.00  0.00     0.031 A 
ATOM      9  C   UNL d   1      54.429  33.470  54.595  0.00  0.00     0.165 A 
ATOM     10  C   UNL d   1      51.764  33.104  52.925  0.00  0.00     0.001 A 
ATOM     11  C   UNL d   1      51.295  34.621  53.382  0.00  0.00     0.006 A 
ATOM     12  C   UNL d   1      55.146  33.500  55.011  0.00  0.00     0.042 C 
ATOM     13  C   UNL d   1      51.046  33.422  52.674  0.00  0.00     0.000 A 
ATOM     14  C   UNL d   1      50.798  34.197  52.902  0.00  0.00     0.001 A 
ENDROOT
BRANCH   1  15
ATOM     15  N   UNL d   1      53.302  32.096  53.310  0.00  0.00    -0.193 N 
ATOM     16  N   UNL d   1      53.132  32.083  52.511  0.00  0.00    -0.058 NA
ATOM     17  N   UNL d   1      52.968  31.293  52.286  0.00  0.00    -0.129 NA
ATOM     18  C   UNL d   1      53.040  30.819  52.960  0.00  0.00     0.122 A 
ATOM     19  C   UNL d   1      53.241  31.294  53.587  0.00  0.00     0.105 A 
ATOM     20  C   UNL d   1      52.944  30.030  53.060  0.00  0.00     0.022 A 
ATOM     21  C   UNL d   1      53.352  31.008  54.320  0.00  0.00     0.021 A 
ATOM     22  C   UNL d   1      53.259  30.197  54.446  0.00  0.00     0.002 A 
ATOM     23  C   UNL d   1      53.052  29.708  53.802  0.00  0.00     0.002 A 
ENDBRANCH   1  15
TORSDOF 1
ENDMDL
MODEL 2
REMARK VINA RESULT:     -11.8      1.202      3.309
REMARK  1 active torsions:
REMARK  status: ('A' for Active; 'I' for Inactive)
REMARK    1  A    between atoms: C_2  and  N_1 
ROOT
ATOM      1  C   UNL d   1      52.809  32.487  53.118  0.00  0.00     0.169 A 
ATOM      2  C   UNL d   1      53.342  32.515  53.722  0.00  0.00     0.060 A 
ATOM      3  C   UNL d   1      53.688  31.796  54.006  0.00  0.00     0.115 A 
ATOM      4  S   UNL d   1      54.202  31.984  54.612  0.00  0.00    -0.068 SA
ATOM      5  C   UNL d   1      53.666  33.118  54.175  0.00  0.00     0.011 A 
ATOM      6  N   UNL d   1      52.591  31.793  52.772  0.00  0.00    -0.208 NA
ATOM      7  N   UNL d   1      53.482  31.094  53.671  0.00  0.00    -0.220 NA
ATOM      8  C   UNL d   1      54.196  32.786  54.722  0.00  0.00     0.031 A 
ATOM      9  C   UNL d   1      52.924  31.049  53.038  0.00  0.00     0.165 A 
ATOM     10  C   UNL d   1      53.551  33.941  54.165  0.00  0.00     0.001 A 
ATOM     11  C   UNL d   1      54.601  33.268  55.248  0.00  0.00     0.006 A 
ATOM     12  C   UNL d   1      52.715  30.323  52.696  0.00  0.00     0.042 C 
ATOM     13  C   UNL d   1      53.968  34.407  54.702  0.00  0.00     0.000 A 
ATOM     14  C   UNL d   1      54.507  34.072  55.259  0.00  0.00     0.001 A 
ENDROOT
BRANCH   1  15
ATOM     15  N   UNL d   1      52.464  33.184  52.833  0.00  0.00    -0.193 N 
ATOM     16  N   UNL d   1      52.862  33.762  52.415  0.00  0.00    -0.058 NA
ATOM     17  N   UNL d   1      52.322  34.374  52.227  0.00  0.00    -0.129 NA
ATOM     18  C   UNL d   1      51.585  34.163  52.537  0.00  0.00     0.122 A 
ATOM     19  C   UNL d   1      51.658  33.444  52.907  0.00  0.00     0.105 A 
ATOM     20  C   UNL d   1      50.880  34.544  52.518  0.00  0.00     0.022 A 
ATOM     21  C   UNL d   1      51.046  33.085  53.264  0.00  0.00     0.021 A 
ATOM     22  C   UNL d   1      50.310  33.459  53.257  0.00  0.00     0.002 A 
ATOM     23  C   UNL d   1      50.233  34.198  52.878  0.00  0.00     0.002 A 
ENDBRANCH   1  15
TORSDOF 1
ENDMDL
MODEL 3
REMARK VINA RESULT:     -11.4      0.938      2.327
REMARK  1 active torsions:
REMARK  status: ('A' for Active; 'I' for Inactive)
REMARK    1  A    between atoms: C_2  and  N_1 
ROOT
ATOM      1  C   UNL d   1      52.869  32.920  53.153  0.00  0.00     0.169 A 
ATOM      2  C   UNL d   1      53.069  33.472  53.704  0.00  0.00     0.060 A 
ATOM      3  C   UNL d   1      52.660  34.215  53.719  0.00  0.00     0.115 A 
ATOM      4  S   UNL d   1      52.970  34.663  54.326  0.00  0.00    -0.068 SA
ATOM      5  C   UNL d   1      53.618  33.503  54.314  0.00  0.00     0.011 A 
ATOM      6  N   UNL d   1      52.289  33.050  52.609  0.00  0.00    -0.208 NA
ATOM      7  N   UNL d   1      52.078  34.360  53.183  0.00  0.00    -0.220 NA
ATOM      8  C   UNL d   1      53.554  34.239  54.695  0.00  0.00     0.031 A 
ATOM      9  C   UNL d   1      51.858  33.791  52.598  0.00  0.00     0.165 A 
ATOM     10  C   UNL d   1      54.180  32.952  54.580  0.00  0.00     0.001 A 
ATOM     11  C   UNL d   1      54.042  34.419  55.329  0.00  0.00     0.006 A 
ATOM     12  C   UNL d   1      51.257  33.946  52.048  0.00  0.00     0.042 C 
ATOM     13  C   UNL d   1      54.661  33.152  55.220  0.00  0.00     0.000 A 
ATOM     14  C   UNL d   1      54.597  33.899  55.608  0.00  0.00     0.001 A 
ENDROOT
BRANCH   1  15
ATOM     15  N   UNL d   1      53.261  32.191  53.129  0.00  0.00    -0.193 N 
ATOM     16  N   UNL d   1      54.062  32.098  52.999  0.00  0.00    -0.058 NA
ATOM     17  N   UNL d   1      54.242  31.281  53.017  0.00  0.00    -0.129 NA
ATOM     18  C   UNL d   1      53.538  30.871  53.161  0.00  0.00     0.122 A 
ATOM     19  C   UNL d   1      52.936  31.411  53.231  0.00  0.00     0.105 A 
ATOM     20  C   UNL d   1      53.393  30.086  53.233  0.00  0.00     0.022 A 
ATOM     21  C   UNL d   1      52.185  31.196  53.372  0.00  0.00     0.021 A 
ATOM     22  C   UNL d   1      52.012  30.393  53.449  0.00  0.00     0.002 A 
ATOM     23  C   UNL d   1      52.629  29.836  53.378  0.00  0.00     0.002 A 
ENDBRANCH   1  15
TORSDOF 1
ENDMDL
MODEL 4
REMARK VINA RESULT:     -11.4      1.016      2.718
REMARK  1 active torsions:
REMARK  status: ('A' for Active; 'I' for Inactive)
REMARK    1  A    between atoms: C_2  and  N_1 
ROOT
ATOM      1  C   UNL d   1      53.541  32.151  53.498  0.00  0.00     0.169 A 
ATOM      2  C   UNL d   1      52.836  32.417  53.214  0.00  0.00     0.060 A 
ATOM      3  C   UNL d   1      52.230  31.859  53.012  0.00  0.00     0.115 A 
ATOM      4  S   UNL d   1      51.582  32.274  52.742  0.00  0.00    -0.068 SA
ATOM      5  C   UNL d   1      52.523  33.159  53.055  0.00  0.00     0.011 A 
ATOM      6  N   UNL d   1      53.694  31.366  53.598  0.00  0.00    -0.208 NA
ATOM      7  N   UNL d   1      52.366  31.071  53.106  0.00  0.00    -0.220 NA
ATOM      8  C   UNL d   1      51.749  33.066  52.764  0.00  0.00     0.031 A 
ATOM      9  C   UNL d   1      53.101  30.778  53.403  0.00  0.00     0.165 A 
ATOM     10  C   UNL d   1      52.840  33.922  53.136  0.00  0.00     0.001 A 
ATOM     11  C   UNL d   1      51.304  33.724  52.559  0.00  0.00     0.006 A 
ATOM     12  C   UNL d   1      53.237  29.966  53.498  0.00  0.00     0.042 C 
ATOM     13  C   UNL d   1      52.377  34.570  52.924  0.00  0.00     0.000 A 
ATOM     14  C   UNL d   1      51.591  34.478  52.628  0.00  0.00     0.001 A 
ENDROOT
BRANCH   1  15
ATOM     15  N   UNL d   1      54.139  32.688  53.698  0.00  0.00    -0.193 N 
ATOM     16  N   UNL d   1      54.615  33.076  53.160  0.00  0.00    -0.058 NA
ATOM     17  N   UNL d   1      55.147  33.567  53.580  0.00  0.00    -0.129 NA
ATOM     18  C   UNL d   1      54.992  33.475  54.387  0.00  0.00     0.122 A 
ATOM     19  C   UNL d   1      54.383  32.944  54.472  0.00  0.00     0.105 A 
ATOM     20  C   UNL d   1      55.333  33.810  55.030  0.00  0.00     0.022 A 
ATOM     21  C   UNL d   1      54.098  32.733  55.182  0.00  0.00     0.021 A 
ATOM     22  C   UNL d   1      54.435  33.066  55.859  0.00  0.00     0.002 A 
ATOM     23  C   UNL d   1      55.061  33.612  55.773  0.00  0.00     0.002 A 
ENDBRANCH   1  15
TORSDOF 1
ENDMDL
MODEL 5
REMARK VINA RESULT:     -11.2      1.188      3.351
REMARK  1 active torsions:
REMARK  status: ('A' for Active; 'I' for Inactive)
REMARK    1  A    between atoms: C_2  and  N_1 
ROOT
ATOM      1  C   UNL d   1      53.125  32.985  53.307  0.00  0.00     0.169 A 
ATOM      2  C   UNL d   1      52.801  32.254  53.211  0.00  0.00     0.060 A 
ATOM      3  C   UNL d   1      52.001  32.184  52.936  0.00  0.00     0.115 A 
ATOM      4  S   UNL d   1      51.818  31.390  52.889  0.00  0.00    -0.068 SA
ATOM      5  C   UNL d   1      53.071  31.486  53.319  0.00  0.00     0.011 A 
ATOM      6  N   UNL d   1      52.712  33.659  53.152  0.00  0.00    -0.208 NA
ATOM      7  N   UNL d   1      51.576  32.847  52.776  0.00  0.00    -0.220 NA
ATOM      8  C   UNL d   1      52.462  30.957  53.120  0.00  0.00     0.031 A 
ATOM      9  C   UNL d   1      51.902  33.621  52.873  0.00  0.00     0.165 A 
ATOM     10  C   UNL d   1      53.803  31.189  53.577  0.00  0.00     0.001 A 
ATOM     11  C   UNL d   1      52.583  30.148  53.178  0.00  0.00     0.006 A 
ATOM     12  C   UNL d   1      51.459  34.301  52.707  0.00  0.00     0.042 C 
ATOM     13  C   UNL d   1      53.904  30.372  53.629  0.00  0.00     0.000 A 
ATOM     14  C   UNL d   1      53.286  29.833  53.427  0.00  0.00     0.001 A 
ENDROOT
BRANCH   1  15
ATOM     15  N   UNL d   1      53.905  33.064  53.575  0.00  0.00    -0.193 N 
ATOM     16  N   UNL d   1      54.566  32.839  53.152  0.00  0.00    -0.058 NA
ATOM     17  N   UNL d   1      55.246  33.009  53.610  0.00  0.00    -0.129 NA
ATOM     18  C   UNL d   1      54.992  33.344  54.323  0.00  0.00     0.122 A 
ATOM     19  C   UNL d   1      54.181  33.383  54.313  0.00  0.00     0.105 A 
ATOM     20  C   UNL d   1      55.406  33.608  54.956  0.00  0.00     0.022 A 
ATOM     21  C   UNL d   1      53.762  33.678  54.919  0.00  0.00     0.021 A 
ATOM     22  C   UNL d   1      54.168  33.956  55.583  0.00  0.00     0.002 A 
ATOM     23  C   UNL d   1      55.001  33.917  55.594  0.00  0.00     0.002 A 
ENDBRANCH   1  15
TORSDOF 1
ENDMDL
MODEL 6
REMARK VINA RESULT:     -11.0      1.383      3.223
REMARK  1 active torsions:
REMARK  status: ('A' for Active; 'I' for Inactive)
REMARK    1  A    between atoms: C_2  and  N_1 
ROOT
ATOM      1  C   UNL d   1      52.609  34.345  53.491  0.00  0.00     0.169 A 
ATOM      2  C   UNL d   1      53.017  33.722  53.796  0.00  0.00     0.060 A 
ATOM      3  C   UNL d   1      53.518  33.840  54.470  0.00  0.00     0.115 A 
ATOM      4  S   UNL d   1      53.860  33.124  54.661  0.00  0.00    -0.068 SA
ATOM      5  C   UNL d   1      53.079  32.926  53.605  0.00  0.00     0.011 A 
ATOM      6  N   UNL d   1      52.659  35.085  53.806  0.00  0.00    -0.208 NA
ATOM      7  N   UNL d   1      53.580  34.573  54.797  0.00  0.00    -0.220 NA
ATOM      8  C   UNL d   1      53.600  32.561  54.140  0.00  0.00     0.031 A 
ATOM      9  C   UNL d   1      53.158  35.236  54.488  0.00  0.00     0.165 A 
ATOM     10  C   UNL d   1      52.726  32.473  53.004  0.00  0.00     0.001 A 
ATOM     11  C   UNL d   1      53.764  31.760  54.075  0.00  0.00     0.006 A 
ATOM     12  C   UNL d   1      53.225  35.989  54.829  0.00  0.00     0.042 C 
ATOM     13  C   UNL d   1      52.904  31.669  52.957  0.00  0.00     0.000 A 
ATOM     14  C   UNL d   1      53.433  31.296  53.500  0.00  0.00     0.001 A 
ENDROOT
BRANCH   1  15
ATOM     15  N   UNL d   1      52.117  34.241  52.833  0.00  0.00    -0.193 N 
ATOM     16  N   UNL d   1      52.375  34.029  52.088  0.00  0.00    -0.058 NA
ATOM     17  N   UNL d   1      51.712  33.981  51.579  0.00  0.00    -0.129 NA
ATOM     18  C   UNL d   1      51.039  34.166  52.024  0.00  0.00     0.122 A 
ATOM     19  C   UNL d   1      51.271  34.326  52.786  0.00  0.00     0.105 A 
ATOM     20  C   UNL d   1      50.267  34.203  51.816  0.00  0.00     0.022 A 
ATOM     21  C   UNL d   1      50.755  34.524  53.355  0.00  0.00     0.021 A 
ATOM     22  C   UNL d   1      49.953  34.568  53.164  0.00  0.00     0.002 A 
ATOM     23  C   UNL d   1      49.713  34.405  52.382  0.00  0.00     0.002 A 
ENDBRANCH   1  15
TORSDOF 1
ENDMDL
