MODEL 1
REMARK VINA RESULT:      -2.5      0.000      0.000
REMARK  4 active torsions:
REMARK  status: ('A' for Active; 'I' for Inactive)
REMARK    1  A    between atoms: C_6  and  C_1 
REMARK    2  A    between atoms: C_13  and  C_2 
REMARK    3  A    between atoms: P_4  and  C_3 
REMARK    4  A    between atoms: C_17  and  C_13 
ROOT
ATOM      1  C   UNL d   1     -42.497-122.989 -50.061  0.00  0.00     0.112 A 
ATOM      2  C   UNL d   1     -42.195-123.146 -49.316  0.00  0.00     0.052 A 
ATOM      3  N   UNL d   1     -43.293-123.218 -50.068  0.00  0.00    -0.217 NA
ATOM      4  C   UNL d   1     -43.479-123.518 -49.320  0.00  0.00     0.215 A 
ATOM      5  S   UNL d   1     -42.802-123.472 -48.858  0.00  0.00    -0.045 SA
ATOM      6  N   UNL d   1     -44.225-123.815 -49.074  0.00  0.00    -0.120 N 
ENDROOT
BRANCH   1   7
ATOM      7  C   UNL d   1     -42.053-122.658 -50.677  0.00  0.00     0.119 A 
ATOM      8  O   UNL d   1     -42.040-122.965 -51.441  0.00  0.00    -0.297 OA
ATOM      9  C   UNL d   1     -41.540-122.494 -51.899  0.00  0.00     0.191 A 
ATOM     10  C   UNL d   1     -41.245-121.895 -51.417  0.00  0.00     0.036 A 
ATOM     11  C   UNL d   1     -41.562-121.997 -50.664  0.00  0.00     0.029 A 
BRANCH   9  12
ATOM     12  P   UNL d   1     -41.362-122.597 -52.704  0.00  0.00     0.321 P 
ATOM     13  O   UNL d   1     -41.123-123.377 -52.546  0.00  0.00    -0.635 OA
ATOM     14  O   UNL d   1     -41.602-121.819 -52.857  0.00  0.00    -0.635 OA
ATOM     15  O   UNL d   1     -41.185-122.698 -53.506  0.00  0.00    -0.635 OA
ENDBRANCH   9  12
ENDBRANCH   1   7
BRANCH   2  16
ATOM     16  C   UNL d   1     -41.420-123.002 -49.066  0.00  0.00     0.008 C 
BRANCH  16  17
ATOM     17  C   UNL d   1     -41.234-123.021 -48.263  0.00  0.00     0.001 C 
ATOM     18  C   UNL d   1     -41.158-123.752 -47.868  0.00  0.00     0.000 C 
ATOM     19  C   UNL d   1     -41.124-122.315 -47.850  0.00  0.00     0.000 C 
ENDBRANCH  16  17
ENDBRANCH   2  16
TORSDOF 4
ENDMDL
MODEL 2
REMARK VINA RESULT:      -1.3      2.324      3.659
REMARK  4 active torsions:
REMARK  status: ('A' for Active; 'I' for Inactive)
REMARK    1  A    between atoms: C_6  and  C_1 
REMARK    2  A    between atoms: C_13  and  C_2 
REMARK    3  A    between atoms: P_4  and  C_3 
REMARK    4  A    between atoms: C_17  and  C_13 
ROOT
ATOM      1  C   UNL d   1     -41.501-123.298 -51.418  0.00  0.00     0.112 A 
ATOM      2  C   UNL d   1     -41.331-122.546 -51.694  0.00  0.00     0.052 A 
ATOM      3  N   UNL d   1     -41.486-123.817 -52.065  0.00  0.00    -0.217 NA
ATOM      4  C   UNL d   1     -41.305-123.376 -52.741  0.00  0.00     0.215 A 
ATOM      5  S   UNL d   1     -41.210-122.595 -52.511  0.00  0.00    -0.045 SA
ATOM      6  N   UNL d   1     -41.230-123.673 -53.523  0.00  0.00    -0.120 N 
ENDROOT
BRANCH   1   7
ATOM      7  C   UNL d   1     -41.657-123.473 -50.624  0.00  0.00     0.119 A 
ATOM      8  O   UNL d   1     -42.413-123.457 -50.297  0.00  0.00    -0.297 OA
ATOM      9  C   UNL d   1     -42.352-123.661 -49.499  0.00  0.00     0.191 A 
ATOM     10  C   UNL d   1     -41.557-123.802 -49.334  0.00  0.00     0.036 A 
ATOM     11  C   UNL d   1     -41.130-123.686 -50.028  0.00  0.00     0.029 A 
BRANCH   9  12
ATOM     12  P   UNL d   1     -42.975-123.715 -48.953  0.00  0.00     0.321 P 
ATOM     13  O   UNL d   1     -43.519-123.704 -49.580  0.00  0.00    -0.635 OA
ATOM     14  O   UNL d   1     -42.428-123.726 -48.330  0.00  0.00    -0.635 OA
ATOM     15  O   UNL d   1     -43.594-123.770 -48.406  0.00  0.00    -0.635 OA
ENDBRANCH   9  12
ENDBRANCH   1   7
BRANCH   2  16
ATOM     16  C   UNL d   1     -41.289-121.859 -51.235  0.00  0.00     0.008 C 
BRANCH  16  17
ATOM     17  C   UNL d   1     -41.385-121.120 -51.587  0.00  0.00     0.001 C 
ATOM     18  C   UNL d   1     -41.728-121.060 -52.346  0.00  0.00     0.000 C 
ATOM     19  C   UNL d   1     -41.142-120.440 -51.189  0.00  0.00     0.000 C 
ENDBRANCH  16  17
ENDBRANCH   2  16
TORSDOF 4
ENDMDL
MODEL 3
REMARK VINA RESULT:      -0.3      2.629      4.246
REMARK  4 active torsions:
REMARK  status: ('A' for Active; 'I' for Inactive)
REMARK    1  A    between atoms: C_6  and  C_1 
REMARK    2  A    between atoms: C_13  and  C_2 
REMARK    3  A    between atoms: P_4  and  C_3 
REMARK    4  A    between atoms: C_17  and  C_13 
ROOT
ATOM      1  C   UNL d   1     -41.856-121.941 -52.701  0.00  0.00     0.112 A 
ATOM      2  C   UNL d   1     -41.824-122.394 -53.382  0.00  0.00     0.052 A 
ATOM      3  N   UNL d   1     -41.987-121.153 -52.923  0.00  0.00    -0.217 NA
ATOM      4  C   UNL d   1     -42.035-121.127 -53.749  0.00  0.00     0.215 A 
ATOM      5  S   UNL d   1     -41.935-121.891 -54.029  0.00  0.00    -0.045 SA
ATOM      6  N   UNL d   1     -42.164-120.442 -54.218  0.00  0.00    -0.120 N 
ENDROOT
BRANCH   1   7
ATOM      7  C   UNL d   1     -41.769-122.250 -51.938  0.00  0.00     0.119 A 
ATOM      8  O   UNL d   1     -42.356-122.207 -51.361  0.00  0.00    -0.297 OA
ATOM      9  C   UNL d   1     -42.072-122.571 -50.677  0.00  0.00     0.191 A 
ATOM     10  C   UNL d   1     -41.309-122.839 -50.831  0.00  0.00     0.036 A 
ATOM     11  C   UNL d   1     -41.122-122.641 -51.608  0.00  0.00     0.029 A 
BRANCH   9  12
ATOM     12  P   UNL d   1     -42.477-122.656 -49.957  0.00  0.00     0.321 P 
ATOM     13  O   UNL d   1     -43.117-122.997 -50.363  0.00  0.00    -0.635 OA
ATOM     14  O   UNL d   1     -41.836-122.316 -49.557  0.00  0.00    -0.635 OA
ATOM     15  O   UNL d   1     -42.879-122.740 -49.238  0.00  0.00    -0.635 OA
ENDBRANCH   9  12
ENDBRANCH   1   7
BRANCH   2  16
ATOM     16  C   UNL d   1     -41.703-123.212 -53.415  0.00  0.00     0.008 C 
BRANCH  16  17
ATOM     17  C   UNL d   1     -41.790-123.614 -54.130  0.00  0.00     0.001 C 
ATOM     18  C   UNL d   1     -42.552-123.817 -54.405  0.00  0.00     0.000 C 
ATOM     19  C   UNL d   1     -41.124-123.814 -54.573  0.00  0.00     0.000 C 
ENDBRANCH  16  17
ENDBRANCH   2  16
TORSDOF 4
ENDMDL
