MODEL 1
REMARK VINA RESULT:      28.8      0.000      0.000
REMARK  4 active torsions:
REMARK  status: ('A' for Active; 'I' for Inactive)
REMARK    1  A    between atoms: C_16  and  N_3 
REMARK    2  A    between atoms: S_12  and  C_6 
REMARK    3  A    between atoms: C_10  and  C_14 
REMARK       I    between atoms: N_11  and  C_10 
REMARK    4  A    between atoms: C_14  and  S_12 
ROOT
ATOM      1  C   UNL d   1      46.430 -18.644  42.408  0.00  0.00     0.155 A 
ATOM      2  C   UNL d   1      46.428 -18.304  43.166  0.00  0.00     0.107 A 
ATOM      3  N   UNL d   1      46.394 -17.351  41.822  0.00  0.00    -0.252 N 
ATOM      4  C   UNL d   1      46.414 -18.170  41.748  0.00  0.00     0.285 A 
ATOM      5  N   UNL d   1      46.408 -17.485  43.240  0.00  0.00    -0.220 NA
ATOM      6  C   UNL d   1      46.392 -17.008  42.569  0.00  0.00     0.182 A 
ATOM      7  N   UNL d   1      46.451 -19.461  42.507  0.00  0.00    -0.239 NA
ATOM      8  C   UNL d   1      46.447 -18.910  43.714  0.00  0.00     0.037 A 
ATOM      9  C   UNL d   1      46.461 -19.626  43.312  0.00  0.00     0.083 A 
ATOM     10  O   UNL d   1      46.416 -18.517  40.995  0.00  0.00    -0.265 OA
ATOM     11  C   UNL d   1      46.453 -18.898  44.535  0.00  0.00     0.003 A 
ATOM     12  C   UNL d   1      46.481 -20.330  43.732  0.00  0.00     0.019 A 
ATOM     13  C   UNL d   1      46.473 -19.602  44.954  0.00  0.00     0.000 A 
ATOM     14  C   UNL d   1      46.487 -20.319  44.543  0.00  0.00     0.002 A 
ENDROOT
BRANCH   6  15
ATOM     15  S   UNL d   1      46.374 -15.558  44.881  0.00  0.00    -0.044 SA
BRANCH  15  16
ATOM     16  C   UNL d   1      46.015 -14.701  44.894  0.00  0.00     0.099 C 
BRANCH  16  17
ATOM     17  C   UNL d   1      45.259 -14.511  44.385  0.00  0.00     0.272 C 
ATOM     18  N   UNL d   1      45.191 -13.709  43.935  0.00  0.00    -0.267 N 
ATOM     19  C   UNL d   1      44.455 -13.523  43.439  0.00  0.00     0.110 A 
ATOM     20  C   UNL d   1      45.879 -13.104  43.998  0.00  0.00     0.110 A 
ATOM     21  C   UNL d   1      44.382 -12.715  42.984  0.00  0.00     0.142 A 
ATOM     22  O   UNL d   1      45.063 -12.103  43.039  0.00  0.00    -0.300 OA
ATOM     23  C   UNL d   1      45.820 -12.293  43.548  0.00  0.00     0.142 A 
ATOM     24  O   UNL d   1      44.570 -15.122  44.325  0.00  0.00    -0.266 OA
ENDBRANCH  16  17
ENDBRANCH  15  16
ENDBRANCH   6  15
BRANCH   3  25
ATOM     25  C   UNL d   1      46.375 -16.813  41.064  0.00  0.00     0.085 C 
ATOM     26  C   UNL d   1      46.517 -17.186  40.231  0.00  0.00     0.021 C 
ENDBRANCH   3  25
TORSDOF 4
ENDMDL
