MODEL 1
REMARK VINA RESULT:      -8.4      0.000      0.000
REMARK  2 active torsions:
REMARK  status: ('A' for Active; 'I' for Inactive)
REMARK       I    between atoms: C_6  and  N_8 
REMARK    1  A    between atoms: C_7  and  C_6 
REMARK    2  A    between atoms: N_8  and  C_11 
ROOT
ATOM      1  N   UNL d   1     -49.793  13.800  21.558  0.00  0.00    -0.246 NA
ATOM      2  C   UNL d   1     -49.553  14.511  22.667  0.00  0.00     0.019 A 
ATOM      3  C   UNL d   1     -50.128  14.320  22.102  0.00  0.00     0.081 A 
ATOM      4  C   UNL d   1     -48.871  14.107  22.465  0.00  0.00     0.021 A 
ATOM      5  C   UNL d   1     -49.029  13.672  21.782  0.00  0.00     0.082 A 
ATOM      6  C   UNL d   1     -48.133  14.081  22.816  0.00  0.00     0.021 A 
ATOM      7  C   UNL d   1     -47.533  13.614  22.485  0.00  0.00     0.085 A 
ATOM      8  C   UNL d   1     -48.428  13.202  21.445  0.00  0.00     0.021 A 
ATOM      9  C   UNL d   1     -47.687  13.179  21.802  0.00  0.00     0.021 A 
ATOM     10  C   UNL d   1     -49.735  15.033  23.294  0.00  0.00     0.002 A 
ATOM     11  C   UNL d   1     -50.886  14.651  22.163  0.00  0.00     0.019 A 
ATOM     12  C   UNL d   1     -50.489  15.361  23.352  0.00  0.00     0.000 A 
ATOM     13  C   UNL d   1     -51.064  15.170  22.786  0.00  0.00     0.002 A 
ENDROOT
BRANCH   7  14
ATOM     14  N   UNL d   1     -46.770  13.589  22.850  0.00  0.00    -0.206 NA
ATOM     15  C   UNL d   1     -46.556  12.943  23.322  0.00  0.00     0.302 C 
ATOM     16  O   UNL d   1     -45.818  12.934  23.666  0.00  0.00    -0.263 OA
BRANCH  15  17
ATOM     17  C   UNL d   1     -47.098  12.312  23.440  0.00  0.00     0.158 A 
ATOM     18  O   UNL d   1     -47.884  12.287  23.695  0.00  0.00    -0.300 OA
ATOM     19  C   UNL d   1     -48.120  11.504  23.698  0.00  0.00     0.123 A 
ATOM     20  C   UNL d   1     -47.498  11.048  23.451  0.00  0.00     0.029 A 
ATOM     21  C   UNL d   1     -46.870  11.552  23.293  0.00  0.00     0.032 A 
ENDBRANCH  15  17
ENDBRANCH   7  14
TORSDOF 2
ENDMDL
MODEL 2
REMARK VINA RESULT:      -8.3      1.570      3.724
REMARK  2 active torsions:
REMARK  status: ('A' for Active; 'I' for Inactive)
REMARK       I    between atoms: C_6  and  N_8 
REMARK    1  A    between atoms: C_7  and  C_6 
REMARK    2  A    between atoms: N_8  and  C_11 
ROOT
ATOM      1  N   UNL d   1     -46.549  13.655  22.565  0.00  0.00    -0.246 NA
ATOM      2  C   UNL d   1     -47.175  12.714  23.283  0.00  0.00     0.019 A 
ATOM      3  C   UNL d   1     -46.464  12.908  22.906  0.00  0.00     0.081 A 
ATOM      4  C   UNL d   1     -47.689  13.341  23.172  0.00  0.00     0.021 A 
ATOM      5  C   UNL d   1     -47.295  13.914  22.729  0.00  0.00     0.082 A 
ATOM      6  C   UNL d   1     -48.460  13.459  23.417  0.00  0.00     0.021 A 
ATOM      7  C   UNL d   1     -48.854  14.162  23.221  0.00  0.00     0.085 A 
ATOM      8  C   UNL d   1     -47.687  14.623  22.529  0.00  0.00     0.021 A 
ATOM      9  C   UNL d   1     -48.462  14.737  22.778  0.00  0.00     0.021 A 
ATOM     10  C   UNL d   1     -47.255  11.983  23.681  0.00  0.00     0.002 A 
ATOM     11  C   UNL d   1     -45.832  12.373  22.924  0.00  0.00     0.019 A 
ATOM     12  C   UNL d   1     -46.624  11.452  23.698  0.00  0.00     0.000 A 
ATOM     13  C   UNL d   1     -45.913  11.648  23.320  0.00  0.00     0.002 A 
ENDROOT
BRANCH   7  14
ATOM     14  N   UNL d   1     -49.652  14.282  23.475  0.00  0.00    -0.206 NA
ATOM     15  C   UNL d   1     -50.283  14.048  22.991  0.00  0.00     0.302 C 
ATOM     16  O   UNL d   1     -51.044  14.171  23.251  0.00  0.00    -0.263 OA
BRANCH  15  17
ATOM     17  C   UNL d   1     -50.130  13.689  22.247  0.00  0.00     0.158 A 
ATOM     18  O   UNL d   1     -49.719  13.943  21.575  0.00  0.00    -0.300 OA
ATOM     19  C   UNL d   1     -49.760  13.346  21.018  0.00  0.00     0.123 A 
ATOM     20  C   UNL d   1     -50.185  12.732  21.333  0.00  0.00     0.029 A 
ATOM     21  C   UNL d   1     -50.410  12.949  22.090  0.00  0.00     0.032 A 
ENDBRANCH  15  17
ENDBRANCH   7  14
TORSDOF 2
ENDMDL
MODEL 3
REMARK VINA RESULT:      -6.7      8.788     10.421
REMARK  2 active torsions:
REMARK  status: ('A' for Active; 'I' for Inactive)
REMARK       I    between atoms: C_6  and  N_8 
REMARK    1  A    between atoms: C_7  and  C_6 
REMARK    2  A    between atoms: N_8  and  C_11 
ROOT
ATOM      1  N   UNL d   1     -39.388  14.919  16.693  0.00  0.00    -0.246 NA
ATOM      2  C   UNL d   1     -39.075  13.755  17.276  0.00  0.00     0.019 A 
ATOM      3  C   UNL d   1     -38.910  14.250  16.633  0.00  0.00     0.081 A 
ATOM      4  C   UNL d   1     -39.651  14.124  17.725  0.00  0.00     0.021 A 
ATOM      5  C   UNL d   1     -39.837  14.839  17.358  0.00  0.00     0.082 A 
ATOM      6  C   UNL d   1     -40.026  13.899  18.416  0.00  0.00     0.021 A 
ATOM      7  C   UNL d   1     -40.600  14.391  18.756  0.00  0.00     0.085 A 
ATOM      8  C   UNL d   1     -40.413  15.338  17.697  0.00  0.00     0.021 A 
ATOM      9  C   UNL d   1     -40.788  15.107  18.392  0.00  0.00     0.021 A 
ATOM     10  C   UNL d   1     -38.671  13.029  17.363  0.00  0.00     0.002 A 
ATOM     11  C   UNL d   1     -38.342  14.020  16.075  0.00  0.00     0.019 A 
ATOM     12  C   UNL d   1     -38.106  12.802  16.807  0.00  0.00     0.000 A 
ATOM     13  C   UNL d   1     -37.942  13.298  16.163  0.00  0.00     0.002 A 
ENDROOT
BRANCH   7  14
ATOM     14  N   UNL d   1     -40.987  14.156  19.471  0.00  0.00    -0.206 NA
ATOM     15  C   UNL d   1     -40.711  14.432  20.202  0.00  0.00     0.302 C 
ATOM     16  O   UNL d   1     -41.095  14.196  20.880  0.00  0.00    -0.263 OA
BRANCH  15  17
ATOM     17  C   UNL d   1     -40.047  14.945  20.234  0.00  0.00     0.158 A 
ATOM     18  O   UNL d   1     -39.912  15.708  19.944  0.00  0.00    -0.300 OA
ATOM     19  C   UNL d   1     -39.150  15.921  20.150  0.00  0.00     0.123 A 
ATOM     20  C   UNL d   1     -38.815  15.308  20.559  0.00  0.00     0.029 A 
ATOM     21  C   UNL d   1     -39.372  14.709  20.608  0.00  0.00     0.032 A 
ENDBRANCH  15  17
ENDBRANCH   7  14
TORSDOF 2
ENDMDL
MODEL 4
REMARK VINA RESULT:      -6.7      1.706      2.400
REMARK  2 active torsions:
REMARK  status: ('A' for Active; 'I' for Inactive)
REMARK       I    between atoms: C_6  and  N_8 
REMARK    1  A    between atoms: C_7  and  C_6 
REMARK    2  A    between atoms: N_8  and  C_11 
ROOT
ATOM      1  N   UNL d   1     -49.334  12.042  23.508  0.00  0.00    -0.246 NA
ATOM      2  C   UNL d   1     -49.256  12.483  22.247  0.00  0.00     0.019 A 
ATOM      3  C   UNL d   1     -49.776  12.317  22.869  0.00  0.00     0.081 A 
ATOM      4  C   UNL d   1     -48.501  12.309  22.508  0.00  0.00     0.021 A 
ATOM      5  C   UNL d   1     -48.559  12.038  23.285  0.00  0.00     0.082 A 
ATOM      6  C   UNL d   1     -47.773  12.362  22.139  0.00  0.00     0.021 A 
ATOM      7  C   UNL d   1     -47.084  12.143  22.545  0.00  0.00     0.085 A 
ATOM      8  C   UNL d   1     -47.869  11.816  23.698  0.00  0.00     0.021 A 
ATOM      9  C   UNL d   1     -47.140  11.872  23.322  0.00  0.00     0.021 A 
ATOM     10  C   UNL d   1     -49.547  12.774  21.520  0.00  0.00     0.002 A 
ATOM     11  C   UNL d   1     -50.589  12.441  22.766  0.00  0.00     0.019 A 
ATOM     12  C   UNL d   1     -50.356  12.897  21.420  0.00  0.00     0.000 A 
ATOM     13  C   UNL d   1     -50.877  12.730  22.043  0.00  0.00     0.002 A 
ENDROOT
BRANCH   7  14
ATOM     14  N   UNL d   1     -46.333  12.200  22.160  0.00  0.00    -0.206 NA
ATOM     15  C   UNL d   1     -45.872  12.883  22.246  0.00  0.00     0.302 C 
ATOM     16  O   UNL d   1     -45.151  12.921  21.870  0.00  0.00    -0.263 OA
BRANCH  15  17
ATOM     17  C   UNL d   1     -46.151  13.521  22.716  0.00  0.00     0.158 A 
ATOM     18  O   UNL d   1     -46.294  13.602  23.527  0.00  0.00    -0.300 OA
ATOM     19  C   UNL d   1     -46.566  14.361  23.657  0.00  0.00     0.123 A 
ATOM     20  C   UNL d   1     -46.594  14.749  22.946  0.00  0.00     0.029 A 
ATOM     21  C   UNL d   1     -46.337  14.226  22.369  0.00  0.00     0.032 A 
ENDBRANCH  15  17
ENDBRANCH   7  14
TORSDOF 2
ENDMDL
MODEL 5
REMARK VINA RESULT:      -6.4      8.322      9.422
REMARK  2 active torsions:
REMARK  status: ('A' for Active; 'I' for Inactive)
REMARK       I    between atoms: C_6  and  N_8 
REMARK    1  A    between atoms: C_7  and  C_6 
REMARK    2  A    between atoms: N_8  and  C_11 
ROOT
ATOM      1  N   UNL d   1     -40.896  14.085  18.604  0.00  0.00    -0.246 NA
ATOM      2  C   UNL d   1     -40.258  15.259  18.509  0.00  0.00     0.019 A 
ATOM      3  C   UNL d   1     -40.565  14.624  18.075  0.00  0.00     0.081 A 
ATOM      4  C   UNL d   1     -40.404  15.106  19.299  0.00  0.00     0.021 A 
ATOM      5  C   UNL d   1     -40.797  14.381  19.347  0.00  0.00     0.082 A 
ATOM      6  C   UNL d   1     -40.229  15.531  19.975  0.00  0.00     0.021 A 
ATOM      7  C   UNL d   1     -40.447  15.237  20.719  0.00  0.00     0.085 A 
ATOM      8  C   UNL d   1     -41.018  14.081  20.094  0.00  0.00     0.021 A 
ATOM      9  C   UNL d   1     -40.840  14.513  20.770  0.00  0.00     0.021 A 
ATOM     10  C   UNL d   1     -39.885  15.896  18.118  0.00  0.00     0.002 A 
ATOM     11  C   UNL d   1     -40.498  14.624  17.249  0.00  0.00     0.019 A 
ATOM     12  C   UNL d   1     -39.820  15.893  17.296  0.00  0.00     0.000 A 
ATOM     13  C   UNL d   1     -40.127  15.258  16.862  0.00  0.00     0.002 A 
ENDROOT
BRANCH   7  14
ATOM     14  N   UNL d   1     -40.265  15.680  21.417  0.00  0.00    -0.206 NA
ATOM     15  C   UNL d   1     -39.599  15.486  21.870  0.00  0.00     0.302 C 
ATOM     16  O   UNL d   1     -39.439  15.921  22.539  0.00  0.00    -0.263 OA
BRANCH  15  17
ATOM     17  C   UNL d   1     -39.104  14.849  21.637  0.00  0.00     0.158 A 
ATOM     18  O   UNL d   1     -39.221  14.031  21.594  0.00  0.00    -0.300 OA
ATOM     19  C   UNL d   1     -38.528  13.694  21.323  0.00  0.00     0.123 A 
ATOM     20  C   UNL d   1     -37.988  14.284  21.198  0.00  0.00     0.029 A 
ATOM     21  C   UNL d   1     -38.348  14.995  21.393  0.00  0.00     0.032 A 
ENDBRANCH  15  17
ENDBRANCH   7  14
TORSDOF 2
ENDMDL
