MODEL 1
REMARK VINA RESULT:     -11.5      0.000      0.000
REMARK  2 active torsions:
REMARK  status: ('A' for Active; 'I' for Inactive)
REMARK    1  A    between atoms: C_8  and  C_1 
REMARK    2  A    between atoms: C_7  and  C_2 
ROOT
ATOM      1  C   UNL d   1      53.388  33.095  53.994  0.00  0.00     0.066 A 
ATOM      2  C   UNL d   1      54.101  32.731  54.189  0.00  0.00     0.174 A 
ATOM      3  C   UNL d   1      52.770  32.663  53.646  0.00  0.00     0.199 A 
ATOM      4  O   UNL d   1      54.205  31.921  54.035  0.00  0.00    -0.303 OA
ATOM      5  C   UNL d   1      52.892  31.853  53.500  0.00  0.00     0.062 A 
ATOM      6  C   UNL d   1      53.593  31.493  53.691  0.00  0.00     0.106 A 
ATOM      7  C   UNL d   1      53.712  30.684  53.543  0.00  0.00     0.067 A 
ATOM      8  C   UNL d   1      52.276  31.407  53.149  0.00  0.00     0.009 A 
ATOM      9  O   UNL d   1      52.051  33.045  53.454  0.00  0.00    -0.286 OA
ATOM     10  C   UNL d   1      53.098  30.249  53.196  0.00  0.00     0.198 A 
ATOM     11  C   UNL d   1      52.377  30.615  52.999  0.00  0.00     0.042 A 
ATOM     12  O   UNL d   1      53.214  29.462  53.053  0.00  0.00    -0.286 OA
ENDROOT
BRANCH   1  13
ATOM     13  C   UNL d   1      53.265  33.881  54.135  0.00  0.00     0.005 A 
ATOM     14  C   UNL d   1      53.277  34.432  53.539  0.00  0.00     0.000 A 
ATOM     15  C   UNL d   1      53.413  34.236  52.756  0.00  0.00     0.000 C 
ATOM     16  C   UNL d   1      53.150  35.239  53.692  0.00  0.00     0.000 A 
ATOM     17  C   UNL d   1      53.011  35.473  54.466  0.00  0.00     0.000 A 
ATOM     18  C   UNL d   1      52.996  34.925  55.082  0.00  0.00     0.000 A 
ATOM     19  C   UNL d   1      53.122  34.136  54.918  0.00  0.00     0.000 A 
ENDBRANCH   1  13
BRANCH   2  20
ATOM     20  C   UNL d   1      54.710  33.170  54.535  0.00  0.00     0.440 C 
ATOM     21  F   UNL d   1      55.241  33.462  54.056  0.00  0.00    -0.164 F 
ATOM     22  F   UNL d   1      55.338  33.615  54.825  0.00  0.00    -0.164 F 
ATOM     23  F   UNL d   1      54.735  33.289  55.415  0.00  0.00    -0.164 F 
ENDBRANCH   2  20
TORSDOF 2
ENDMDL
MODEL 2
REMARK VINA RESULT:     -11.0      2.018      3.116
REMARK  2 active torsions:
REMARK  status: ('A' for Active; 'I' for Inactive)
REMARK    1  A    between atoms: C_8  and  C_1 
REMARK    2  A    between atoms: C_7  and  C_2 
ROOT
ATOM      1  C   UNL d   1      52.429  33.591  53.507  0.00  0.00     0.066 A 
ATOM      2  C   UNL d   1      52.804  32.860  53.450  0.00  0.00     0.174 A 
ATOM      3  C   UNL d   1      52.745  34.196  53.980  0.00  0.00     0.199 A 
ATOM      4  O   UNL d   1      53.508  32.724  53.869  0.00  0.00    -0.303 OA
ATOM      5  C   UNL d   1      53.450  34.043  54.392  0.00  0.00     0.062 A 
ATOM      6  C   UNL d   1      53.821  33.323  54.337  0.00  0.00     0.106 A 
ATOM      7  C   UNL d   1      54.526  33.173  54.750  0.00  0.00     0.067 A 
ATOM      8  C   UNL d   1      53.779  34.645  54.872  0.00  0.00     0.009 A 
ATOM      9  O   UNL d   1      52.354  34.934  54.029  0.00  0.00    -0.286 OA
ATOM     10  C   UNL d   1      54.845  33.774  55.223  0.00  0.00     0.198 A 
ATOM     11  C   UNL d   1      54.468  34.513  55.282  0.00  0.00     0.042 A 
ATOM     12  O   UNL d   1      55.531  33.627  55.625  0.00  0.00    -0.286 OA
ENDROOT
BRANCH   1  13
ATOM     13  C   UNL d   1      51.743  33.744  53.108  0.00  0.00     0.005 A 
ATOM     14  C   UNL d   1      51.735  34.151  52.405  0.00  0.00     0.000 A 
ATOM     15  C   UNL d   1      52.416  34.434  52.050  0.00  0.00     0.000 C 
ATOM     16  C   UNL d   1      51.025  34.304  52.001  0.00  0.00     0.000 A 
ATOM     17  C   UNL d   1      50.322  34.034  52.328  0.00  0.00     0.000 A 
ATOM     18  C   UNL d   1      50.315  33.620  53.042  0.00  0.00     0.000 A 
ATOM     19  C   UNL d   1      51.018  33.477  53.428  0.00  0.00     0.000 A 
ENDBRANCH   1  13
BRANCH   2  20
ATOM     20  C   UNL d   1      52.480  32.264  52.976  0.00  0.00     0.440 C 
ATOM     21  F   UNL d   1      52.763  32.200  52.260  0.00  0.00    -0.164 F 
ATOM     22  F   UNL d   1      52.195  31.688  52.462  0.00  0.00    -0.164 F 
ATOM     23  F   UNL d   1      51.841  31.734  53.293  0.00  0.00    -0.164 F 
ENDBRANCH   2  20
TORSDOF 2
ENDMDL
MODEL 3
REMARK VINA RESULT:     -10.9      1.581      2.854
REMARK  2 active torsions:
REMARK  status: ('A' for Active; 'I' for Inactive)
REMARK    1  A    between atoms: C_8  and  C_1 
REMARK    2  A    between atoms: C_7  and  C_2 
ROOT
ATOM      1  C   UNL d   1      53.355  33.383  53.813  0.00  0.00     0.066 A 
ATOM      2  C   UNL d   1      53.043  32.647  53.613  0.00  0.00     0.174 A 
ATOM      3  C   UNL d   1      52.915  34.078  53.697  0.00  0.00     0.199 A 
ATOM      4  O   UNL d   1      52.278  32.598  53.291  0.00  0.00    -0.303 OA
ATOM      5  C   UNL d   1      52.152  34.010  53.375  0.00  0.00     0.062 A 
ATOM      6  C   UNL d   1      51.843  33.286  53.177  0.00  0.00     0.106 A 
ATOM      7  C   UNL d   1      51.080  33.221  52.855  0.00  0.00     0.067 A 
ATOM      8  C   UNL d   1      51.699  34.704  53.254  0.00  0.00     0.009 A 
ATOM      9  O   UNL d   1      53.244  34.818  53.905  0.00  0.00    -0.286 OA
ATOM     10  C   UNL d   1      50.637  33.912  52.738  0.00  0.00     0.198 A 
ATOM     11  C   UNL d   1      50.952  34.656  52.940  0.00  0.00     0.042 A 
ATOM     12  O   UNL d   1      49.895  33.849  52.425  0.00  0.00    -0.286 OA
ENDROOT
BRANCH   1  13
ATOM     13  C   UNL d   1      54.096  33.454  54.126  0.00  0.00     0.005 A 
ATOM     14  C   UNL d   1      54.219  33.563  54.921  0.00  0.00     0.000 A 
ATOM     15  C   UNL d   1      53.606  33.610  55.462  0.00  0.00     0.000 C 
ATOM     16  C   UNL d   1      54.985  33.635  55.236  0.00  0.00     0.000 A 
ATOM     17  C   UNL d   1      55.624  33.593  54.723  0.00  0.00     0.000 A 
ATOM     18  C   UNL d   1      55.515  33.482  53.913  0.00  0.00     0.000 A 
ATOM     19  C   UNL d   1      54.759  33.413  53.618  0.00  0.00     0.000 A 
ENDBRANCH   1  13
BRANCH   2  20
ATOM     20  C   UNL d   1      53.489  31.961  53.731  0.00  0.00     0.440 C 
ATOM     21  F   UNL d   1      53.933  31.731  53.142  0.00  0.00    -0.164 F 
ATOM     22  F   UNL d   1      53.954  31.285  53.794  0.00  0.00    -0.164 F 
ATOM     23  F   UNL d   1      53.447  31.524  54.503  0.00  0.00    -0.164 F 
ENDBRANCH   2  20
TORSDOF 2
ENDMDL
MODEL 4
REMARK VINA RESULT:     -10.8      1.689      2.270
REMARK  2 active torsions:
REMARK  status: ('A' for Active; 'I' for Inactive)
REMARK    1  A    between atoms: C_8  and  C_1 
REMARK    2  A    between atoms: C_7  and  C_2 
ROOT
ATOM      1  C   UNL d   1      52.745  33.053  53.479  0.00  0.00     0.066 A 
ATOM      2  C   UNL d   1      51.987  32.783  53.302  0.00  0.00     0.174 A 
ATOM      3  C   UNL d   1      53.383  32.525  53.534  0.00  0.00     0.199 A 
ATOM      4  O   UNL d   1      51.858  31.971  53.178  0.00  0.00    -0.303 OA
ATOM      5  C   UNL d   1      53.236  31.716  53.408  0.00  0.00     0.062 A 
ATOM      6  C   UNL d   1      52.490  31.448  53.234  0.00  0.00     0.106 A 
ATOM      7  C   UNL d   1      52.345  30.640  53.107  0.00  0.00     0.067 A 
ATOM      8  C   UNL d   1      53.871  31.174  53.461  0.00  0.00     0.009 A 
ATOM      9  O   UNL d   1      54.148  32.813  53.714  0.00  0.00    -0.286 OA
ATOM     10  C   UNL d   1      52.979  30.109  53.162  0.00  0.00     0.198 A 
ATOM     11  C   UNL d   1      53.745  30.381  53.340  0.00  0.00     0.042 A 
ATOM     12  O   UNL d   1      52.838  29.323  53.039  0.00  0.00    -0.286 OA
ENDROOT
BRANCH   1  13
ATOM     13  C   UNL d   1      52.893  33.837  53.603  0.00  0.00     0.005 A 
ATOM     14  C   UNL d   1      53.020  34.140  54.345  0.00  0.00     0.000 A 
ATOM     15  C   UNL d   1      53.007  33.677  55.021  0.00  0.00     0.000 C 
ATOM     16  C   UNL d   1      53.171  34.948  54.464  0.00  0.00     0.000 A 
ATOM     17  C   UNL d   1      53.191  35.443  53.809  0.00  0.00     0.000 A 
ATOM     18  C   UNL d   1      53.065  35.150  53.049  0.00  0.00     0.000 A 
ATOM     19  C   UNL d   1      52.917  34.355  52.946  0.00  0.00     0.000 A 
ENDBRANCH   1  13
BRANCH   2  20
ATOM     20  C   UNL d   1      51.358  33.317  53.249  0.00  0.00     0.440 C 
ATOM     21  F   UNL d   1      50.929  33.410  53.885  0.00  0.00    -0.164 F 
ATOM     22  F   UNL d   1      50.719  33.836  53.252  0.00  0.00    -0.164 F 
ATOM     23  F   UNL d   1      51.199  33.751  52.491  0.00  0.00    -0.164 F 
ENDBRANCH   2  20
TORSDOF 2
ENDMDL
MODEL 5
REMARK VINA RESULT:     -10.1      1.891      2.971
REMARK  2 active torsions:
REMARK  status: ('A' for Active; 'I' for Inactive)
REMARK    1  A    between atoms: C_8  and  C_1 
REMARK    2  A    between atoms: C_7  and  C_2 
ROOT
ATOM      1  C   UNL d   1      52.764  33.987  53.916  0.00  0.00     0.066 A 
ATOM      2  C   UNL d   1      52.617  34.789  53.795  0.00  0.00     0.174 A 
ATOM      3  C   UNL d   1      52.222  33.411  53.661  0.00  0.00     0.199 A 
ATOM      4  O   UNL d   1      51.918  35.026  53.413  0.00  0.00    -0.303 OA
ATOM      5  C   UNL d   1      51.529  33.667  53.280  0.00  0.00     0.062 A 
ATOM      6  C   UNL d   1      51.382  34.456  53.160  0.00  0.00     0.106 A 
ATOM      7  C   UNL d   1      50.688  34.709  52.779  0.00  0.00     0.067 A 
ATOM      8  C   UNL d   1      50.975  33.096  53.018  0.00  0.00     0.009 A 
ATOM      9  O   UNL d   1      52.384  32.601  53.791  0.00  0.00    -0.286 OA
ATOM     10  C   UNL d   1      50.145  34.137  52.523  0.00  0.00     0.198 A 
ATOM     11  C   UNL d   1      50.293  33.328  52.645  0.00  0.00     0.042 A 
ATOM     12  O   UNL d   1      49.471  34.383  52.152  0.00  0.00    -0.286 OA
ENDROOT
BRANCH   1  13
ATOM     13  C   UNL d   1      53.436  33.734  54.286  0.00  0.00     0.005 A 
ATOM     14  C   UNL d   1      54.061  33.417  53.875  0.00  0.00     0.000 A 
ATOM     15  C   UNL d   1      54.057  33.330  53.061  0.00  0.00     0.000 C 
ATOM     16  C   UNL d   1      54.749  33.159  54.263  0.00  0.00     0.000 A 
ATOM     17  C   UNL d   1      54.788  33.232  55.080  0.00  0.00     0.000 A 
ATOM     18  C   UNL d   1      54.162  33.552  55.511  0.00  0.00     0.000 A 
ATOM     19  C   UNL d   1      53.492  33.800  55.118  0.00  0.00     0.000 A 
ENDBRANCH   1  13
BRANCH   2  20
ATOM     20  C   UNL d   1      53.163  35.354  54.053  0.00  0.00     0.440 C 
ATOM     21  F   UNL d   1      53.687  35.589  53.536  0.00  0.00    -0.164 F 
ATOM     22  F   UNL d   1      53.730  35.915  54.255  0.00  0.00    -0.164 F 
ATOM     23  F   UNL d   1      53.131  35.663  54.885  0.00  0.00    -0.164 F 
ENDBRANCH   2  20
TORSDOF 2
ENDMDL
MODEL 6
REMARK VINA RESULT:      -9.7      1.368      3.292
REMARK  2 active torsions:
REMARK  status: ('A' for Active; 'I' for Inactive)
REMARK    1  A    between atoms: C_8  and  C_1 
REMARK    2  A    between atoms: C_7  and  C_2 
ROOT
ATOM      1  C   UNL d   1      52.847  32.038  53.496  0.00  0.00     0.066 A 
ATOM      2  C   UNL d   1      53.393  32.655  53.492  0.00  0.00     0.174 A 
ATOM      3  C   UNL d   1      52.037  32.186  53.386  0.00  0.00     0.199 A 
ATOM      4  O   UNL d   1      53.132  33.436  53.378  0.00  0.00    -0.303 OA
ATOM      5  C   UNL d   1      51.794  32.972  53.273  0.00  0.00     0.062 A 
ATOM      6  C   UNL d   1      52.330  33.582  53.269  0.00  0.00     0.106 A 
ATOM      7  C   UNL d   1      52.084  34.367  53.156  0.00  0.00     0.067 A 
ATOM      8  C   UNL d   1      50.979  33.133  53.161  0.00  0.00     0.009 A 
ATOM      9  O   UNL d   1      51.494  31.550  53.392  0.00  0.00    -0.286 OA
ATOM     10  C   UNL d   1      51.276  34.518  53.046  0.00  0.00     0.198 A 
ATOM     11  C   UNL d   1      50.724  33.896  53.049  0.00  0.00     0.042 A 
ATOM     12  O   UNL d   1      51.037  35.282  52.935  0.00  0.00    -0.286 OA
ENDROOT
BRANCH   1  13
ATOM     13  C   UNL d   1      53.079  31.272  53.605  0.00  0.00     0.005 A 
ATOM     14  C   UNL d   1      53.142  30.748  52.988  0.00  0.00     0.000 A 
ATOM     15  C   UNL d   1      52.976  30.954  52.213  0.00  0.00     0.000 C 
ATOM     16  C   UNL d   1      53.382  29.962  53.110  0.00  0.00     0.000 A 
ATOM     17  C   UNL d   1      53.557  29.720  53.875  0.00  0.00     0.000 A 
ATOM     18  C   UNL d   1      53.498  30.241  54.512  0.00  0.00     0.000 A 
ATOM     19  C   UNL d   1      53.262  31.009  54.378  0.00  0.00     0.000 A 
ENDBRANCH   1  13
BRANCH   2  20
ATOM     20  C   UNL d   1      54.198  32.498  53.603  0.00  0.00     0.440 C 
ATOM     21  F   UNL d   1      54.623  32.410  52.964  0.00  0.00    -0.164 F 
ATOM     22  F   UNL d   1      55.003  32.340  53.653  0.00  0.00    -0.164 F 
ATOM     23  F   UNL d   1      54.536  32.438  54.421  0.00  0.00    -0.164 F 
ENDBRANCH   2  20
TORSDOF 2
ENDMDL
MODEL 7
REMARK VINA RESULT:      -9.5      2.007      2.308
REMARK  2 active torsions:
REMARK  status: ('A' for Active; 'I' for Inactive)
REMARK    1  A    between atoms: C_8  and  C_1 
REMARK    2  A    between atoms: C_7  and  C_2 
ROOT
ATOM      1  C   UNL d   1      51.902  33.457  53.147  0.00  0.00     0.066 A 
ATOM      2  C   UNL d   1      52.618  33.794  53.377  0.00  0.00     0.174 A 
ATOM      3  C   UNL d   1      51.832  32.637  53.040  0.00  0.00     0.199 A 
ATOM      4  O   UNL d   1      53.280  33.307  53.504  0.00  0.00    -0.303 OA
ATOM      5  C   UNL d   1      52.503  32.165  53.172  0.00  0.00     0.062 A 
ATOM      6  C   UNL d   1      53.210  32.495  53.398  0.00  0.00     0.106 A 
ATOM      7  C   UNL d   1      53.880  32.021  53.529  0.00  0.00     0.067 A 
ATOM      8  C   UNL d   1      52.445  31.336  53.068  0.00  0.00     0.009 A 
ATOM      9  O   UNL d   1      51.099  32.308  52.807  0.00  0.00    -0.286 OA
ATOM     10  C   UNL d   1      53.814  31.202  53.423  0.00  0.00     0.198 A 
ATOM     11  C   UNL d   1      53.092  30.861  53.192  0.00  0.00     0.042 A 
ATOM     12  O   UNL d   1      54.466  30.741  53.551  0.00  0.00    -0.286 OA
ENDROOT
BRANCH   1  13
ATOM     13  C   UNL d   1      51.246  33.911  53.018  0.00  0.00     0.005 A 
ATOM     14  C   UNL d   1      51.033  34.159  52.275  0.00  0.00     0.000 A 
ATOM     15  C   UNL d   1      51.462  33.970  51.604  0.00  0.00     0.000 C 
ATOM     16  C   UNL d   1      50.357  34.627  52.151  0.00  0.00     0.000 A 
ATOM     17  C   UNL d   1      49.902  34.836  52.802  0.00  0.00     0.000 A 
ATOM     18  C   UNL d   1      50.106  34.592  53.563  0.00  0.00     0.000 A 
ATOM     19  C   UNL d   1      50.771  34.134  53.670  0.00  0.00     0.000 A 
ENDBRANCH   1  13
BRANCH   2  20
ATOM     20  C   UNL d   1      52.677  34.612  53.480  0.00  0.00     0.440 C 
ATOM     21  F   UNL d   1      52.510  34.884  54.184  0.00  0.00    -0.164 F 
ATOM     22  F   UNL d   1      52.720  35.418  53.640  0.00  0.00    -0.164 F 
ATOM     23  F   UNL d   1      52.923  35.135  52.805  0.00  0.00    -0.164 F 
ENDBRANCH   2  20
TORSDOF 2
ENDMDL
MODEL 8
REMARK VINA RESULT:      -9.4      1.771      3.792
REMARK  2 active torsions:
REMARK  status: ('A' for Active; 'I' for Inactive)
REMARK    1  A    between atoms: C_8  and  C_1 
REMARK    2  A    between atoms: C_7  and  C_2 
ROOT
ATOM      1  C   UNL d   1      53.203  32.578  53.874  0.00  0.00     0.066 A 
ATOM      2  C   UNL d   1      52.626  32.924  53.398  0.00  0.00     0.174 A 
ATOM      3  C   UNL d   1      53.612  33.026  54.441  0.00  0.00     0.199 A 
ATOM      4  O   UNL d   1      52.449  33.731  53.486  0.00  0.00    -0.303 OA
ATOM      5  C   UNL d   1      53.422  33.832  54.515  0.00  0.00     0.062 A 
ATOM      6  C   UNL d   1      52.854  34.174  54.048  0.00  0.00     0.106 A 
ATOM      7  C   UNL d   1      52.666  34.980  54.124  0.00  0.00     0.067 A 
ATOM      8  C   UNL d   1      53.828  34.294  55.085  0.00  0.00     0.009 A 
ATOM      9  O   UNL d   1      54.195  32.662  54.917  0.00  0.00    -0.286 OA
ATOM     10  C   UNL d   1      53.072  35.430  54.690  0.00  0.00     0.198 A 
ATOM     11  C   UNL d   1      53.655  35.082  55.171  0.00  0.00     0.042 A 
ATOM     12  O   UNL d   1      52.889  36.214  54.764  0.00  0.00    -0.286 OA
ENDROOT
BRANCH   1  13
ATOM     13  C   UNL d   1      53.391  31.795  53.805  0.00  0.00     0.005 A 
ATOM     14  C   UNL d   1      54.049  31.544  53.402  0.00  0.00     0.000 A 
ATOM     15  C   UNL d   1      54.570  32.060  53.037  0.00  0.00     0.000 C 
ATOM     16  C   UNL d   1      54.235  30.736  53.335  0.00  0.00     0.000 A 
ATOM     17  C   UNL d   1      53.735  30.189  53.689  0.00  0.00     0.000 A 
ATOM     18  C   UNL d   1      53.062  30.430  54.102  0.00  0.00     0.000 A 
ATOM     19  C   UNL d   1      52.892  31.225  54.159  0.00  0.00     0.000 A 
ENDBRANCH   1  13
BRANCH   2  20
ATOM     20  C   UNL d   1      52.225  32.469  52.835  0.00  0.00     0.440 C 
ATOM     21  F   UNL d   1      52.518  32.466  52.121  0.00  0.00    -0.164 F 
ATOM     22  F   UNL d   1      51.866  32.034  52.236  0.00  0.00    -0.164 F 
ATOM     23  F   UNL d   1      51.496  32.015  53.061  0.00  0.00    -0.164 F 
ENDBRANCH   2  20
TORSDOF 2
ENDMDL
