MODEL 1
REMARK VINA RESULT:      -1.5      0.000      0.000
REMARK  6 active torsions:
REMARK  status: ('A' for Active; 'I' for Inactive)
REMARK    1  A    between atoms: N_6  and  S_1 
REMARK    2  A    between atoms: C_12  and  S_1 
REMARK    3  A    between atoms: C_2  and  N_5 
REMARK    4  A    between atoms: C_4  and  C_7 
REMARK       I    between atoms: N_5  and  C_4 
REMARK    5  A    between atoms: C_10  and  N_6 
REMARK    6  A    between atoms: C_15  and  C_8 
ROOT
ATOM      1  C   UNL d   1      32.632  17.129 -23.316  0.00  0.00     0.076 A 
ATOM      2  C   UNL d   1      31.936  16.803 -23.597  0.00  0.00     0.098 A 
ATOM      3  C   UNL d   1      33.241  16.638 -23.054  0.00  0.00     0.006 A 
ATOM      4  C   UNL d   1      31.841  15.980 -23.618  0.00  0.00     0.020 A 
ATOM      5  C   UNL d   1      33.146  15.815 -23.076  0.00  0.00     0.000 A 
ATOM      6  C   UNL d   1      32.443  15.486 -23.359  0.00  0.00     0.002 A 
ENDROOT
BRANCH   1   7
ATOM      7  C   UNL d   1      32.727  17.948 -23.295  0.00  0.00     0.282 C 
ATOM      8  N   UNL d   1      32.873  18.326 -22.584  0.00  0.00    -0.183 NA
ATOM      9  O   UNL d   1      32.674  18.385 -23.992  0.00  0.00    -0.265 OA
BRANCH   8  10
ATOM     10  C   UNL d   1      32.968  19.149 -22.563  0.00  0.00     0.197 A 
ATOM     11  N   UNL d   1      32.959  19.639 -23.204  0.00  0.00    -0.221 NA
ATOM     12  C   UNL d   1      33.072  20.411 -22.939  0.00  0.00     0.090 A 
ATOM     13  C   UNL d   1      33.151  20.380 -22.115  0.00  0.00     0.058 A 
ATOM     14  S   UNL d   1      33.086  19.590 -21.878  0.00  0.00    -0.046 SA
BRANCH  12  15
ATOM     15  C   UNL d   1      33.115  21.136 -23.333  0.00  0.00     0.018 A 
ATOM     16  C   UNL d   1      33.197  21.157 -24.161  0.00  0.00     0.004 A 
ATOM     17  C   UNL d   1      33.239  21.883 -24.552  0.00  0.00     0.030 A 
ATOM     18  C   UNL d   1      33.199  22.580 -24.112  0.00  0.00     0.140 A 
ATOM     19  C   UNL d   1      33.118  22.559 -23.296  0.00  0.00     0.030 A 
ATOM     20  F   UNL d   1      33.241  23.305 -24.499  0.00  0.00    -0.204 F 
ATOM     21  C   UNL d   1      33.076  21.841 -22.902  0.00  0.00     0.004 A 
ENDBRANCH  12  15
ENDBRANCH   8  10
ENDBRANCH   1   7
BRANCH   2  22
ATOM     22  N   UNL d   1      31.327  17.294 -23.859  0.00  0.00    -0.158 NA
BRANCH  22  23
ATOM     23  S   UNL d   1      30.584  16.962 -24.096  0.00  0.00     0.285 S 
ATOM     24  O   UNL d   1      30.741  17.197 -24.869  0.00  0.00    -0.198 OA
ATOM     25  O   UNL d   1      30.454  16.736 -23.302  0.00  0.00    -0.198 OA
BRANCH  23  26
ATOM     26  C   UNL d   1      29.871  16.644 -24.323  0.00  0.00     0.105 A 
ATOM     27  C   UNL d   1      29.835  15.848 -24.535  0.00  0.00     0.013 A 
ATOM     28  C   UNL d   1      29.093  15.514 -24.771  0.00  0.00     0.001 A 
ATOM     29  C   UNL d   1      28.426  15.981 -24.787  0.00  0.00     0.000 A 
ATOM     30  C   UNL d   1      28.470  16.789 -24.570  0.00  0.00     0.001 A 
ATOM     31  C   UNL d   1      27.715  15.644 -25.018  0.00  0.00     0.000 C 
ATOM     32  C   UNL d   1      29.195  17.116 -24.339  0.00  0.00     0.013 A 
ENDBRANCH  23  26
ENDBRANCH  22  23
ENDBRANCH   2  22
TORSDOF 6
ENDMDL
MODEL 2
REMARK VINA RESULT:      -0.3      2.391      5.964
REMARK  6 active torsions:
REMARK  status: ('A' for Active; 'I' for Inactive)
REMARK    1  A    between atoms: N_6  and  S_1 
REMARK    2  A    between atoms: C_12  and  S_1 
REMARK    3  A    between atoms: C_2  and  N_5 
REMARK    4  A    between atoms: C_4  and  C_7 
REMARK       I    between atoms: N_5  and  C_4 
REMARK    5  A    between atoms: C_10  and  N_6 
REMARK    6  A    between atoms: C_15  and  C_8 
ROOT
ATOM      1  C   UNL d   1      32.497  19.777 -23.899  0.00  0.00     0.076 A 
ATOM      2  C   UNL d   1      32.574  20.298 -23.272  0.00  0.00     0.098 A 
ATOM      3  C   UNL d   1      32.791  19.980 -24.642  0.00  0.00     0.006 A 
ATOM      4  C   UNL d   1      32.946  21.030 -23.383  0.00  0.00     0.020 A 
ATOM      5  C   UNL d   1      33.164  20.712 -24.753  0.00  0.00     0.000 A 
ATOM      6  C   UNL d   1      33.241  21.237 -24.120  0.00  0.00     0.002 A 
ENDROOT
BRANCH   1   7
ATOM      7  C   UNL d   1      32.126  19.048 -23.788  0.00  0.00     0.282 C 
ATOM      8  N   UNL d   1      31.475  18.847 -24.240  0.00  0.00    -0.183 NA
ATOM      9  O   UNL d   1      32.414  18.523 -23.221  0.00  0.00    -0.265 OA
BRANCH   8  10
ATOM     10  C   UNL d   1      31.102  18.114 -24.129  0.00  0.00     0.197 A 
ATOM     11  N   UNL d   1      30.319  18.007 -23.968  0.00  0.00    -0.221 NA
ATOM     12  C   UNL d   1      30.180  17.198 -23.899  0.00  0.00     0.090 A 
ATOM     13  C   UNL d   1      30.903  16.811 -24.023  0.00  0.00     0.058 A 
ATOM     14  S   UNL d   1      31.481  17.385 -24.167  0.00  0.00    -0.046 SA
BRANCH  12  15
ATOM     15  C   UNL d   1      29.498  16.759 -23.742  0.00  0.00     0.018 A 
ATOM     16  C   UNL d   1      29.496  16.195 -23.130  0.00  0.00     0.004 A 
ATOM     17  C   UNL d   1      28.813  15.758 -22.974  0.00  0.00     0.030 A 
ATOM     18  C   UNL d   1      28.139  15.888 -23.431  0.00  0.00     0.140 A 
ATOM     19  C   UNL d   1      28.140  16.445 -24.034  0.00  0.00     0.030 A 
ATOM     20  F   UNL d   1      27.456  15.455 -23.278  0.00  0.00    -0.204 F 
ATOM     21  C   UNL d   1      28.816  16.882 -24.193  0.00  0.00     0.004 A 
ENDBRANCH  12  15
ENDBRANCH   8  10
ENDBRANCH   1   7
BRANCH   2  22
ATOM     22  N   UNL d   1      32.280  20.095 -22.529  0.00  0.00    -0.158 NA
BRANCH  22  23
ATOM     23  S   UNL d   1      32.455  20.579 -21.855  0.00  0.00     0.285 S 
ATOM     24  O   UNL d   1      33.239  20.334 -21.900  0.00  0.00    -0.198 OA
ATOM     25  O   UNL d   1      31.651  20.808 -21.835  0.00  0.00    -0.198 OA
BRANCH  23  26
ATOM     26  C   UNL d   1      32.622  21.042 -21.208  0.00  0.00     0.105 A 
ATOM     27  C   UNL d   1      32.907  20.687 -20.521  0.00  0.00     0.013 A 
ATOM     28  C   UNL d   1      33.082  21.169 -19.847  0.00  0.00     0.001 A 
ATOM     29  C   UNL d   1      32.967  21.974 -19.883  0.00  0.00     0.000 A 
ATOM     30  C   UNL d   1      32.676  22.328 -20.585  0.00  0.00     0.001 A 
ATOM     31  C   UNL d   1      33.140  22.427 -19.222  0.00  0.00     0.000 C 
ATOM     32  C   UNL d   1      32.505  21.858 -21.245  0.00  0.00     0.013 A 
ENDBRANCH  23  26
ENDBRANCH  22  23
ENDBRANCH   2  22
TORSDOF 6
ENDMDL
MODEL 3
REMARK VINA RESULT:       0.6      3.814      7.118
REMARK  6 active torsions:
REMARK  status: ('A' for Active; 'I' for Inactive)
REMARK    1  A    between atoms: N_6  and  S_1 
REMARK    2  A    between atoms: C_12  and  S_1 
REMARK    3  A    between atoms: C_2  and  N_5 
REMARK    4  A    between atoms: C_4  and  C_7 
REMARK       I    between atoms: N_5  and  C_4 
REMARK    5  A    between atoms: C_10  and  N_6 
REMARK    6  A    between atoms: C_15  and  C_8 
ROOT
ATOM      1  C   UNL d   1      32.296  22.139 -20.983  0.00  0.00     0.076 A 
ATOM      2  C   UNL d   1      32.539  22.532 -20.307  0.00  0.00     0.098 A 
ATOM      3  C   UNL d   1      31.766  22.499 -21.501  0.00  0.00     0.006 A 
ATOM      4  C   UNL d   1      32.253  23.292 -20.143  0.00  0.00     0.020 A 
ATOM      5  C   UNL d   1      31.479  23.259 -21.337  0.00  0.00     0.000 A 
ATOM      6  C   UNL d   1      31.725  23.656 -20.654  0.00  0.00     0.002 A 
ENDROOT
BRANCH   1   7
ATOM      7  C   UNL d   1      32.581  21.382 -21.147  0.00  0.00     0.282 C 
ATOM      8  N   UNL d   1      32.247  20.939 -21.748  0.00  0.00    -0.183 NA
ATOM      9  O   UNL d   1      33.204  21.073 -20.704  0.00  0.00    -0.265 OA
BRANCH   8  10
ATOM     10  C   UNL d   1      32.533  20.179 -21.913  0.00  0.00     0.197 A 
ATOM     11  N   UNL d   1      32.268  19.696 -22.503  0.00  0.00    -0.221 NA
ATOM     12  C   UNL d   1      32.700  18.995 -22.473  0.00  0.00     0.090 A 
ATOM     13  C   UNL d   1      33.238  19.062 -21.846  0.00  0.00     0.058 A 
ATOM     14  S   UNL d   1      33.134  19.803 -21.495  0.00  0.00    -0.046 SA
BRANCH  12  15
ATOM     15  C   UNL d   1      32.678  18.305 -22.928  0.00  0.00     0.018 A 
ATOM     16  C   UNL d   1      32.984  17.594 -22.623  0.00  0.00     0.004 A 
ATOM     17  C   UNL d   1      32.961  16.906 -23.080  0.00  0.00     0.030 A 
ATOM     18  C   UNL d   1      32.632  16.936 -23.836  0.00  0.00     0.140 A 
ATOM     19  C   UNL d   1      32.330  17.637 -24.137  0.00  0.00     0.030 A 
ATOM     20  F   UNL d   1      32.608  16.252 -24.293  0.00  0.00    -0.204 F 
ATOM     21  C   UNL d   1      32.350  18.323 -23.687  0.00  0.00     0.004 A 
ENDBRANCH  12  15
ENDBRANCH   8  10
ENDBRANCH   1   7
BRANCH   2  22
ATOM     22  N   UNL d   1      33.070  22.171 -19.789  0.00  0.00    -0.158 NA
BRANCH  22  23
ATOM     23  S   UNL d   1      33.105  22.414 -18.977  0.00  0.00     0.285 S 
ATOM     24  O   UNL d   1      32.969  21.634 -18.752  0.00  0.00    -0.198 OA
ATOM     25  O   UNL d   1      33.241  23.197 -19.238  0.00  0.00    -0.198 OA
BRANCH  23  26
ATOM     26  C   UNL d   1      33.138  22.647 -18.199  0.00  0.00     0.105 A 
ATOM     27  C   UNL d   1      33.182  23.451 -18.022  0.00  0.00     0.013 A 
ATOM     28  C   UNL d   1      33.217  23.695 -17.211  0.00  0.00     0.001 A 
ATOM     29  C   UNL d   1      33.207  23.137 -16.618  0.00  0.00     0.000 A 
ATOM     30  C   UNL d   1      33.161  22.322 -16.807  0.00  0.00     0.001 A 
ATOM     31  C   UNL d   1      33.241  23.390 -15.839  0.00  0.00     0.000 C 
ATOM     32  C   UNL d   1      33.127  22.082 -17.599  0.00  0.00     0.013 A 
ENDBRANCH  23  26
ENDBRANCH  22  23
ENDBRANCH   2  22
TORSDOF 6
ENDMDL
