MODEL 1
REMARK VINA RESULT:      27.0      0.000      0.000
REMARK  2 active torsions:
REMARK  status: ('A' for Active; 'I' for Inactive)
REMARK    1  A    between atoms: C_3  and  C_1 
REMARK       I    between atoms: N_6  and  C_3 
REMARK    2  A    between atoms: C_12  and  N_6 
ROOT
ATOM      1  C   UNL d   1     -52.518  24.470  33.311  0.00  0.00     0.008 A 
ATOM      2  S   UNL d   1     -52.817  23.189  33.316  0.00  0.00    -0.086 SA
ATOM      3  C   UNL d   1     -52.202  23.715  33.315  0.00  0.00     0.030 A 
ATOM      4  C   UNL d   1     -53.504  23.601  33.312  0.00  0.00     0.035 A 
ATOM      5  C   UNL d   1     -51.191  25.025  33.312  0.00  0.00     0.085 A 
ATOM      6  C   UNL d   1     -52.010  25.124  33.309  0.00  0.00     0.020 A 
ATOM      7  C   UNL d   1     -53.334  24.402  33.309  0.00  0.00     0.007 A 
ATOM      8  C   UNL d   1     -51.366  23.604  33.318  0.00  0.00     0.008 A 
ATOM      9  C   UNL d   1     -50.869  24.266  33.317  0.00  0.00     0.020 A 
ENDROOT
BRANCH   5  10
ATOM     10  N   UNL d   1     -50.694  25.687  33.310  0.00  0.00    -0.208 NA
ATOM     11  C   UNL d   1     -51.016  26.446  33.334  0.00  0.00     0.285 C 
ATOM     12  O   UNL d   1     -51.831  26.543  33.360  0.00  0.00    -0.265 OA
BRANCH  11  13
ATOM     13  C   UNL d   1     -50.522  27.103  33.333  0.00  0.00     0.088 A 
ATOM     14  S   UNL d   1     -50.770  27.909  33.344  0.00  0.00    -0.071 SA
ATOM     15  C   UNL d   1     -50.096  28.387  33.338  0.00  0.00     0.087 A 
ATOM     16 CL   UNL d   1     -50.083  29.162  33.345  0.00  0.00    -0.075 Cl
ATOM     17  C   UNL d   1     -49.410  27.858  33.322  0.00  0.00     0.019 A 
ATOM     18  C   UNL d   1     -49.676  27.087  33.319  0.00  0.00     0.013 A 
ENDBRANCH  11  13
ENDBRANCH   5  10
TORSDOF 2
ENDMDL
