MODEL 1
REMARK VINA RESULT:     115.4      0.000      0.000
REMARK  4 active torsions:
REMARK  status: ('A' for Active; 'I' for Inactive)
REMARK    1  A    between atoms: O_7  and  C_2 
REMARK    2  A    between atoms: C_13  and  C_3 
REMARK    3  A    between atoms: C_11  and  O_7 
REMARK    4  A    between atoms: O_25  and  C_20 
ROOT
ATOM      1  C   UNL d   1      60.533  48.905  51.830  0.00  0.00     0.066 A 
ATOM      2  C   UNL d   1      60.974  48.393  51.365  0.00  0.00     0.186 A 
ATOM      3  C   UNL d   1      59.762  49.242  51.748  0.00  0.00     0.012 A 
ATOM      4  C   UNL d   1      59.638  49.704  52.388  0.00  0.00     0.037 A 
ATOM      5  C   UNL d   1      60.855  49.189  52.545  0.00  0.00     0.116 A 
ATOM      6  S   UNL d   1      60.291  49.695  52.901  0.00  0.00    -0.067 SA
ATOM      7  N   UNL d   1      61.727  48.168  51.614  0.00  0.00    -0.200 NA
ATOM      8  N   UNL d   1      61.609  48.963  52.794  0.00  0.00    -0.217 NA
ATOM      9  C   UNL d   1      62.041  48.455  52.327  0.00  0.00     0.201 A 
ENDROOT
BRANCH   2  10
ATOM     10  O   UNL d   1      60.659  48.102  50.644  0.00  0.00    -0.288 OA
BRANCH  10  11
ATOM     11  C   UNL d   1      61.131  47.627  50.122  0.00  0.00     0.119 A 
ATOM     12  C   UNL d   1      61.132  46.801  50.136  0.00  0.00     0.104 A 
ATOM     13  N   UNL d   1      60.641  46.402  50.696  0.00  0.00    -0.244 NA
ATOM     14  C   UNL d   1      61.600  46.371  49.618  0.00  0.00     0.020 A 
ATOM     15  C   UNL d   1      60.642  45.577  50.710  0.00  0.00     0.082 A 
ATOM     16  C   UNL d   1      60.154  45.140  51.267  0.00  0.00     0.021 C 
ATOM     17  C   UNL d   1      61.110  45.147  50.192  0.00  0.00     0.019 A 
ATOM     18  C   UNL d   1      61.593  45.527  49.642  0.00  0.00     0.003 A 
ATOM     19  C   UNL d   1      62.083  46.751  49.068  0.00  0.00     0.002 A 
ATOM     20  C   UNL d   1      62.082  47.576  49.054  0.00  0.00     0.002 A 
ATOM     21  C   UNL d   1      61.614  48.006  49.572  0.00  0.00     0.026 A 
ENDBRANCH  10  11
ENDBRANCH   2  10
BRANCH   3  22
ATOM     22  C   UNL d   1      59.233  49.123  51.129  0.00  0.00     0.001 A 
ATOM     23  C   UNL d   1      58.735  48.458  51.096  0.00  0.00     0.002 A 
ATOM     24  C   UNL d   1      58.215  48.364  50.464  0.00  0.00     0.024 A 
ATOM     25  C   UNL d   1      58.193  48.946  49.858  0.00  0.00     0.094 A 
ATOM     26  C   UNL d   1      58.697  49.612  49.900  0.00  0.00     0.024 A 
ATOM     27  C   UNL d   1      59.218  49.705  50.532  0.00  0.00     0.002 A 
BRANCH  25  28
ATOM     28  O   UNL d   1      57.678  48.903  49.183  0.00  0.00    -0.328 OA
ATOM     29  C   UNL d   1      57.064  49.450  49.113  0.00  0.00     0.181 C 
ENDBRANCH  25  28
ENDBRANCH   3  22
TORSDOF 4
ENDMDL
