MODEL 1
REMARK VINA RESULT:      -5.1      0.000      0.000
REMARK  2 active torsions:
REMARK  status: ('A' for Active; 'I' for Inactive)
REMARK    1  A    between atoms: C_7  and  C_2 
REMARK    2  A    between atoms: C_5  and  C_7 
ROOT
ATOM      1  C   UNL d   1      57.003  -0.115  32.116  0.00  0.00     0.021 A 
ATOM      2  N   UNL d   1      56.264  -1.212  32.191  0.00  0.00    -0.244 NA
ATOM      3  C   UNL d   1      56.918  -0.876  31.823  0.00  0.00     0.099 A 
ATOM      4  C   UNL d   1      56.408   0.020  32.660  0.00  0.00     0.019 A 
ATOM      5  C   UNL d   1      55.949  -0.659  32.708  0.00  0.00     0.081 A 
ATOM      6  C   UNL d   1      56.220   0.681  33.126  0.00  0.00     0.002 A 
ATOM      7  C   UNL d   1      55.300  -0.686  33.220  0.00  0.00     0.019 A 
ATOM      8  C   UNL d   1      55.573   0.660  33.637  0.00  0.00     0.000 A 
ATOM      9  C   UNL d   1      55.112  -0.025  33.685  0.00  0.00     0.002 A 
ENDROOT
BRANCH   1  10
ATOM     10  C   UNL d   1      57.596   0.421  31.891  0.00  0.00     0.011 C 
BRANCH  10  11
ATOM     11  C   UNL d   1      57.849   0.448  31.107  0.00  0.00     0.062 A 
ATOM     12  C   UNL d   1      58.647   0.574  30.939  0.00  0.00     0.145 A 
ATOM     13  N   UNL d   1      58.730   0.573  30.118  0.00  0.00    -0.191 NA
ATOM     14  S   UNL d   1      59.258   0.682  31.498  0.00  0.00    -0.057 SA
ATOM     15  C   UNL d   1      58.003   0.450  29.782  0.00  0.00     0.311 A 
ATOM     16  S   UNL d   1      57.452   0.372  30.392  0.00  0.00    -0.023 SA
ATOM     17  O   UNL d   1      57.849   0.411  28.964  0.00  0.00    -0.258 OA
ENDBRANCH  10  11
ENDBRANCH   1  10
TORSDOF 2
ENDMDL
MODEL 2
REMARK VINA RESULT:      -4.8      2.339      3.636
REMARK  2 active torsions:
REMARK  status: ('A' for Active; 'I' for Inactive)
REMARK    1  A    between atoms: C_7  and  C_2 
REMARK    2  A    between atoms: C_5  and  C_7 
ROOT
ATOM      1  C   UNL d   1      56.683  -0.081  32.635  0.00  0.00     0.021 A 
ATOM      2  N   UNL d   1      56.534  -1.155  31.875  0.00  0.00    -0.244 NA
ATOM      3  C   UNL d   1      56.323  -0.816  32.593  0.00  0.00     0.099 A 
ATOM      4  C   UNL d   1      57.113   0.035  31.949  0.00  0.00     0.019 A 
ATOM      5  C   UNL d   1      57.021  -0.630  31.477  0.00  0.00     0.081 A 
ATOM      6  C   UNL d   1      57.582   0.667  31.687  0.00  0.00     0.002 A 
ATOM      7  C   UNL d   1      57.396  -0.671  30.740  0.00  0.00     0.019 A 
ATOM      8  C   UNL d   1      57.959   0.632  30.955  0.00  0.00     0.000 A 
ATOM      9  C   UNL d   1      57.866  -0.038  30.479  0.00  0.00     0.002 A 
ENDROOT
BRANCH   1  10
ATOM     10  C   UNL d   1      56.617   0.449  33.270  0.00  0.00     0.011 C 
BRANCH  10  11
ATOM     11  C   UNL d   1      55.900   0.520  33.672  0.00  0.00     0.062 A 
ATOM     12  C   UNL d   1      55.900   0.631  34.490  0.00  0.00     0.145 A 
ATOM     13  N   UNL d   1      55.112   0.682  34.732  0.00  0.00    -0.191 NA
ATOM     14  S   UNL d   1      56.572   0.681  34.982  0.00  0.00    -0.057 SA
ATOM     15  C   UNL d   1      54.634   0.606  34.081  0.00  0.00     0.311 A 
ATOM     16  S   UNL d   1      55.118   0.505  33.421  0.00  0.00    -0.023 SA
ATOM     17  O   UNL d   1      53.800   0.626  34.090  0.00  0.00    -0.258 OA
ENDBRANCH  10  11
ENDBRANCH   1  10
TORSDOF 2
ENDMDL
MODEL 3
REMARK VINA RESULT:      -4.6      0.936      1.225
REMARK  2 active torsions:
REMARK  status: ('A' for Active; 'I' for Inactive)
REMARK    1  A    between atoms: C_7  and  C_2 
REMARK    2  A    between atoms: C_5  and  C_7 
ROOT
ATOM      1  C   UNL d   1      56.866  -0.091  31.649  0.00  0.00     0.021 A 
ATOM      2  N   UNL d   1      56.642  -1.285  32.177  0.00  0.00    -0.244 NA
ATOM      3  C   UNL d   1      57.042  -0.889  31.578  0.00  0.00     0.099 A 
ATOM      4  C   UNL d   1      56.362   0.006  32.286  0.00  0.00     0.019 A 
ATOM      5  C   UNL d   1      56.222  -0.733  32.614  0.00  0.00     0.081 A 
ATOM      6  C   UNL d   1      56.007   0.680  32.615  0.00  0.00     0.002 A 
ATOM      7  C   UNL d   1      55.727  -0.808  33.272  0.00  0.00     0.019 A 
ATOM      8  C   UNL d   1      55.512   0.612  33.271  0.00  0.00     0.000 A 
ATOM      9  C   UNL d   1      55.371  -0.134  33.602  0.00  0.00     0.002 A 
ENDROOT
BRANCH   1  10
ATOM     10  C   UNL d   1      57.156   0.509  31.154  0.00  0.00     0.011 C 
BRANCH  10  11
ATOM     11  C   UNL d   1      57.966   0.564  31.007  0.00  0.00     0.062 A 
ATOM     12  C   UNL d   1      58.236   0.639  30.231  0.00  0.00     0.145 A 
ATOM     13  N   UNL d   1      59.060   0.681  30.258  0.00  0.00    -0.191 NA
ATOM     14  S   UNL d   1      57.762   0.668  29.543  0.00  0.00    -0.057 SA
ATOM     15  C   UNL d   1      59.297   0.633  31.032  0.00  0.00     0.311 A 
ATOM     16  S   UNL d   1      58.622   0.560  31.501  0.00  0.00    -0.023 SA
ATOM     17  O   UNL d   1      60.088   0.655  31.297  0.00  0.00    -0.258 OA
ENDBRANCH  10  11
ENDBRANCH   1  10
TORSDOF 2
ENDMDL
MODEL 4
REMARK VINA RESULT:      -4.5      1.299      1.790
REMARK  2 active torsions:
REMARK  status: ('A' for Active; 'I' for Inactive)
REMARK    1  A    between atoms: C_7  and  C_2 
REMARK    2  A    between atoms: C_5  and  C_7 
ROOT
ATOM      1  C   UNL d   1      57.462  -0.400  31.220  0.00  0.00     0.021 A 
ATOM      2  N   UNL d   1      57.352   0.681  31.977  0.00  0.00    -0.244 NA
ATOM      3  C   UNL d   1      57.729   0.369  31.318  0.00  0.00     0.099 A 
ATOM      4  C   UNL d   1      56.924  -0.563  31.814  0.00  0.00     0.019 A 
ATOM      5  C   UNL d   1      56.854   0.106  32.284  0.00  0.00     0.081 A 
ATOM      6  C   UNL d   1      56.481  -1.242  31.991  0.00  0.00     0.002 A 
ATOM      7  C   UNL d   1      56.344   0.105  32.935  0.00  0.00     0.019 A 
ATOM      8  C   UNL d   1      55.970  -1.250  32.638  0.00  0.00     0.000 A 
ATOM      9  C   UNL d   1      55.901  -0.575  33.112  0.00  0.00     0.002 A 
ENDROOT
BRANCH   1  10
ATOM     10  C   UNL d   1      57.703  -0.918  30.617  0.00  0.00     0.011 C 
BRANCH  10  11
ATOM     11  C   UNL d   1      58.180  -0.640  30.004  0.00  0.00     0.062 A 
ATOM     12  C   UNL d   1      58.576  -1.178  29.520  0.00  0.00     0.145 A 
ATOM     13  N   UNL d   1      59.004  -0.741  28.964  0.00  0.00    -0.191 NA
ATOM     14  S   UNL d   1      58.550  -2.010  29.581  0.00  0.00    -0.057 SA
ATOM     15  C   UNL d   1      58.877   0.048  29.099  0.00  0.00     0.311 A 
ATOM     16  S   UNL d   1      58.366   0.116  29.744  0.00  0.00    -0.023 SA
ATOM     17  O   UNL d   1      59.209   0.672  28.658  0.00  0.00    -0.258 OA
ENDBRANCH  10  11
ENDBRANCH   1  10
TORSDOF 2
ENDMDL
MODEL 5
REMARK VINA RESULT:      -3.5      9.397     10.051
REMARK  2 active torsions:
REMARK  status: ('A' for Active; 'I' for Inactive)
REMARK    1  A    between atoms: C_7  and  C_2 
REMARK    2  A    between atoms: C_5  and  C_7 
ROOT
ATOM      1  C   UNL d   1      59.904  -9.213  34.490  0.00  0.00     0.021 A 
ATOM      2  N   UNL d   1      60.905  -9.323  35.351  0.00  0.00    -0.244 NA
ATOM      3  C   UNL d   1      60.577  -9.645  34.670  0.00  0.00     0.099 A 
ATOM      4  C   UNL d   1      59.816  -8.627  35.055  0.00  0.00     0.019 A 
ATOM      5  C   UNL d   1      60.436  -8.694  35.589  0.00  0.00     0.081 A 
ATOM      6  C   UNL d   1      59.245  -8.034  35.154  0.00  0.00     0.002 A 
ATOM      7  C   UNL d   1      60.492  -8.171  36.227  0.00  0.00     0.019 A 
ATOM      8  C   UNL d   1      59.296  -7.509  35.788  0.00  0.00     0.000 A 
ATOM      9  C   UNL d   1      59.920  -7.576  36.326  0.00  0.00     0.002 A 
ENDROOT
BRANCH   1  10
ATOM     10  C   UNL d   1      59.404  -9.353  33.843  0.00  0.00     0.011 C 
BRANCH  10  11
ATOM     11  C   UNL d   1      59.727  -9.495  33.098  0.00  0.00     0.062 A 
ATOM     12  C   UNL d   1      59.234  -9.716  32.474  0.00  0.00     0.145 A 
ATOM     13  N   UNL d   1      59.710  -9.818  31.807  0.00  0.00    -0.191 NA
ATOM     14  S   UNL d   1      58.406  -9.818  32.511  0.00  0.00    -0.057 SA
ATOM     15  C   UNL d   1      60.480  -9.664  32.010  0.00  0.00     0.311 A 
ATOM     16  S   UNL d   1      60.496  -9.463  32.810  0.00  0.00    -0.023 SA
ATOM     17  O   UNL d   1      61.133  -9.705  31.493  0.00  0.00    -0.258 OA
ENDBRANCH  10  11
ENDBRANCH   1  10
TORSDOF 2
ENDMDL
MODEL 6
REMARK VINA RESULT:      -3.3      9.836     10.410
REMARK  2 active torsions:
REMARK  status: ('A' for Active; 'I' for Inactive)
REMARK    1  A    between atoms: C_7  and  C_2 
REMARK    2  A    between atoms: C_5  and  C_7 
ROOT
ATOM      1  C   UNL d   1      59.838  -9.479  33.751  0.00  0.00     0.021 A 
ATOM      2  N   UNL d   1      60.660  -9.484  32.712  0.00  0.00    -0.244 NA
ATOM      3  C   UNL d   1      60.624  -9.409  33.530  0.00  0.00     0.099 A 
ATOM      4  C   UNL d   1      59.390  -9.597  33.076  0.00  0.00     0.019 A 
ATOM      5  C   UNL d   1      59.899  -9.600  32.432  0.00  0.00     0.081 A 
ATOM      6  C   UNL d   1      58.575  -9.704  32.962  0.00  0.00     0.002 A 
ATOM      7  C   UNL d   1      59.600  -9.710  31.668  0.00  0.00     0.019 A 
ATOM      8  C   UNL d   1      58.271  -9.813  32.204  0.00  0.00     0.000 A 
ATOM      9  C   UNL d   1      58.784  -9.816  31.554  0.00  0.00     0.002 A 
ENDROOT
BRANCH   1  10
ATOM     10  C   UNL d   1      59.554  -9.437  34.530  0.00  0.00     0.011 C 
BRANCH  10  11
ATOM     11  C   UNL d   1      59.911  -8.926  35.069  0.00  0.00     0.062 A 
ATOM     12  C   UNL d   1      59.814  -9.054  35.879  0.00  0.00     0.145 A 
ATOM     13  N   UNL d   1      60.230  -8.460  36.274  0.00  0.00    -0.191 NA
ATOM     14  S   UNL d   1      59.376  -9.670  36.233  0.00  0.00    -0.057 SA
ATOM     15  C   UNL d   1      60.577  -7.975  35.725  0.00  0.00     0.311 A 
ATOM     16  S   UNL d   1      60.382  -8.259  34.975  0.00  0.00    -0.023 SA
ATOM     17  O   UNL d   1      61.047  -7.308  35.898  0.00  0.00    -0.258 OA
ENDBRANCH  10  11
ENDBRANCH   1  10
TORSDOF 2
ENDMDL
MODEL 7
REMARK VINA RESULT:      -2.7     10.139     10.388
REMARK  2 active torsions:
REMARK  status: ('A' for Active; 'I' for Inactive)
REMARK    1  A    between atoms: C_7  and  C_2 
REMARK    2  A    between atoms: C_5  and  C_7 
ROOT
ATOM      1  C   UNL d   1      58.682  -9.817  31.869  0.00  0.00     0.021 A 
ATOM      2  N   UNL d   1      57.359  -9.818  31.824  0.00  0.00    -0.244 NA
ATOM      3  C   UNL d   1      58.005  -9.818  32.332  0.00  0.00     0.099 A 
ATOM      4  C   UNL d   1      58.458  -9.817  31.083  0.00  0.00     0.019 A 
ATOM      5  C   UNL d   1      57.637  -9.817  31.054  0.00  0.00     0.081 A 
ATOM      6  C   UNL d   1      58.898  -9.816  30.379  0.00  0.00     0.002 A 
ATOM      7  C   UNL d   1      57.248  -9.817  30.324  0.00  0.00     0.019 A 
ATOM      8  C   UNL d   1      58.516  -9.816  29.649  0.00  0.00     0.000 A 
ATOM      9  C   UNL d   1      57.689  -9.817  29.620  0.00  0.00     0.002 A 
ENDROOT
BRANCH   1  10
ATOM     10  C   UNL d   1      59.460  -9.817  32.160  0.00  0.00     0.011 C 
BRANCH  10  11
ATOM     11  C   UNL d   1      59.604  -9.628  32.949  0.00  0.00     0.062 A 
ATOM     12  C   UNL d   1      60.380  -9.576  33.222  0.00  0.00     0.145 A 
ATOM     13  N   UNL d   1      60.348  -9.380  34.024  0.00  0.00    -0.191 NA
ATOM     14  S   UNL d   1      61.072  -9.698  32.771  0.00  0.00    -0.057 SA
ATOM     15  C   UNL d   1      59.571  -9.312  34.244  0.00  0.00     0.311 A 
ATOM     16  S   UNL d   1      59.104  -9.465  33.581  0.00  0.00    -0.023 SA
ATOM     17  O   UNL d   1      59.301  -9.121  35.010  0.00  0.00    -0.258 OA
ENDBRANCH  10  11
ENDBRANCH   1  10
TORSDOF 2
ENDMDL
MODEL 8
REMARK VINA RESULT:      -2.3      2.097      2.944
REMARK  2 active torsions:
REMARK  status: ('A' for Active; 'I' for Inactive)
REMARK    1  A    between atoms: C_7  and  C_2 
REMARK    2  A    between atoms: C_5  and  C_7 
ROOT
ATOM      1  C   UNL d   1      58.673   0.234  29.951  0.00  0.00     0.021 A 
ATOM      2  N   UNL d   1      57.411   0.482  29.636  0.00  0.00    -0.244 NA
ATOM      3  C   UNL d   1      58.150   0.303  29.324  0.00  0.00     0.099 A 
ATOM      4  C   UNL d   1      58.262   0.367  30.646  0.00  0.00     0.019 A 
ATOM      5  C   UNL d   1      57.480   0.521  30.451  0.00  0.00     0.081 A 
ATOM      6  C   UNL d   1      58.500   0.369  31.441  0.00  0.00     0.002 A 
ATOM      7  C   UNL d   1      56.928   0.678  31.047  0.00  0.00     0.019 A 
ATOM      8  C   UNL d   1      57.955   0.525  32.039  0.00  0.00     0.000 A 
ATOM      9  C   UNL d   1      57.166   0.680  31.843  0.00  0.00     0.002 A 
ENDROOT
BRANCH   1  10
ATOM     10  C   UNL d   1      59.482   0.057  29.884  0.00  0.00     0.011 C 
BRANCH  10  11
ATOM     11  C   UNL d   1      59.722  -0.615  29.470  0.00  0.00     0.062 A 
ATOM     12  C   UNL d   1      60.511  -0.696  29.244  0.00  0.00     0.145 A 
ATOM     13  N   UNL d   1      60.582  -1.415  28.844  0.00  0.00    -0.191 NA
ATOM     14  S   UNL d   1      61.126  -0.150  29.394  0.00  0.00    -0.057 SA
ATOM     15  C   UNL d   1      59.855  -1.773  28.821  0.00  0.00     0.311 A 
ATOM     16  S   UNL d   1      59.317  -1.280  29.208  0.00  0.00    -0.023 SA
ATOM     17  O   UNL d   1      59.690  -2.509  28.466  0.00  0.00    -0.258 OA
ENDBRANCH  10  11
ENDBRANCH   1  10
TORSDOF 2
ENDMDL
MODEL 9
REMARK VINA RESULT:      -2.2      3.748      4.790
REMARK  2 active torsions:
REMARK  status: ('A' for Active; 'I' for Inactive)
REMARK    1  A    between atoms: C_7  and  C_2 
REMARK    2  A    between atoms: C_5  and  C_7 
ROOT
ATOM      1  C   UNL d   1      59.338  -1.327  28.977  0.00  0.00     0.021 A 
ATOM      2  N   UNL d   1      58.362  -0.630  29.539  0.00  0.00    -0.244 NA
ATOM      3  C   UNL d   1      58.526  -1.296  29.086  0.00  0.00     0.099 A 
ATOM      4  C   UNL d   1      59.675  -0.687  29.358  0.00  0.00     0.019 A 
ATOM      5  C   UNL d   1      59.071  -0.254  29.707  0.00  0.00     0.081 A 
ATOM      6  C   UNL d   1      60.462  -0.437  29.436  0.00  0.00     0.002 A 
ATOM      7  C   UNL d   1      59.246   0.432  30.136  0.00  0.00     0.019 A 
ATOM      8  C   UNL d   1      60.643   0.246  29.862  0.00  0.00     0.000 A 
ATOM      9  C   UNL d   1      60.034   0.682  30.213  0.00  0.00     0.002 A 
ENDROOT
BRANCH   1  10
ATOM     10  C   UNL d   1      59.741  -1.913  28.549  0.00  0.00     0.011 C 
BRANCH  10  11
ATOM     11  C   UNL d   1      59.443  -2.682  28.524  0.00  0.00     0.062 A 
ATOM     12  C   UNL d   1      59.962  -3.321  28.479  0.00  0.00     0.145 A 
ATOM     13  N   UNL d   1      59.506  -4.009  28.462  0.00  0.00    -0.191 NA
ATOM     14  S   UNL d   1      60.796  -3.279  28.455  0.00  0.00    -0.057 SA
ATOM     15  C   UNL d   1      58.722  -3.804  28.496  0.00  0.00     0.311 A 
ATOM     16  S   UNL d   1      58.677  -2.980  28.534  0.00  0.00    -0.023 SA
ATOM     17  O   UNL d   1      58.083  -4.338  28.491  0.00  0.00    -0.258 OA
ENDBRANCH  10  11
ENDBRANCH   1  10
TORSDOF 2
ENDMDL
