MODEL 1
REMARK VINA RESULT:      -1.4      0.000      0.000
REMARK  4 active torsions:
REMARK  status: ('A' for Active; 'I' for Inactive)
REMARK    1  A    between atoms: C_7  and  C_1 
REMARK    2  A    between atoms: C_6  and  N_2 
REMARK    3  A    between atoms: C_8  and  C_6 
REMARK    4  A    between atoms: C_9  and  C_7 
ROOT
ATOM      1  C   UNL d   1      32.995  20.458 -23.219  0.00  0.00     0.148 A 
ATOM      2  N   UNL d   1      33.039  21.050 -22.696  0.00  0.00    -0.289 N 
ATOM      3  N   UNL d   1      33.029  20.705 -23.968  0.00  0.00    -0.227 NA
ATOM      4  C   UNL d   1      33.111  21.779 -23.150  0.00  0.00     0.083 A 
ATOM      5  C   UNL d   1      33.105  21.570 -23.920  0.00  0.00     0.099 A 
ATOM      6  C   UNL d   1      33.178  22.566 -22.963  0.00  0.00     0.019 A 
ATOM      7  C   UNL d   1      33.165  22.134 -24.555  0.00  0.00     0.021 A 
ATOM      8  C   UNL d   1      33.239  23.152 -23.523  0.00  0.00     0.002 A 
ATOM      9  C   UNL d   1      33.233  22.943 -24.294  0.00  0.00     0.002 A 
ENDROOT
BRANCH   2  10
ATOM     10  C   UNL d   1      33.010  20.862 -21.926  0.00  0.00     0.082 C 
BRANCH  10  11
ATOM     11  C   UNL d   1      32.716  21.363 -21.372  0.00  0.00     0.018 A 
ATOM     12  C   UNL d   1      33.241  21.847 -20.958  0.00  0.00     0.002 A 
ATOM     13  C   UNL d   1      32.974  22.384 -20.372  0.00  0.00     0.000 A 
ATOM     14  C   UNL d   1      32.148  22.406 -20.226  0.00  0.00     0.000 A 
ATOM     15  C   UNL d   1      31.623  21.922 -20.640  0.00  0.00     0.000 A 
ATOM     16  C   UNL d   1      31.877  22.944 -19.638  0.00  0.00     0.000 C 
ATOM     17  C   UNL d   1      31.925  21.417 -21.200  0.00  0.00     0.002 A 
ENDBRANCH  10  11
ENDBRANCH   2  10
BRANCH   1  18
ATOM     18  C   UNL d   1      32.936  19.903 -22.640  0.00  0.00     0.037 C 
BRANCH  18  19
ATOM     19  C   UNL d   1      32.834  19.111 -22.851  0.00  0.00     0.003 A 
ATOM     20  C   UNL d   1      32.326  18.911 -23.472  0.00  0.00     0.000 A 
ATOM     21  C   UNL d   1      32.224  18.120 -23.683  0.00  0.00     0.000 A 
ATOM     22  C   UNL d   1      32.630  17.528 -23.276  0.00  0.00     0.000 A 
ATOM     23  C   UNL d   1      33.149  17.710 -22.644  0.00  0.00     0.000 A 
ATOM     24  C   UNL d   1      33.240  18.519 -22.444  0.00  0.00     0.000 A 
ENDBRANCH  18  19
ENDBRANCH   1  18
TORSDOF 4
ENDMDL
MODEL 2
REMARK VINA RESULT:       0.9      1.849      5.102
REMARK  4 active torsions:
REMARK  status: ('A' for Active; 'I' for Inactive)
REMARK    1  A    between atoms: C_7  and  C_1 
REMARK    2  A    between atoms: C_6  and  N_2 
REMARK    3  A    between atoms: C_8  and  C_6 
REMARK    4  A    between atoms: C_9  and  C_7 
ROOT
ATOM      1  C   UNL d   1      32.624  18.236 -23.097  0.00  0.00     0.148 A 
ATOM      2  N   UNL d   1      32.273  17.778 -23.639  0.00  0.00    -0.289 N 
ATOM      3  N   UNL d   1      33.030  17.821 -22.561  0.00  0.00    -0.227 NA
ATOM      4  C   UNL d   1      32.467  16.963 -23.441  0.00  0.00     0.083 A 
ATOM      5  C   UNL d   1      32.926  16.989 -22.789  0.00  0.00     0.099 A 
ATOM      6  C   UNL d   1      32.290  16.238 -23.761  0.00  0.00     0.019 A 
ATOM      7  C   UNL d   1      33.238  16.291 -22.412  0.00  0.00     0.021 A 
ATOM      8  C   UNL d   1      32.558  15.537 -23.448  0.00  0.00     0.002 A 
ATOM      9  C   UNL d   1      33.016  15.563 -22.796  0.00  0.00     0.002 A 
ENDROOT
BRANCH   2  10
ATOM     10  C   UNL d   1      31.850  18.140 -24.204  0.00  0.00     0.082 C 
BRANCH  10  11
ATOM     11  C   UNL d   1      31.119  17.887 -24.421  0.00  0.00     0.018 A 
ATOM     12  C   UNL d   1      30.462  18.327 -24.185  0.00  0.00     0.002 A 
ATOM     13  C   UNL d   1      29.683  18.098 -24.392  0.00  0.00     0.000 A 
ATOM     14  C   UNL d   1      29.602  17.399 -24.849  0.00  0.00     0.000 A 
ATOM     15  C   UNL d   1      30.259  16.959 -25.085  0.00  0.00     0.000 A 
ATOM     16  C   UNL d   1      28.820  17.166 -25.058  0.00  0.00     0.000 C 
ATOM     17  C   UNL d   1      30.996  17.218 -24.863  0.00  0.00     0.002 A 
ENDBRANCH  10  11
ENDBRANCH   2  10
BRANCH   1  18
ATOM     18  C   UNL d   1      32.343  18.911 -23.431  0.00  0.00     0.037 C 
BRANCH  18  19
ATOM     19  C   UNL d   1      32.550  19.639 -23.101  0.00  0.00     0.003 A 
ATOM     20  C   UNL d   1      33.029  20.163 -23.523  0.00  0.00     0.000 A 
ATOM     21  C   UNL d   1      33.236  20.891 -23.192  0.00  0.00     0.000 A 
ATOM     22  C   UNL d   1      32.964  21.095 -22.440  0.00  0.00     0.000 A 
ATOM     23  C   UNL d   1      32.477  20.577 -21.997  0.00  0.00     0.000 A 
ATOM     24  C   UNL d   1      32.278  19.843 -22.349  0.00  0.00     0.000 A 
ENDBRANCH  18  19
ENDBRANCH   1  18
TORSDOF 4
ENDMDL
MODEL 3
REMARK VINA RESULT:       1.0      2.678      5.064
REMARK  4 active torsions:
REMARK  status: ('A' for Active; 'I' for Inactive)
REMARK    1  A    between atoms: C_7  and  C_1 
REMARK    2  A    between atoms: C_6  and  N_2 
REMARK    3  A    between atoms: C_8  and  C_6 
REMARK    4  A    between atoms: C_9  and  C_7 
ROOT
ATOM      1  C   UNL d   1      30.770  16.619 -23.954  0.00  0.00     0.148 A 
ATOM      2  N   UNL d   1      31.410  17.084 -23.973  0.00  0.00    -0.289 N 
ATOM      3  N   UNL d   1      30.878  15.963 -23.527  0.00  0.00    -0.227 NA
ATOM      4  C   UNL d   1      32.017  16.691 -23.505  0.00  0.00     0.083 A 
ATOM      5  C   UNL d   1      31.695  16.013 -23.235  0.00  0.00     0.099 A 
ATOM      6  C   UNL d   1      32.785  16.862 -23.303  0.00  0.00     0.019 A 
ATOM      7  C   UNL d   1      32.119  15.460 -22.744  0.00  0.00     0.021 A 
ATOM      8  C   UNL d   1      33.241  16.375 -22.838  0.00  0.00     0.002 A 
ATOM      9  C   UNL d   1      32.919  15.697 -22.568  0.00  0.00     0.002 A 
ENDROOT
BRANCH   2  10
ATOM     10  C   UNL d   1      31.361  17.758 -24.387  0.00  0.00     0.082 C 
BRANCH  10  11
ATOM     11  C   UNL d   1      31.808  18.402 -24.214  0.00  0.00     0.018 A 
ATOM     12  C   UNL d   1      32.418  18.610 -24.730  0.00  0.00     0.002 A 
ATOM     13  C   UNL d   1      32.908  19.275 -24.586  0.00  0.00     0.000 A 
ATOM     14  C   UNL d   1      32.749  19.719 -23.891  0.00  0.00     0.000 A 
ATOM     15  C   UNL d   1      32.140  19.511 -23.376  0.00  0.00     0.000 A 
ATOM     16  C   UNL d   1      33.240  20.387 -23.744  0.00  0.00     0.000 C 
ATOM     17  C   UNL d   1      31.690  18.859 -23.554  0.00  0.00     0.002 A 
ENDBRANCH  10  11
ENDBRANCH   2  10
BRANCH   1  18
ATOM     18  C   UNL d   1      30.346  17.123 -24.415  0.00  0.00     0.037 C 
BRANCH  18  19
ATOM     19  C   UNL d   1      29.522  17.059 -24.428  0.00  0.00     0.003 A 
ATOM     20  C   UNL d   1      29.146  16.695 -25.067  0.00  0.00     0.000 A 
ATOM     21  C   UNL d   1      28.323  16.631 -25.080  0.00  0.00     0.000 A 
ATOM     22  C   UNL d   1      27.876  16.931 -24.455  0.00  0.00     0.000 A 
ATOM     23  C   UNL d   1      28.238  17.304 -23.798  0.00  0.00     0.000 A 
ATOM     24  C   UNL d   1      29.075  17.359 -23.803  0.00  0.00     0.000 A 
ENDBRANCH  18  19
ENDBRANCH   1  18
TORSDOF 4
ENDMDL
MODEL 4
REMARK VINA RESULT:       1.4      4.115      5.656
REMARK  4 active torsions:
REMARK  status: ('A' for Active; 'I' for Inactive)
REMARK    1  A    between atoms: C_7  and  C_1 
REMARK    2  A    between atoms: C_6  and  N_2 
REMARK    3  A    between atoms: C_8  and  C_6 
REMARK    4  A    between atoms: C_9  and  C_7 
ROOT
ATOM      1  C   UNL d   1      29.728  17.171 -24.344  0.00  0.00     0.148 A 
ATOM      2  N   UNL d   1      30.491  16.975 -24.422  0.00  0.00    -0.289 N 
ATOM      3  N   UNL d   1      29.588  17.932 -24.502  0.00  0.00    -0.227 NA
ATOM      4  C   UNL d   1      30.909  17.689 -24.661  0.00  0.00     0.083 A 
ATOM      5  C   UNL d   1      30.363  18.268 -24.709  0.00  0.00     0.099 A 
ATOM      6  C   UNL d   1      31.682  17.871 -24.831  0.00  0.00     0.019 A 
ATOM      7  C   UNL d   1      30.552  19.069 -24.932  0.00  0.00     0.021 A 
ATOM      8  C   UNL d   1      31.926  18.615 -25.048  0.00  0.00     0.002 A 
ATOM      9  C   UNL d   1      31.379  19.194 -25.097  0.00  0.00     0.002 A 
ENDROOT
BRANCH   2  10
ATOM     10  C   UNL d   1      30.691  16.222 -24.275  0.00  0.00     0.082 C 
BRANCH  10  11
ATOM     11  C   UNL d   1      31.322  16.027 -23.817  0.00  0.00     0.018 A 
ATOM     12  C   UNL d   1      31.295  16.203 -23.011  0.00  0.00     0.002 A 
ATOM     13  C   UNL d   1      31.932  16.016 -22.500  0.00  0.00     0.000 A 
ATOM     14  C   UNL d   1      32.598  15.642 -22.845  0.00  0.00     0.000 A 
ATOM     15  C   UNL d   1      32.626  15.466 -23.651  0.00  0.00     0.000 A 
ATOM     16  C   UNL d   1      33.240  15.453 -22.333  0.00  0.00     0.000 C 
ATOM     17  C   UNL d   1      31.986  15.665 -24.110  0.00  0.00     0.002 A 
ENDBRANCH  10  11
ENDBRANCH   2  10
BRANCH   1  18
ATOM     18  C   UNL d   1      29.520  16.424 -24.131  0.00  0.00     0.037 C 
BRANCH  18  19
ATOM     19  C   UNL d   1      28.740  16.273 -23.905  0.00  0.00     0.003 A 
ATOM     20  C   UNL d   1      28.405  16.688 -23.273  0.00  0.00     0.000 A 
ATOM     21  C   UNL d   1      27.626  16.538 -23.047  0.00  0.00     0.000 A 
ATOM     22  C   UNL d   1      27.180  15.974 -23.452  0.00  0.00     0.000 A 
ATOM     23  C   UNL d   1      27.501  15.542 -24.095  0.00  0.00     0.000 A 
ATOM     24  C   UNL d   1      28.295  15.709 -24.310  0.00  0.00     0.000 A 
ENDBRANCH  18  19
ENDBRANCH   1  18
TORSDOF 4
ENDMDL
