MODEL 1
REMARK VINA RESULT:      11.8      0.000      0.000
REMARK  7 active torsions:
REMARK  status: ('A' for Active; 'I' for Inactive)
REMARK    1  A    between atoms: C_2  and  S_1 
REMARK    2  A    between atoms: N_8  and  S_1 
REMARK    3  A    between atoms: C_13  and  N_8 
REMARK    4  A    between atoms: N_9  and  C_14 
REMARK    5  A    between atoms: O_15  and  C_10 
REMARK    6  A    between atoms: C_14  and  C_13 
REMARK    7  A    between atoms: C_22  and  O_15 
ROOT
ATOM      1  C   UNL d   1      46.215 -17.960  43.668  0.00  0.00     0.105 A 
ATOM      2  C   UNL d   1      46.285 -18.737  43.908  0.00  0.00     0.014 A 
ATOM      3  C   UNL d   1      46.427 -19.332  43.355  0.00  0.00     0.024 A 
ATOM      4  C   UNL d   1      46.288 -17.768  42.865  0.00  0.00     0.015 A 
ATOM      5  C   UNL d   1      46.500 -19.151  42.562  0.00  0.00     0.100 A 
ATOM      6  C   UNL d   1      46.430 -18.363  42.312  0.00  0.00     0.025 A 
ATOM      7  C   UNL d   1      46.212 -18.925  44.707  0.00  0.00     0.001 A 
ATOM      8  C   UNL d   1      46.497 -20.116  43.602  0.00  0.00     0.002 A 
ATOM      9  C   UNL d   1      46.282 -19.710  44.955  0.00  0.00     0.000 A 
ATOM     10  C   UNL d   1      46.424 -20.305  44.402  0.00  0.00     0.000 A 
ENDROOT
BRANCH   1  11
ATOM     11  S   UNL d   1      46.072 -17.364  44.221  0.00  0.00     0.285 S 
ATOM     12  O   UNL d   1      45.687 -17.913  44.713  0.00  0.00    -0.198 OA
ATOM     13  O   UNL d   1      46.449 -16.826  43.739  0.00  0.00    -0.198 OA
BRANCH  11  14
ATOM     14  N   UNL d   1      45.929 -16.769  44.774  0.00  0.00    -0.155 NA
BRANCH  14  15
ATOM     15  C   UNL d   1      45.943 -15.984  44.548  0.00  0.00     0.131 C 
BRANCH  15  16
ATOM     16  C   UNL d   1      45.469 -15.430  44.935  0.00  0.00     0.102 C 
BRANCH  16  17
ATOM     17  N   UNL d   1      45.451 -14.648  44.674  0.00  0.00    -0.298 N 
ATOM     18  C   UNL d   1      44.773 -14.349  44.313  0.00  0.00     0.107 A 
ATOM     19  C   UNL d   1      44.752 -13.563  44.050  0.00  0.00     0.142 A 
ATOM     20  O   UNL d   1      45.413 -13.080  44.149  0.00  0.00    -0.300 OA
ATOM     21  C   UNL d   1      46.095 -13.382  44.512  0.00  0.00     0.142 A 
ATOM     22  C   UNL d   1      46.113 -14.165  44.774  0.00  0.00     0.107 A 
ENDBRANCH  16  17
ENDBRANCH  15  16
ENDBRANCH  14  15
ENDBRANCH  11  14
ENDBRANCH   1  11
BRANCH   5  23
ATOM     23  O   UNL d   1      46.643 -19.740  42.005  0.00  0.00    -0.305 OA
BRANCH  23  24
ATOM     24  C   UNL d   1      46.309 -19.697  41.253  0.00  0.00     0.123 C 
ATOM     25  C   UNL d   1      46.646 -20.114  40.626  0.00  0.00     0.029 C 
ENDBRANCH  23  24
ENDBRANCH   5  23
TORSDOF 7
ENDMDL
