MODEL 1
REMARK VINA RESULT:      54.6      0.000      0.000
REMARK  4 active torsions:
REMARK  status: ('A' for Active; 'I' for Inactive)
REMARK    1  A    between atoms: C_4  and  C_1 
REMARK    2  A    between atoms: N_5  and  C_2 
REMARK       I    between atoms: N_9  and  C_4 
REMARK       I    between atoms: C_7  and  N_5 
REMARK    3  A    between atoms: C_13  and  C_7 
REMARK    4  A    between atoms: C_11  and  N_9 
ROOT
ATOM      1  C   UNL d   1      45.307 -14.498  44.627  0.00  0.00     0.175 A 
ATOM      2  C   UNL d   1      44.966 -15.191  44.606  0.00  0.00     0.114 A 
ATOM      3  O   UNL d   1      44.759 -13.969  44.749  0.00  0.00    -0.301 OA
ATOM      4  C   UNL d   1      44.209 -15.093  44.716  0.00  0.00     0.043 A 
ATOM      5  C   UNL d   1      44.079 -14.334  44.804  0.00  0.00     0.102 A 
ATOM      6  C   UNL d   1      43.624 -15.586  44.747  0.00  0.00     0.004 A 
ATOM      7  C   UNL d   1      43.369 -14.076  44.923  0.00  0.00     0.025 A 
ATOM      8  C   UNL d   1      42.906 -15.325  44.867  0.00  0.00     0.000 A 
ATOM      9  C   UNL d   1      42.781 -14.572  44.954  0.00  0.00     0.002 A 
ENDROOT
BRANCH   1  10
ATOM     10  C   UNL d   1      46.052 -14.358  44.541  0.00  0.00     0.303 C 
ATOM     11  N   UNL d   1      46.399 -13.409  43.440  0.00  0.00    -0.206 NA
ATOM     12  O   UNL d   1      46.632 -14.646  44.952  0.00  0.00    -0.263 OA
BRANCH  11  13
ATOM     13  C   UNL d   1      45.797 -13.079  42.976  0.00  0.00     0.085 A 
ATOM     14  C   UNL d   1      45.845 -13.114  42.150  0.00  0.00     0.019 A 
ATOM     15  C   UNL d   1      45.243 -12.784  41.685  0.00  0.00     0.002 A 
ATOM     16  C   UNL d   1      45.288 -12.817  40.856  0.00  0.00     0.000 C 
ATOM     17  C   UNL d   1      44.585 -12.413  42.041  0.00  0.00     0.000 A 
ATOM     18  C   UNL d   1      44.538 -12.378  42.879  0.00  0.00     0.002 A 
ATOM     19  C   UNL d   1      43.986 -12.084  41.580  0.00  0.00     0.000 C 
ATOM     20  C   UNL d   1      45.153 -12.716  43.343  0.00  0.00     0.019 A 
ENDBRANCH  11  13
ENDBRANCH   1  10
BRANCH   2  21
ATOM     21  N   UNL d   1      45.326 -15.864  44.495  0.00  0.00    -0.204 NA
ATOM     22  C   UNL d   1      45.294 -16.237  43.756  0.00  0.00     0.302 C 
ATOM     23  O   UNL d   1      44.871 -15.884  43.127  0.00  0.00    -0.263 OA
BRANCH  22  24
ATOM     24  C   UNL d   1      45.685 -16.965  43.639  0.00  0.00     0.158 A 
ATOM     25  O   UNL d   1      45.866 -17.535  44.221  0.00  0.00    -0.300 OA
ATOM     26  C   UNL d   1      46.253 -18.166  43.855  0.00  0.00     0.123 A 
ATOM     27  C   UNL d   1      46.318 -17.999  43.040  0.00  0.00     0.029 A 
ATOM     28  C   UNL d   1      45.973 -17.267  42.903  0.00  0.00     0.032 A 
ENDBRANCH  22  24
ENDBRANCH   2  21
TORSDOF 4
ENDMDL
