MODEL 1
REMARK VINA RESULT:      33.4      0.000      0.000
REMARK  4 active torsions:
REMARK  status: ('A' for Active; 'I' for Inactive)
REMARK    1  A    between atoms: C_7  and  C_1 
REMARK    2  A    between atoms: C_13  and  N_2 
REMARK    3  A    between atoms: C_8  and  C_7 
REMARK    4  A    between atoms: N_9  and  C_14 
ROOT
ATOM      1  N   UNL d   1      45.531 -16.661  44.123  0.00  0.00    -0.242 N 
ATOM      2  C   UNL d   1      44.873 -16.580  44.626  0.00  0.00     0.267 A 
ATOM      3  C   UNL d   1      45.952 -15.952  44.147  0.00  0.00     0.267 A 
ATOM      4  C   UNL d   1      45.562 -15.434  44.658  0.00  0.00     0.062 A 
ATOM      5  C   UNL d   1      44.897 -15.821  44.954  0.00  0.00     0.066 A 
ATOM      6  O   UNL d   1      44.307 -17.156  44.767  0.00  0.00    -0.267 OA
ATOM      7  O   UNL d   1      46.647 -15.792  43.728  0.00  0.00    -0.267 OA
ENDROOT
BRANCH   4   8
ATOM      8  C   UNL d   1      45.797 -14.666  44.841  0.00  0.00     0.018 C 
BRANCH   8   9
ATOM      9  C   UNL d   1      45.420 -14.097  44.390  0.00  0.00     0.045 A 
ATOM     10  N   UNL d   1      44.626 -13.896  44.428  0.00  0.00    -0.308 N 
ATOM     11  C   UNL d   1      44.478 -13.304  43.885  0.00  0.00     0.060 A 
ATOM     12  C   UNL d   1      44.070 -14.238  44.933  0.00  0.00     0.099 C 
ATOM     13  C   UNL d   1      43.797 -12.899  43.687  0.00  0.00     0.017 A 
ATOM     14  C   UNL d   1      45.184 -13.132  43.504  0.00  0.00    -0.002 A 
ATOM     15  C   UNL d   1      43.817 -12.313  43.100  0.00  0.00     0.002 A 
ATOM     16  C   UNL d   1      44.533 -12.147  42.721  0.00  0.00    -0.000 A 
ATOM     17  C   UNL d   1      45.209 -12.552  42.921  0.00  0.00    -0.003 A 
ATOM     18  C   UNL d   1      45.769 -13.624  43.816  0.00  0.00     0.054 A 
ATOM     19  C   UNL d   1      46.555 -13.600  43.558  0.00  0.00     0.010 C 
ATOM     20  C   UNL d   1      45.994 -13.092  43.222  0.00  0.00     0.010 C 
ENDBRANCH   8   9
ENDBRANCH   4   8
BRANCH   1  21
ATOM     21  C   UNL d   1      45.727 -17.323  43.684  0.00  0.00     0.070 A 
ATOM     22  C   UNL d   1      45.426 -17.422  42.918  0.00  0.00     0.019 A 
ATOM     23  C   UNL d   1      45.628 -18.090  42.483  0.00  0.00     0.025 A 
ATOM     24  C   UNL d   1      46.125 -18.657  42.804  0.00  0.00     0.127 A 
ATOM     25  C   UNL d   1      46.425 -18.557  43.570  0.00  0.00     0.025 A 
ATOM     26  C   UNL d   1      46.227 -17.892  44.010  0.00  0.00     0.019 A 
BRANCH  24  27
ATOM     27  N   UNL d   1      46.327 -19.325  42.369  0.00  0.00    -0.114 N 
ATOM     28  O   UNL d   1      46.594 -19.253  41.595  0.00  0.00    -0.532 OA
ATOM     29  O   UNL d   1      46.261 -20.068  42.709  0.00  0.00    -0.532 OA
ENDBRANCH  24  27
ENDBRANCH   1  21
TORSDOF 4
ENDMDL
