MODEL 1
REMARK VINA RESULT:      63.8      0.000      0.000
REMARK  5 active torsions:
REMARK  status: ('A' for Active; 'I' for Inactive)
REMARK    1  A    between atoms: C_4  and  S_1 
REMARK    2  A    between atoms: N_5  and  S_1 
REMARK       I    between atoms: N_2  and  C_3 
REMARK    3  A    between atoms: C_3  and  C_12 
REMARK    4  A    between atoms: C_19  and  N_5 
REMARK    5  A    between atoms: C_20  and  C_19 
ROOT
ATOM      1  C   UNL d   1      14.862  17.617  -4.741  0.00  0.00     0.057 A 
ATOM      2  C   UNL d   1      14.690  17.455  -3.949  0.00  0.00     0.005 A 
ATOM      3  C   UNL d   1      14.716  17.052  -5.319  0.00  0.00     0.005 A 
ATOM      4  C   UNL d   1      14.222  16.157  -4.317  0.00  0.00     0.020 A 
ATOM      5  C   UNL d   1      14.372  16.729  -3.743  0.00  0.00     0.002 A 
ATOM      6  C   UNL d   1      14.396  16.323  -5.105  0.00  0.00     0.002 A 
ENDROOT
BRANCH   4   7
ATOM      7  C   UNL d   1      13.903  15.428  -4.107  0.00  0.00     0.112 C 
BRANCH   7   8
ATOM      8  N   UNL d   1      14.048  14.762  -4.582  0.00  0.00    -0.157 NA
BRANCH   8   9
ATOM      9  S   UNL d   1      13.768  14.017  -4.343  0.00  0.00     0.285 S 
ATOM     10  O   UNL d   1      13.009  14.334  -4.225  0.00  0.00    -0.198 OA
ATOM     11  O   UNL d   1      14.530  13.692  -4.460  0.00  0.00    -0.198 OA
BRANCH   9  12
ATOM     12  C   UNL d   1      13.490  13.265  -4.102  0.00  0.00     0.106 A 
ATOM     13  C   UNL d   1      13.660  12.983  -3.356  0.00  0.00     0.024 A 
ATOM     14  C   UNL d   1      13.386  12.243  -3.122  0.00  0.00     0.059 A 
ATOM     15 CL   UNL d   1      13.555  11.950  -2.367  0.00  0.00    -0.082 Cl
ATOM     16  C   UNL d   1      12.938  11.783  -3.641  0.00  0.00     0.011 A 
ATOM     17  C   UNL d   1      12.770  12.073  -4.390  0.00  0.00     0.002 A 
ATOM     18  C   UNL d   1      13.045  12.816  -4.626  0.00  0.00     0.013 A 
ENDBRANCH   9  12
ENDBRANCH   8   9
ENDBRANCH   7   8
ENDBRANCH   4   7
BRANCH   1  19
ATOM     19  C   UNL d   1      15.187  18.357  -4.959  0.00  0.00     0.265 C 
ATOM     20  N   UNL d   1      14.744  18.881  -5.425  0.00  0.00    -0.268 N 
ATOM     21  C   UNL d   1      13.983  18.672  -5.672  0.00  0.00     0.108 A 
ATOM     22  C   UNL d   1      15.066  19.611  -5.639  0.00  0.00     0.108 A 
ATOM     23  C   UNL d   1      13.539  19.200  -6.140  0.00  0.00     0.118 A 
ATOM     24  C   UNL d   1      12.776  18.991  -6.389  0.00  0.00     0.028 C 
ATOM     25  O   UNL d   1      13.863  19.929  -6.353  0.00  0.00    -0.304 OA
ATOM     26  C   UNL d   1      14.623  20.142  -6.108  0.00  0.00     0.118 A 
ATOM     27  C   UNL d   1      14.944  20.876  -6.325  0.00  0.00     0.028 C 
ATOM     28  O   UNL d   1      15.950  18.563  -4.709  0.00  0.00    -0.267 OA
ENDBRANCH   1  19
TORSDOF 5
ENDMDL
MODEL 2
REMARK VINA RESULT:      64.6      2.322      5.987
REMARK  5 active torsions:
REMARK  status: ('A' for Active; 'I' for Inactive)
REMARK    1  A    between atoms: C_4  and  S_1 
REMARK    2  A    between atoms: N_5  and  S_1 
REMARK       I    between atoms: N_2  and  C_3 
REMARK    3  A    between atoms: C_3  and  C_12 
REMARK    4  A    between atoms: C_19  and  N_5 
REMARK    5  A    between atoms: C_20  and  C_19 
ROOT
ATOM      1  C   UNL d   1      13.383  13.873  -4.217  0.00  0.00     0.057 A 
ATOM      2  C   UNL d   1      13.832  13.993  -4.901  0.00  0.00     0.005 A 
ATOM      3  C   UNL d   1      12.852  14.448  -3.967  0.00  0.00     0.005 A 
ATOM      4  C   UNL d   1      13.215  15.268  -5.082  0.00  0.00     0.020 A 
ATOM      5  C   UNL d   1      13.745  14.687  -5.327  0.00  0.00     0.002 A 
ATOM      6  C   UNL d   1      12.769  15.144  -4.400  0.00  0.00     0.002 A 
ENDROOT
BRANCH   4   7
ATOM      7  C   UNL d   1      13.130  15.965  -5.513  0.00  0.00     0.112 C 
BRANCH   7   8
ATOM      8  N   UNL d   1      13.804  16.357  -5.799  0.00  0.00    -0.157 NA
BRANCH   8   9
ATOM      9  S   UNL d   1      13.792  17.184  -5.884  0.00  0.00     0.285 S 
ATOM     10  O   UNL d   1      13.094  17.134  -6.333  0.00  0.00    -0.198 OA
ATOM     11  O   UNL d   1      14.495  17.240  -5.433  0.00  0.00    -0.198 OA
BRANCH   9  12
ATOM     12  C   UNL d   1      13.785  18.017  -5.967  0.00  0.00     0.106 A 
ATOM     13  C   UNL d   1      14.425  18.460  -5.723  0.00  0.00     0.024 A 
ATOM     14  C   UNL d   1      14.416  19.278  -5.805  0.00  0.00     0.059 A 
ATOM     15 CL   UNL d   1      15.061  19.734  -5.561  0.00  0.00    -0.082 Cl
ATOM     16  C   UNL d   1      13.759  19.655  -6.135  0.00  0.00     0.011 A 
ATOM     17  C   UNL d   1      13.119  19.204  -6.378  0.00  0.00     0.002 A 
ATOM     18  C   UNL d   1      13.127  18.381  -6.296  0.00  0.00     0.013 A 
ENDBRANCH   9  12
ENDBRANCH   8   9
ENDBRANCH   7   8
ENDBRANCH   4   7
BRANCH   1  19
ATOM     19  C   UNL d   1      13.466  13.166  -3.776  0.00  0.00     0.265 C 
ATOM     20  N   UNL d   1      13.852  13.181  -3.042  0.00  0.00    -0.268 N 
ATOM     21  C   UNL d   1      14.154  13.893  -2.748  0.00  0.00     0.108 A 
ATOM     22  C   UNL d   1      13.933  12.483  -2.609  0.00  0.00     0.108 A 
ATOM     23  C   UNL d   1      14.541  13.905  -2.010  0.00  0.00     0.118 A 
ATOM     24  C   UNL d   1      14.844  14.618  -1.714  0.00  0.00     0.028 C 
ATOM     25  O   UNL d   1      14.621  13.206  -1.578  0.00  0.00    -0.304 OA
ATOM     26  C   UNL d   1      14.321  12.492  -1.869  0.00  0.00     0.118 A 
ATOM     27  C   UNL d   1      14.404  11.793  -1.431  0.00  0.00     0.028 C 
ATOM     28  O   UNL d   1      13.162  12.455  -4.075  0.00  0.00    -0.267 OA
ENDBRANCH   1  19
TORSDOF 5
ENDMDL
