MODEL 1
REMARK VINA RESULT:      51.3      0.000      0.000
REMARK  5 active torsions:
REMARK  status: ('A' for Active; 'I' for Inactive)
REMARK    1  A    between atoms: C_9  and  S_1 
REMARK    2  A    between atoms: C_14  and  S_1 
REMARK    3  A    between atoms: C_7  and  C_10 
REMARK       I    between atoms: N_11  and  C_7 
REMARK    4  A    between atoms: C_10  and  C_9 
REMARK    5  A    between atoms: C_15  and  N_11 
ROOT
ATOM      1  C   UNL d   1     -49.654  27.249  34.060  0.00  0.00     0.280 C 
ATOM      2  N   UNL d   1     -50.031  26.973  33.375  0.00  0.00    -0.208 NA
ATOM      3  O   UNL d   1     -49.678  26.785  34.754  0.00  0.00    -0.265 OA
ENDROOT
BRANCH   1   4
ATOM      4  C   UNL d   1     -49.264  27.962  34.063  0.00  0.00     0.075 C 
BRANCH   4   5
ATOM      5  C   UNL d   1     -48.704  28.076  34.537  0.00  0.00     0.104 C 
BRANCH   5   6
ATOM      6  S   UNL d   1     -48.345  28.797  34.765  0.00  0.00     0.211 S 
ATOM      7  O   UNL d   1     -47.844  28.390  35.291  0.00  0.00    -0.217 OA
ATOM      8  O   UNL d   1     -48.855  29.206  34.231  0.00  0.00    -0.217 OA
BRANCH   6   9
ATOM      9  C   UNL d   1     -47.995  29.513  34.986  0.00  0.00     0.088 A 
ATOM     10  C   UNL d   1     -48.123  30.193  34.536  0.00  0.00     0.011 A 
ATOM     11  C   UNL d   1     -47.773  30.912  34.756  0.00  0.00     0.001 A 
ATOM     12  C   UNL d   1     -47.296  30.944  35.426  0.00  0.00     0.000 A 
ATOM     13  C   UNL d   1     -47.161  30.270  35.884  0.00  0.00     0.001 A 
ATOM     14  C   UNL d   1     -47.513  29.550  35.661  0.00  0.00     0.011 A 
ENDBRANCH   6   9
ENDBRANCH   5   6
ENDBRANCH   4   5
ENDBRANCH   1   4
BRANCH   2  15
ATOM     15  C   UNL d   1     -50.425  26.253  33.368  0.00  0.00     0.085 A 
ATOM     16  C   UNL d   1     -51.242  26.234  33.374  0.00  0.00     0.027 A 
ATOM     17  C   UNL d   1     -51.626  25.512  33.367  0.00  0.00     0.050 A 
ATOM     18  S   UNL d   1     -52.429  25.310  33.370  0.00  0.00    -0.066 SA
ATOM     19  C   UNL d   1     -51.187  24.801  33.353  0.00  0.00     0.088 A 
ATOM     20  C   UNL d   1     -52.496  24.488  33.359  0.00  0.00     0.111 A 
ATOM     21  C   UNL d   1     -53.195  24.056  33.358  0.00  0.00     0.028 C 
ATOM     22  N   UNL d   1     -51.714  24.176  33.348  0.00  0.00    -0.239 NA
ATOM     23  C   UNL d   1     -50.374  24.828  33.347  0.00  0.00     0.021 A 
ATOM     24  C   UNL d   1     -49.991  25.550  33.354  0.00  0.00     0.021 A 
ENDBRANCH   2  15
TORSDOF 5
ENDMDL
