MODEL 1
REMARK VINA RESULT:       2.4      0.000      0.000
REMARK  4 active torsions:
REMARK  status: ('A' for Active; 'I' for Inactive)
REMARK    1  A    between atoms: C_3  and  C_1 
REMARK    2  A    between atoms: N_10  and  C_3 
REMARK    3  A    between atoms: C_13  and  C_3 
REMARK    4  A    between atoms: C_5  and  N_10 
ROOT
ATOM      1  C   UNL d   1     -42.266-122.276 -51.858  0.00  0.00     0.086 C 
ENDROOT
BRANCH   1   2
ATOM      2  C   UNL d   1     -41.911-122.684 -52.493  0.00  0.00     0.037 A 
ATOM      3  C   UNL d   1     -41.378-123.327 -52.414  0.00  0.00     0.083 A 
ATOM      4  N   UNL d   1     -41.164-123.565 -53.133  0.00  0.00    -0.245 NA
ATOM      5  C   UNL d   1     -41.123-123.655 -51.704  0.00  0.00     0.021 C 
ATOM      6  C   UNL d   1     -41.535-123.102 -53.696  0.00  0.00     0.081 A 
ATOM      7  C   UNL d   1     -42.004-122.550 -53.294  0.00  0.00     0.021 A 
ATOM      8  C   UNL d   1     -41.510-123.108 -54.520  0.00  0.00     0.019 A 
ATOM      9  C   UNL d   1     -42.442-122.011 -53.722  0.00  0.00     0.002 A 
ATOM     10  C   UNL d   1     -42.427-122.005 -54.538  0.00  0.00     0.000 A 
ATOM     11  C   UNL d   1     -41.959-122.557 -54.939  0.00  0.00     0.002 A 
ENDBRANCH   1   2
BRANCH   1  12
ATOM     12  N   UNL d   1     -42.979-122.533 -51.560  0.00  0.00    -0.225 NA
BRANCH  12  13
ATOM     13  C   UNL d   1     -42.983-122.945 -50.865  0.00  0.00     0.191 A 
ATOM     14  N   UNL d   1     -42.653-123.688 -50.621  0.00  0.00    -0.107 NA
ATOM     15  O   UNL d   1     -42.846-123.814 -49.836  0.00  0.00    -0.210 OA
ATOM     16  C   UNL d   1     -43.290-123.177 -49.566  0.00  0.00     0.128 A 
ATOM     17  C   UNL d   1     -43.378-122.637 -50.196  0.00  0.00     0.068 A 
ATOM     18  C   UNL d   1     -43.580-123.123 -48.791  0.00  0.00     0.029 C 
ENDBRANCH  12  13
ENDBRANCH   1  12
BRANCH   1  19
ATOM     19  C   UNL d   1     -41.884-121.617 -51.545  0.00  0.00     0.037 A 
ATOM     20  C   UNL d   1     -41.888-120.925 -51.946  0.00  0.00     0.100 A 
ATOM     21  N   UNL d   1     -41.513-120.250 -51.652  0.00  0.00    -0.242 NA
ATOM     22  C   UNL d   1     -41.123-120.306 -50.915  0.00  0.00     0.099 A 
ATOM     23  C   UNL d   1     -41.123-121.024 -50.506  0.00  0.00     0.021 A 
ATOM     24  C   UNL d   1     -41.495-121.681 -50.804  0.00  0.00     0.005 A 
ENDBRANCH   1  19
TORSDOF 4
ENDMDL
MODEL 2
REMARK VINA RESULT:       5.3      1.447      3.982
REMARK  4 active torsions:
REMARK  status: ('A' for Active; 'I' for Inactive)
REMARK    1  A    between atoms: C_3  and  C_1 
REMARK    2  A    between atoms: N_10  and  C_3 
REMARK    3  A    between atoms: C_13  and  C_3 
REMARK    4  A    between atoms: C_5  and  N_10 
ROOT
ATOM      1  C   UNL d   1     -41.761-122.470 -50.729  0.00  0.00     0.086 C 
ENDROOT
BRANCH   1   2
ATOM      2  C   UNL d   1     -42.344-122.647 -50.160  0.00  0.00     0.037 A 
ATOM      3  C   UNL d   1     -43.156-122.445 -50.224  0.00  0.00     0.083 A 
ATOM      4  N   UNL d   1     -43.530-122.704 -49.582  0.00  0.00    -0.245 NA
ATOM      5  C   UNL d   1     -43.503-122.042 -50.852  0.00  0.00     0.021 C 
ATOM      6  C   UNL d   1     -42.996-123.076 -49.086  0.00  0.00     0.081 A 
ATOM      7  C   UNL d   1     -42.252-123.040 -49.449  0.00  0.00     0.021 A 
ATOM      8  C   UNL d   1     -43.086-123.443 -48.353  0.00  0.00     0.019 A 
ATOM      9  C   UNL d   1     -41.608-123.372 -49.074  0.00  0.00     0.002 A 
ATOM     10  C   UNL d   1     -41.682-123.738 -48.349  0.00  0.00     0.000 A 
ATOM     11  C   UNL d   1     -42.425-123.774 -47.986  0.00  0.00     0.002 A 
ENDBRANCH   1   2
BRANCH   1  12
ATOM     12  N   UNL d   1     -41.123-122.008 -50.523  0.00  0.00    -0.225 NA
BRANCH  12  13
ATOM     13  C   UNL d   1     -41.129-121.225 -50.723  0.00  0.00     0.191 A 
ATOM     14  N   UNL d   1     -41.136-120.504 -50.275  0.00  0.00    -0.107 NA
ATOM     15  O   UNL d   1     -41.141-119.873 -50.796  0.00  0.00    -0.210 OA
ATOM     16  C   UNL d   1     -41.138-120.163 -51.564  0.00  0.00     0.128 A 
ATOM     17  C   UNL d   1     -41.131-120.997 -51.528  0.00  0.00     0.068 A 
ATOM     18  C   UNL d   1     -41.142-119.674 -52.234  0.00  0.00     0.029 C 
ENDBRANCH  12  13
ENDBRANCH   1  12
BRANCH   1  19
ATOM     19  C   UNL d   1     -41.843-122.768 -51.492  0.00  0.00     0.037 A 
ATOM     20  C   UNL d   1     -42.239-122.346 -52.045  0.00  0.00     0.100 A 
ATOM     21  N   UNL d   1     -42.335-122.624 -52.817  0.00  0.00    -0.242 NA
ATOM     22  C   UNL d   1     -42.005-123.367 -53.012  0.00  0.00     0.099 A 
ATOM     23  C   UNL d   1     -41.597-123.796 -52.436  0.00  0.00     0.021 A 
ATOM     24  C   UNL d   1     -41.509-123.514 -51.680  0.00  0.00     0.005 A 
ENDBRANCH   1  19
TORSDOF 4
ENDMDL
