MODEL 1
REMARK VINA RESULT:      -2.6      0.000      0.000
REMARK  4 active torsions:
REMARK  status: ('A' for Active; 'I' for Inactive)
REMARK    1  A    between atoms: C_8  and  C_1 
REMARK    2  A    between atoms: C_3  and  C_2 
REMARK    3  A    between atoms: O_14  and  C_8 
REMARK    4  A    between atoms: C_16  and  O_14 
ROOT
ATOM      1  C   UNL d   1      31.939  16.697 -23.804  0.00  0.00     0.091 A 
ATOM      2  C   UNL d   1      31.170  16.406 -23.879  0.00  0.00     0.036 A 
ATOM      3  C   UNL d   1      32.422  16.103 -23.489  0.00  0.00     0.138 A 
ATOM      4  C   UNL d   1      31.198  15.628 -23.603  0.00  0.00     0.039 A 
ATOM      5  S   UNL d   1      31.948  15.454 -23.372  0.00  0.00    -0.065 SA
ATOM      6  N   UNL d   1      33.240  16.169 -23.326  0.00  0.00    -0.141 N 
ENDROOT
BRANCH   2   7
ATOM      7  C   UNL d   1      30.576  16.862 -24.171  0.00  0.00     0.101 A 
ATOM      8  O   UNL d   1      30.313  17.531 -24.524  0.00  0.00    -0.307 OA
ATOM      9  C   UNL d   1      29.523  17.472 -24.596  0.00  0.00     0.100 A 
ATOM     10  C   UNL d   1      29.042  18.060 -24.938  0.00  0.00     0.027 C 
ATOM     11  C   UNL d   1      29.259  16.777 -24.298  0.00  0.00     0.027 A 
ATOM     12  C   UNL d   1      29.949  16.397 -24.029  0.00  0.00     0.027 A 
ENDBRANCH   2   7
BRANCH   1  13
ATOM     13  C   UNL d   1      32.199  17.442 -24.003  0.00  0.00     0.302 C 
ATOM     14  O   UNL d   1      32.377  17.648 -24.754  0.00  0.00    -0.259 OA
BRANCH  13  15
ATOM     15  O   UNL d   1      32.283  18.015 -23.392  0.00  0.00    -0.271 OA
BRANCH  15  16
ATOM     16  C   UNL d   1      32.705  18.679 -23.537  0.00  0.00     0.126 C 
ATOM     17  C   UNL d   1      32.810  19.240 -22.918  0.00  0.00     0.029 C 
ENDBRANCH  15  16
ENDBRANCH  13  15
ENDBRANCH   1  13
TORSDOF 4
ENDMDL
MODEL 2
REMARK VINA RESULT:      -2.3      0.964      2.758
REMARK  4 active torsions:
REMARK  status: ('A' for Active; 'I' for Inactive)
REMARK    1  A    between atoms: C_8  and  C_1 
REMARK    2  A    between atoms: C_3  and  C_2 
REMARK    3  A    between atoms: O_14  and  C_8 
REMARK    4  A    between atoms: C_16  and  O_14 
ROOT
ATOM      1  C   UNL d   1      31.579  16.651 -24.172  0.00  0.00     0.091 A 
ATOM      2  C   UNL d   1      32.215  16.798 -23.666  0.00  0.00     0.036 A 
ATOM      3  C   UNL d   1      31.514  15.835 -24.293  0.00  0.00     0.138 A 
ATOM      4  C   UNL d   1      32.532  16.057 -23.486  0.00  0.00     0.039 A 
ATOM      5  S   UNL d   1      32.108  15.487 -23.864  0.00  0.00    -0.065 SA
ATOM      6  N   UNL d   1      30.942  15.452 -24.770  0.00  0.00    -0.141 N 
ENDROOT
BRANCH   2   7
ATOM      7  C   UNL d   1      32.414  17.545 -23.447  0.00  0.00     0.101 A 
ATOM      8  O   UNL d   1      32.338  18.339 -23.514  0.00  0.00    -0.307 OA
ATOM      9  C   UNL d   1      32.834  18.674 -22.990  0.00  0.00     0.100 A 
ATOM     10  C   UNL d   1      32.918  19.498 -22.889  0.00  0.00     0.027 C 
ATOM     11  C   UNL d   1      33.236  18.117 -22.578  0.00  0.00     0.027 A 
ATOM     12  C   UNL d   1      32.953  17.397 -22.885  0.00  0.00     0.027 A 
ENDBRANCH   2   7
BRANCH   1  13
ATOM     13  C   UNL d   1      31.085  17.206 -24.505  0.00  0.00     0.302 C 
ATOM     14  O   UNL d   1      31.320  17.689 -25.097  0.00  0.00    -0.259 OA
BRANCH  13  15
ATOM     15  O   UNL d   1      30.297  17.270 -24.214  0.00  0.00    -0.271 OA
BRANCH  15  16
ATOM     16  C   UNL d   1      29.761  17.690 -24.633  0.00  0.00     0.126 C 
ATOM     17  C   UNL d   1      28.973  17.751 -24.344  0.00  0.00     0.029 C 
ENDBRANCH  15  16
ENDBRANCH  13  15
ENDBRANCH   1  13
TORSDOF 4
ENDMDL
MODEL 3
REMARK VINA RESULT:      -2.2      2.067      3.171
REMARK  4 active torsions:
REMARK  status: ('A' for Active; 'I' for Inactive)
REMARK    1  A    between atoms: C_8  and  C_1 
REMARK    2  A    between atoms: C_3  and  C_2 
REMARK    3  A    between atoms: O_14  and  C_8 
REMARK    4  A    between atoms: C_16  and  O_14 
ROOT
ATOM      1  C   UNL d   1      29.426  16.045 -23.714  0.00  0.00     0.091 A 
ATOM      2  C   UNL d   1      30.177  15.814 -23.463  0.00  0.00     0.036 A 
ATOM      3  C   UNL d   1      28.871  15.826 -23.140  0.00  0.00     0.138 A 
ATOM      4  C   UNL d   1      30.066  15.453 -22.729  0.00  0.00     0.039 A 
ATOM      5  S   UNL d   1      29.284  15.463 -22.542  0.00  0.00    -0.065 SA
ATOM      6  N   UNL d   1      28.045  15.958 -23.177  0.00  0.00    -0.141 N 
ENDROOT
BRANCH   2   7
ATOM      7  C   UNL d   1      30.830  15.954 -23.910  0.00  0.00     0.101 A 
ATOM      8  O   UNL d   1      31.181  16.246 -24.568  0.00  0.00    -0.307 OA
ATOM      9  C   UNL d   1      31.962  16.106 -24.509  0.00  0.00     0.100 A 
ATOM     10  C   UNL d   1      32.520  16.327 -25.087  0.00  0.00     0.027 C 
ATOM     11  C   UNL d   1      32.134  15.726 -23.825  0.00  0.00     0.027 A 
ATOM     12  C   UNL d   1      31.395  15.637 -23.452  0.00  0.00     0.027 A 
ENDBRANCH   2   7
BRANCH   1  13
ATOM     13  C   UNL d   1      29.240  16.426 -24.409  0.00  0.00     0.302 C 
ATOM     14  O   UNL d   1      29.132  16.035 -25.097  0.00  0.00    -0.259 OA
BRANCH  13  15
ATOM     15  O   UNL d   1      29.160  17.265 -24.399  0.00  0.00    -0.271 OA
BRANCH  15  16
ATOM     16  C   UNL d   1      28.812  17.629 -25.019  0.00  0.00     0.126 C 
ATOM     17  C   UNL d   1      28.824  18.470 -25.058  0.00  0.00     0.029 C 
ENDBRANCH  15  16
ENDBRANCH  13  15
ENDBRANCH   1  13
TORSDOF 4
ENDMDL
MODEL 4
REMARK VINA RESULT:      -1.9      1.566      2.132
REMARK  4 active torsions:
REMARK  status: ('A' for Active; 'I' for Inactive)
REMARK    1  A    between atoms: C_8  and  C_1 
REMARK    2  A    between atoms: C_3  and  C_2 
REMARK    3  A    between atoms: O_14  and  C_8 
REMARK    4  A    between atoms: C_16  and  O_14 
ROOT
ATOM      1  C   UNL d   1      31.608  16.859 -24.530  0.00  0.00     0.091 A 
ATOM      2  C   UNL d   1      30.834  17.145 -24.518  0.00  0.00     0.036 A 
ATOM      3  C   UNL d   1      32.098  17.422 -24.888  0.00  0.00     0.138 A 
ATOM      4  C   UNL d   1      30.865  17.889 -24.874  0.00  0.00     0.039 A 
ATOM      5  S   UNL d   1      31.623  18.048 -25.092  0.00  0.00    -0.065 SA
ATOM      6  N   UNL d   1      32.922  17.351 -25.010  0.00  0.00    -0.141 N 
ENDROOT
BRANCH   2   7
ATOM      7  C   UNL d   1      30.232  16.715 -24.202  0.00  0.00     0.101 A 
ATOM      8  O   UNL d   1      29.953  16.053 -23.849  0.00  0.00    -0.307 OA
ATOM      9  C   UNL d   1      29.173  16.152 -23.732  0.00  0.00     0.100 A 
ATOM     10  C   UNL d   1      28.679  15.582 -23.376  0.00  0.00     0.027 C 
ATOM     11  C   UNL d   1      28.931  16.867 -24.001  0.00  0.00     0.027 A 
ATOM     12  C   UNL d   1      29.625  17.216 -24.300  0.00  0.00     0.027 A 
ENDBRANCH   2   7
BRANCH   1  13
ATOM     13  C   UNL d   1      31.867  16.143 -24.242  0.00  0.00     0.302 C 
ATOM     14  O   UNL d   1      31.780  15.461 -24.649  0.00  0.00    -0.259 OA
BRANCH  13  15
ATOM     15  O   UNL d   1      32.240  16.124 -23.488  0.00  0.00    -0.271 OA
BRANCH  15  16
ATOM     16  C   UNL d   1      32.638  15.466 -23.267  0.00  0.00     0.126 C 
ATOM     17  C   UNL d   1      33.037  15.459 -22.526  0.00  0.00     0.029 C 
ENDBRANCH  15  16
ENDBRANCH  13  15
ENDBRANCH   1  13
TORSDOF 4
ENDMDL
MODEL 5
REMARK VINA RESULT:       0.2      4.707      6.334
REMARK  4 active torsions:
REMARK  status: ('A' for Active; 'I' for Inactive)
REMARK    1  A    between atoms: C_8  and  C_1 
REMARK    2  A    between atoms: C_3  and  C_2 
REMARK    3  A    between atoms: O_14  and  C_8 
REMARK    4  A    between atoms: C_16  and  O_14 
ROOT
ATOM      1  C   UNL d   1      32.816  21.991 -20.738  0.00  0.00     0.091 A 
ATOM      2  C   UNL d   1      32.989  22.740 -21.039  0.00  0.00     0.036 A 
ATOM      3  C   UNL d   1      32.923  22.000 -19.917  0.00  0.00     0.138 A 
ATOM      4  C   UNL d   1      33.201  23.200 -20.387  0.00  0.00     0.039 A 
ATOM      5  S   UNL d   1      33.160  22.752 -19.721  0.00  0.00    -0.065 SA
ATOM      6  N   UNL d   1      32.808  21.354 -19.399  0.00  0.00    -0.141 N 
ENDROOT
BRANCH   2   7
ATOM      7  C   UNL d   1      32.933  22.900 -21.825  0.00  0.00     0.101 A 
ATOM      8  O   UNL d   1      33.162  22.779 -22.583  0.00  0.00    -0.307 OA
ATOM      9  C   UNL d   1      32.729  23.261 -23.045  0.00  0.00     0.100 A 
ATOM     10  C   UNL d   1      32.803  23.301 -23.875  0.00  0.00     0.027 C 
ATOM     11  C   UNL d   1      32.220  23.698 -22.608  0.00  0.00     0.027 A 
ATOM     12  C   UNL d   1      32.364  23.452 -21.825  0.00  0.00     0.027 A 
ENDBRANCH   2   7
BRANCH   1  13
ATOM     13  C   UNL d   1      32.579  21.339 -21.163  0.00  0.00     0.302 C 
ATOM     14  O   UNL d   1      31.827  21.242 -21.416  0.00  0.00    -0.259 OA
BRANCH  13  15
ATOM     15  O   UNL d   1      33.149  20.745 -21.339  0.00  0.00    -0.271 OA
BRANCH  15  16
ATOM     16  C   UNL d   1      32.903  20.051 -21.652  0.00  0.00     0.126 C 
ATOM     17  C   UNL d   1      33.234  19.790 -22.381  0.00  0.00     0.029 C 
ENDBRANCH  15  16
ENDBRANCH  13  15
ENDBRANCH   1  13
TORSDOF 4
ENDMDL
MODEL 6
REMARK VINA RESULT:       0.4      1.888      3.668
REMARK  4 active torsions:
REMARK  status: ('A' for Active; 'I' for Inactive)
REMARK    1  A    between atoms: C_8  and  C_1 
REMARK    2  A    between atoms: C_3  and  C_2 
REMARK    3  A    between atoms: O_14  and  C_8 
REMARK    4  A    between atoms: C_16  and  O_14 
ROOT
ATOM      1  C   UNL d   1      32.851  18.572 -23.113  0.00  0.00     0.091 A 
ATOM      2  C   UNL d   1      33.039  19.102 -22.508  0.00  0.00     0.036 A 
ATOM      3  C   UNL d   1      32.938  17.799 -22.830  0.00  0.00     0.138 A 
ATOM      4  C   UNL d   1      33.241  18.635 -21.858  0.00  0.00     0.039 A 
ATOM      5  S   UNL d   1      33.178  17.859 -22.056  0.00  0.00    -0.065 SA
ATOM      6  N   UNL d   1      32.802  17.098 -23.265  0.00  0.00    -0.141 N 
ENDROOT
BRANCH   2   7
ATOM      7  C   UNL d   1      33.005  19.897 -22.621  0.00  0.00     0.101 A 
ATOM      8  O   UNL d   1      33.022  20.539 -23.099  0.00  0.00    -0.307 OA
ATOM      9  C   UNL d   1      32.931  21.184 -22.642  0.00  0.00     0.100 A 
ATOM     10  C   UNL d   1      32.919  21.964 -22.934  0.00  0.00     0.027 C 
ATOM     11  C   UNL d   1      32.855  20.980 -21.871  0.00  0.00     0.027 A 
ATOM     12  C   UNL d   1      32.905  20.149 -21.875  0.00  0.00     0.027 A 
ENDBRANCH   2   7
BRANCH   1  13
ATOM     13  C   UNL d   1      32.616  18.760 -23.869  0.00  0.00     0.302 C 
ATOM     14  O   UNL d   1      33.114  19.083 -24.405  0.00  0.00    -0.259 OA
BRANCH  13  15
ATOM     15  O   UNL d   1      31.819  18.608 -24.092  0.00  0.00    -0.271 OA
BRANCH  15  16
ATOM     16  C   UNL d   1      31.622  18.626 -24.867  0.00  0.00     0.126 C 
ATOM     17  C   UNL d   1      30.845  18.397 -25.097  0.00  0.00     0.029 C 
ENDBRANCH  15  16
ENDBRANCH  13  15
ENDBRANCH   1  13
TORSDOF 4
ENDMDL
