MODEL 1
REMARK VINA RESULT:      49.9      0.000      0.000
REMARK  3 active torsions:
REMARK  status: ('A' for Active; 'I' for Inactive)
REMARK    1  A    between atoms: S_3  and  N_1 
REMARK    2  A    between atoms: C_8  and  C_4 
REMARK    3  A    between atoms: C_7  and  C_5 
ROOT
ATOM      1  N   UNL d   1     -51.538  26.322  33.643  0.00  0.00    -0.155 N 
ATOM      2  N   UNL d   1     -51.058  26.986  33.800  0.00  0.00    -0.155 NA
ATOM      3  C   UNL d   1     -51.071  25.662  33.685  0.00  0.00     0.096 A 
ATOM      4  C   UNL d   1     -50.298  26.708  33.937  0.00  0.00     0.110 A 
ATOM      5  C   UNL d   1     -50.299  25.868  33.866  0.00  0.00     0.041 A 
ENDROOT
BRANCH   3   6
ATOM      6  C   UNL d   1     -51.333  24.889  33.565  0.00  0.00     0.018 A 
ATOM      7  C   UNL d   1     -50.796  24.289  33.428  0.00  0.00     0.002 A 
ATOM      8  C   UNL d   1     -49.990  24.458  33.410  0.00  0.00     0.000 C 
ATOM      9  C   UNL d   1     -51.058  23.516  33.307  0.00  0.00     0.000 A 
ATOM     10  C   UNL d   1     -51.856  23.343  33.324  0.00  0.00     0.000 A 
ATOM     11  C   UNL d   1     -52.406  23.948  33.462  0.00  0.00     0.000 A 
ATOM     12  C   UNL d   1     -52.144  24.721  33.583  0.00  0.00     0.002 A 
ENDBRANCH   3   6
BRANCH   1  13
ATOM     13  S   UNL d   1     -52.329  26.356  33.479  0.00  0.00     0.266 S 
ATOM     14  O   UNL d   1     -52.324  25.562  33.309  0.00  0.00    -0.203 OA
ATOM     15  O   UNL d   1     -52.353  27.180  33.651  0.00  0.00    -0.203 OA
ATOM     16  C   UNL d   1     -53.172  26.401  33.306  0.00  0.00     0.165 C 
ENDBRANCH   1  13
BRANCH   4  17
ATOM     17  C   UNL d   1     -49.632  27.160  34.116  0.00  0.00     0.049 A 
ATOM     18  S   UNL d   1     -49.477  27.466  34.856  0.00  0.00    -0.085 SA
ATOM     19  C   UNL d   1     -48.764  27.880  34.803  0.00  0.00     0.035 A 
ATOM     20  C   UNL d   1     -48.477  27.829  34.027  0.00  0.00     0.007 A 
ATOM     21  C   UNL d   1     -49.011  27.390  33.615  0.00  0.00     0.009 A 
ENDBRANCH   4  17
TORSDOF 3
ENDMDL
MODEL 2
REMARK VINA RESULT:      51.8      1.693      2.830
REMARK  3 active torsions:
REMARK  status: ('A' for Active; 'I' for Inactive)
REMARK    1  A    between atoms: S_3  and  N_1 
REMARK    2  A    between atoms: C_8  and  C_4 
REMARK    3  A    between atoms: C_7  and  C_5 
ROOT
ATOM      1  N   UNL d   1     -51.588  24.755  33.800  0.00  0.00    -0.155 N 
ATOM      2  N   UNL d   1     -51.004  24.158  33.811  0.00  0.00    -0.155 NA
ATOM      3  C   UNL d   1     -51.232  25.448  33.580  0.00  0.00     0.096 A 
ATOM      4  C   UNL d   1     -50.296  24.511  33.593  0.00  0.00     0.110 A 
ATOM      5  C   UNL d   1     -50.433  25.329  33.445  0.00  0.00     0.041 A 
ENDROOT
BRANCH   3   6
ATOM      6  C   UNL d   1     -51.618  26.173  33.501  0.00  0.00     0.018 A 
ATOM      7  C   UNL d   1     -51.187  26.857  33.385  0.00  0.00     0.002 A 
ATOM      8  C   UNL d   1     -50.365  26.821  33.347  0.00  0.00     0.000 C 
ATOM      9  C   UNL d   1     -51.572  27.583  33.306  0.00  0.00     0.000 A 
ATOM     10  C   UNL d   1     -52.388  27.624  33.343  0.00  0.00     0.000 A 
ATOM     11  C   UNL d   1     -52.830  26.932  33.461  0.00  0.00     0.000 A 
ATOM     12  C   UNL d   1     -52.445  26.207  33.540  0.00  0.00     0.002 A 
ENDBRANCH   3   6
BRANCH   1  13
ATOM     13  S   UNL d   1     -52.367  24.638  33.982  0.00  0.00     0.266 S 
ATOM     14  O   UNL d   1     -52.454  24.197  33.306  0.00  0.00    -0.203 OA
ATOM     15  O   UNL d   1     -52.295  25.092  34.687  0.00  0.00    -0.203 OA
ATOM     16  C   UNL d   1     -53.197  24.518  34.184  0.00  0.00     0.165 C 
ENDBRANCH   1  13
BRANCH   4  17
ATOM     17  C   UNL d   1     -49.562  24.141  33.525  0.00  0.00     0.049 A 
ATOM     18  S   UNL d   1     -49.454  23.334  33.573  0.00  0.00    -0.085 SA
ATOM     19  C   UNL d   1     -48.646  23.190  33.478  0.00  0.00     0.035 A 
ATOM     20  C   UNL d   1     -48.253  23.912  33.371  0.00  0.00     0.007 A 
ATOM     21  C   UNL d   1     -48.816  24.486  33.401  0.00  0.00     0.009 A 
ENDBRANCH   4  17
TORSDOF 3
ENDMDL
