MODEL 1
REMARK VINA RESULT:      -2.7      0.000      0.000
REMARK  6 active torsions:
REMARK  status: ('A' for Active; 'I' for Inactive)
REMARK    1  A    between atoms: N_2  and  C_1 
REMARK    2  A    between atoms: N_3  and  C_1 
REMARK       I    between atoms: C_4  and  N_2 
REMARK    3  A    between atoms: C_5  and  N_3 
REMARK    4  A    between atoms: C_14  and  C_4 
REMARK    5  A    between atoms: C_8  and  O_10 
REMARK    6  A    between atoms: O_10  and  C_14 
ROOT
ATOM      1  N   UNL d   1      32.218  18.377 -23.254  0.00  0.00    -0.177 NA
ATOM      2  C   UNL d   1      32.771  18.994 -23.238  0.00  0.00     0.306 C 
ATOM      3  O   UNL d   1      33.239  19.132 -23.937  0.00  0.00    -0.263 OA
ENDROOT
BRANCH   2   4
ATOM      4  C   UNL d   1      32.887  19.473 -22.583  0.00  0.00     0.185 C 
BRANCH   4   5
ATOM      5  O   UNL d   1      32.980  20.282 -22.645  0.00  0.00    -0.300 OA
BRANCH   5   6
ATOM      6  C   UNL d   1      33.040  20.745 -21.988  0.00  0.00     0.106 A 
ATOM      7  C   UNL d   1      33.173  21.582 -22.064  0.00  0.00     0.057 A 
ATOM      8  C   UNL d   1      33.231  22.036 -21.366  0.00  0.00     0.009 A 
ATOM      9 BR   UNL d   1      33.241  21.925 -22.824  0.00  0.00    -0.047 Br
ATOM     10  C   UNL d   1      33.170  21.730 -20.645  0.00  0.00     0.001 A 
ATOM     11  C   UNL d   1      33.035  20.883 -20.572  0.00  0.00     0.002 A 
ATOM     12  C   UNL d   1      33.231  22.200 -19.960  0.00  0.00     0.000 C 
ATOM     13  C   UNL d   1      32.977  20.431 -21.254  0.00  0.00     0.025 A 
ENDBRANCH   5   6
ENDBRANCH   4   5
ENDBRANCH   2   4
BRANCH   1  14
ATOM     14  C   UNL d   1      32.115  17.904 -23.921  0.00  0.00     0.225 C 
ATOM     15  S   UNL d   1      31.849  18.242 -24.639  0.00  0.00    -0.037 SA
BRANCH  14  16
ATOM     16  N   UNL d   1      32.277  17.100 -23.869  0.00  0.00    -0.198 NA
BRANCH  16  17
ATOM     17  C   UNL d   1      31.649  16.549 -23.920  0.00  0.00     0.165 A 
ATOM     18  N   UNL d   1      31.315  16.336 -24.669  0.00  0.00    -0.225 NA
ATOM     19  C   UNL d   1      30.698  15.793 -24.709  0.00  0.00     0.101 A 
ATOM     20  C   UNL d   1      30.411  15.462 -24.010  0.00  0.00     0.021 A 
ATOM     21  C   UNL d   1      30.745  15.676 -23.283  0.00  0.00     0.005 A 
ATOM     22  C   UNL d   1      31.349  16.207 -23.237  0.00  0.00     0.039 A 
ENDBRANCH  16  17
ENDBRANCH  14  16
ENDBRANCH   1  14
TORSDOF 6
ENDMDL
MODEL 2
REMARK VINA RESULT:      -2.4      0.989      1.192
REMARK  6 active torsions:
REMARK  status: ('A' for Active; 'I' for Inactive)
REMARK    1  A    between atoms: N_2  and  C_1 
REMARK    2  A    between atoms: N_3  and  C_1 
REMARK       I    between atoms: C_4  and  N_2 
REMARK    3  A    between atoms: C_5  and  N_3 
REMARK    4  A    between atoms: C_14  and  C_4 
REMARK    5  A    between atoms: C_8  and  O_10 
REMARK    6  A    between atoms: O_10  and  C_14 
ROOT
ATOM      1  N   UNL d   1      31.912  17.576 -23.424  0.00  0.00    -0.177 NA
ATOM      2  C   UNL d   1      32.638  17.976 -23.399  0.00  0.00     0.306 C 
ATOM      3  O   UNL d   1      33.239  17.753 -23.961  0.00  0.00    -0.263 OA
ENDROOT
BRANCH   2   4
ATOM      4  C   UNL d   1      32.800  18.572 -22.861  0.00  0.00     0.185 C 
BRANCH   4   5
ATOM      5  O   UNL d   1      32.998  19.330 -23.095  0.00  0.00    -0.300 OA
BRANCH   5   6
ATOM      6  C   UNL d   1      33.049  19.930 -22.560  0.00  0.00     0.106 A 
ATOM      7  C   UNL d   1      33.173  20.730 -22.823  0.00  0.00     0.057 A 
ATOM      8  C   UNL d   1      33.223  21.330 -22.246  0.00  0.00     0.009 A 
ATOM      9 BR   UNL d   1      33.241  20.892 -23.641  0.00  0.00    -0.047 Br
ATOM     10  C   UNL d   1      33.161  21.195 -21.475  0.00  0.00     0.001 A 
ATOM     11  C   UNL d   1      33.036  20.385 -21.212  0.00  0.00     0.002 A 
ATOM     12  C   UNL d   1      33.214  21.809 -20.913  0.00  0.00     0.000 C 
ATOM     13  C   UNL d   1      32.987  19.790 -21.774  0.00  0.00     0.025 A 
ENDBRANCH   5   6
ENDBRANCH   4   5
ENDBRANCH   2   4
BRANCH   1  14
ATOM     14  C   UNL d   1      31.765  16.979 -23.971  0.00  0.00     0.225 C 
ATOM     15  S   UNL d   1      32.075  17.032 -24.747  0.00  0.00    -0.037 SA
BRANCH  14  16
ATOM     16  N   UNL d   1      31.310  16.332 -23.744  0.00  0.00    -0.198 NA
BRANCH  16  17
ATOM     17  C   UNL d   1      30.488  16.331 -23.900  0.00  0.00     0.165 A 
ATOM     18  N   UNL d   1      30.194  16.434 -24.687  0.00  0.00    -0.225 NA
ATOM     19  C   UNL d   1      29.383  16.432 -24.831  0.00  0.00     0.101 A 
ATOM     20  C   UNL d   1      28.865  16.328 -24.198  0.00  0.00     0.021 A 
ATOM     21  C   UNL d   1      29.163  16.228 -23.431  0.00  0.00     0.005 A 
ATOM     22  C   UNL d   1      29.956  16.230 -23.284  0.00  0.00     0.039 A 
ENDBRANCH  16  17
ENDBRANCH  14  16
ENDBRANCH   1  14
TORSDOF 6
ENDMDL
MODEL 3
REMARK VINA RESULT:      -0.2      2.355      5.358
REMARK  6 active torsions:
REMARK  status: ('A' for Active; 'I' for Inactive)
REMARK    1  A    between atoms: N_2  and  C_1 
REMARK    2  A    between atoms: N_3  and  C_1 
REMARK       I    between atoms: C_4  and  N_2 
REMARK    3  A    between atoms: C_5  and  N_3 
REMARK    4  A    between atoms: C_14  and  C_4 
REMARK    5  A    between atoms: C_8  and  O_10 
REMARK    6  A    between atoms: O_10  and  C_14 
ROOT
ATOM      1  N   UNL d   1      33.191  20.427 -21.834  0.00  0.00    -0.177 NA
ATOM      2  C   UNL d   1      32.873  19.663 -21.873  0.00  0.00     0.306 C 
ATOM      3  O   UNL d   1      32.218  19.474 -21.361  0.00  0.00    -0.263 OA
ENDROOT
BRANCH   2   4
ATOM      4  C   UNL d   1      33.159  19.086 -22.379  0.00  0.00     0.185 C 
BRANCH   4   5
ATOM      5  O   UNL d   1      32.894  19.008 -23.148  0.00  0.00    -0.300 OA
BRANCH   5   6
ATOM      6  C   UNL d   1      32.906  18.296 -23.522  0.00  0.00     0.106 A 
ATOM      7  C   UNL d   1      32.587  18.217 -24.307  0.00  0.00     0.057 A 
ATOM      8  C   UNL d   1      32.613  17.466 -24.670  0.00  0.00     0.009 A 
ATOM      9 BR   UNL d   1      32.259  18.885 -24.691  0.00  0.00    -0.047 Br
ATOM     10  C   UNL d   1      32.916  16.830 -24.324  0.00  0.00     0.001 A 
ATOM     11  C   UNL d   1      33.239  16.912 -23.530  0.00  0.00     0.002 A 
ATOM     12  C   UNL d   1      32.934  16.087 -24.702  0.00  0.00     0.000 C 
ATOM     13  C   UNL d   1      33.216  17.648 -23.168  0.00  0.00     0.025 A 
ENDBRANCH   5   6
ENDBRANCH   4   5
ENDBRANCH   2   4
BRANCH   1  14
ATOM     14  C   UNL d   1      32.891  20.996 -21.318  0.00  0.00     0.225 C 
ATOM     15  S   UNL d   1      32.240  20.815 -20.824  0.00  0.00    -0.037 SA
BRANCH  14  16
ATOM     16  N   UNL d   1      33.240  21.740 -21.298  0.00  0.00    -0.198 NA
BRANCH  16  17
ATOM     17  C   UNL d   1      32.822  22.400 -21.599  0.00  0.00     0.165 A 
ATOM     18  N   UNL d   1      32.876  22.615 -22.416  0.00  0.00    -0.225 NA
ATOM     19  C   UNL d   1      32.461  23.265 -22.703  0.00  0.00     0.101 A 
ATOM     20  C   UNL d   1      31.994  23.702 -22.182  0.00  0.00     0.021 A 
ATOM     21  C   UNL d   1      31.948  23.484 -21.384  0.00  0.00     0.005 A 
ATOM     22  C   UNL d   1      32.352  22.848 -21.098  0.00  0.00     0.039 A 
ENDBRANCH  16  17
ENDBRANCH  14  16
ENDBRANCH   1  14
TORSDOF 6
ENDMDL
MODEL 4
REMARK VINA RESULT:       0.1      3.025      6.006
REMARK  6 active torsions:
REMARK  status: ('A' for Active; 'I' for Inactive)
REMARK    1  A    between atoms: N_2  and  C_1 
REMARK    2  A    between atoms: N_3  and  C_1 
REMARK       I    between atoms: C_4  and  N_2 
REMARK    3  A    between atoms: C_5  and  N_3 
REMARK    4  A    between atoms: C_14  and  C_4 
REMARK    5  A    between atoms: C_8  and  O_10 
REMARK    6  A    between atoms: O_10  and  C_14 
ROOT
ATOM      1  N   UNL d   1      33.097  21.733 -20.648  0.00  0.00    -0.177 NA
ATOM      2  C   UNL d   1      32.644  21.389 -21.250  0.00  0.00     0.306 C 
ATOM      3  O   UNL d   1      31.884  21.731 -21.426  0.00  0.00    -0.263 OA
ENDROOT
BRANCH   2   4
ATOM      4  C   UNL d   1      32.895  20.738 -21.680  0.00  0.00     0.185 C 
BRANCH   4   5
ATOM      5  O   UNL d   1      32.631  20.587 -22.438  0.00  0.00    -0.300 OA
BRANCH   5   6
ATOM      6  C   UNL d   1      32.778  19.881 -22.797  0.00  0.00     0.106 A 
ATOM      7  C   UNL d   1      33.033  19.857 -23.608  0.00  0.00     0.057 A 
ATOM      8  C   UNL d   1      33.178  19.111 -23.953  0.00  0.00     0.009 A 
ATOM      9 BR   UNL d   1      33.132  20.571 -24.034  0.00  0.00    -0.047 Br
ATOM     10  C   UNL d   1      33.091  18.432 -23.568  0.00  0.00     0.001 A 
ATOM     11  C   UNL d   1      32.832  18.460 -22.748  0.00  0.00     0.002 A 
ATOM     12  C   UNL d   1      33.240  17.697 -23.930  0.00  0.00     0.000 C 
ATOM     13  C   UNL d   1      32.688  19.190 -22.403  0.00  0.00     0.025 A 
ENDBRANCH   5   6
ENDBRANCH   4   5
ENDBRANCH   2   4
BRANCH   1  14
ATOM     14  C   UNL d   1      32.830  22.388 -20.225  0.00  0.00     0.225 C 
ATOM     15  S   UNL d   1      33.004  23.162 -20.493  0.00  0.00    -0.037 SA
BRANCH  14  16
ATOM     16  N   UNL d   1      32.392  22.269 -19.539  0.00  0.00    -0.198 NA
BRANCH  16  17
ATOM     17  C   UNL d   1      32.643  22.621 -18.823  0.00  0.00     0.165 A 
ATOM     18  N   UNL d   1      32.538  22.224 -18.082  0.00  0.00    -0.225 NA
ATOM     19  C   UNL d   1      32.789  22.578 -17.382  0.00  0.00     0.101 A 
ATOM     20  C   UNL d   1      33.142  23.322 -17.415  0.00  0.00     0.021 A 
ATOM     21  C   UNL d   1      33.241  23.702 -18.145  0.00  0.00     0.005 A 
ATOM     22  C   UNL d   1      32.997  23.360 -18.833  0.00  0.00     0.039 A 
ENDBRANCH  16  17
ENDBRANCH  14  16
ENDBRANCH   1  14
TORSDOF 6
ENDMDL
