MODEL 1
REMARK VINA RESULT:      -2.9      0.000      0.000
REMARK  5 active torsions:
REMARK  status: ('A' for Active; 'I' for Inactive)
REMARK    1  A    between atoms: N_2  and  S_1 
REMARK    2  A    between atoms: C_6  and  S_1 
REMARK    3  A    between atoms: C_3  and  N_2 
REMARK    4  A    between atoms: N_4  and  C_5 
REMARK    5  A    between atoms: C_9  and  N_4 
ROOT
ATOM      1  C   UNL d   1      32.990  19.338 -23.288  0.00  0.00     0.110 A 
ATOM      2  C   UNL d   1      32.971  18.633 -23.714  0.00  0.00     0.083 A 
ATOM      3  C   UNL d   1      33.126  20.043 -23.698  0.00  0.00     0.021 A 
ATOM      4  C   UNL d   1      33.084  18.629 -24.527  0.00  0.00     0.019 A 
ATOM      5  C   UNL d   1      33.239  20.040 -24.512  0.00  0.00     0.002 A 
ATOM      6  C   UNL d   1      33.218  19.331 -24.933  0.00  0.00     0.002 A 
ENDROOT
BRANCH   1   7
ATOM      7  N   UNL d   1      32.877  19.342 -22.474  0.00  0.00    -0.157 NA
BRANCH   7   8
ATOM      8  S   UNL d   1      32.798  20.054 -22.070  0.00  0.00     0.285 S 
ATOM      9  O   UNL d   1      33.241  19.736 -21.427  0.00  0.00    -0.198 OA
ATOM     10  O   UNL d   1      32.363  20.365 -22.701  0.00  0.00    -0.198 OA
BRANCH   8  11
ATOM     11  C   UNL d   1      32.718  20.783 -21.654  0.00  0.00     0.105 A 
ATOM     12  C   UNL d   1      32.139  20.861 -21.049  0.00  0.00     0.014 A 
ATOM     13  C   UNL d   1      32.068  21.575 -20.649  0.00  0.00     0.012 A 
ATOM     14  C   UNL d   1      32.551  22.209 -20.829  0.00  0.00     0.058 A 
ATOM     15  C   UNL d   1      33.129  22.131 -21.435  0.00  0.00     0.012 A 
ATOM     16 CL   UNL d   1      32.471  22.912 -20.426  0.00  0.00    -0.082 Cl
ATOM     17  C   UNL d   1      33.215  21.420 -21.848  0.00  0.00     0.014 A 
ENDBRANCH   8  11
ENDBRANCH   7   8
ENDBRANCH   1   7
BRANCH   2  18
ATOM     18  N   UNL d   1      32.831  17.909 -23.288  0.00  0.00    -0.303 N 
ATOM     19  C   UNL d   1      33.239  17.804 -22.604  0.00  0.00     0.100 C 
BRANCH  18  20
ATOM     20  C   UNL d   1      32.301  17.349 -23.570  0.00  0.00     0.064 A 
ATOM     21  C   UNL d   1      31.511  17.527 -23.591  0.00  0.00     0.018 A 
ATOM     22  C   UNL d   1      30.961  16.978 -23.871  0.00  0.00     0.002 A 
ATOM     23  C   UNL d   1      31.216  16.235 -24.134  0.00  0.00     0.000 A 
ATOM     24  C   UNL d   1      32.020  16.054 -24.112  0.00  0.00     0.002 A 
ATOM     25  C   UNL d   1      32.569  16.608 -23.831  0.00  0.00     0.018 A 
ENDBRANCH  18  20
ENDBRANCH   2  18
TORSDOF 5
ENDMDL
MODEL 2
REMARK VINA RESULT:      -0.6      1.319      2.011
REMARK  5 active torsions:
REMARK  status: ('A' for Active; 'I' for Inactive)
REMARK    1  A    between atoms: N_2  and  S_1 
REMARK    2  A    between atoms: C_6  and  S_1 
REMARK    3  A    between atoms: C_3  and  N_2 
REMARK    4  A    between atoms: N_4  and  C_5 
REMARK    5  A    between atoms: C_9  and  N_4 
ROOT
ATOM      1  C   UNL d   1      32.100  18.610 -24.504  0.00  0.00     0.110 A 
ATOM      2  C   UNL d   1      31.970  17.810 -24.653  0.00  0.00     0.083 A 
ATOM      3  C   UNL d   1      31.465  19.134 -24.576  0.00  0.00     0.021 A 
ATOM      4  C   UNL d   1      31.226  17.539 -24.870  0.00  0.00     0.019 A 
ATOM      5  C   UNL d   1      30.721  18.863 -24.793  0.00  0.00     0.002 A 
ATOM      6  C   UNL d   1      30.595  18.061 -24.942  0.00  0.00     0.002 A 
ENDROOT
BRANCH   1   7
ATOM      7  N   UNL d   1      32.845  18.881 -24.286  0.00  0.00    -0.157 NA
BRANCH   7   8
ATOM      8  S   UNL d   1      32.924  19.586 -23.869  0.00  0.00     0.285 S 
ATOM      9  O   UNL d   1      33.108  19.987 -24.588  0.00  0.00    -0.198 OA
ATOM     10  O   UNL d   1      32.744  19.191 -23.166  0.00  0.00    -0.198 OA
BRANCH   8  11
ATOM     11  C   UNL d   1      33.005  20.309 -23.444  0.00  0.00     0.105 A 
ATOM     12  C   UNL d   1      32.933  20.315 -22.606  0.00  0.00     0.014 A 
ATOM     13  C   UNL d   1      33.013  21.024 -22.200  0.00  0.00     0.012 A 
ATOM     14  C   UNL d   1      33.162  21.723 -22.597  0.00  0.00     0.058 A 
ATOM     15  C   UNL d   1      33.234  21.717 -23.435  0.00  0.00     0.012 A 
ATOM     16 CL   UNL d   1      33.240  22.420 -22.184  0.00  0.00    -0.082 Cl
ATOM     17  C   UNL d   1      33.156  21.012 -23.860  0.00  0.00     0.014 A 
ENDBRANCH   8  11
ENDBRANCH   7   8
ENDBRANCH   1   7
BRANCH   2  18
ATOM     18  N   UNL d   1      32.626  17.273 -24.577  0.00  0.00    -0.303 N 
ATOM     19  C   UNL d   1      33.233  17.363 -25.097  0.00  0.00     0.100 C 
BRANCH  18  20
ATOM     20  C   UNL d   1      32.632  16.692 -23.997  0.00  0.00     0.064 A 
ATOM     21  C   UNL d   1      33.164  16.748 -23.389  0.00  0.00     0.018 A 
ATOM     22  C   UNL d   1      33.187  16.174 -22.794  0.00  0.00     0.002 A 
ATOM     23  C   UNL d   1      32.662  15.534 -22.817  0.00  0.00     0.000 A 
ATOM     24  C   UNL d   1      32.121  15.478 -23.437  0.00  0.00     0.002 A 
ATOM     25  C   UNL d   1      32.101  16.056 -24.032  0.00  0.00     0.018 A 
ENDBRANCH  18  20
ENDBRANCH   2  18
TORSDOF 5
ENDMDL
