MODEL 1
REMARK VINA RESULT:      -5.0      0.000      0.000
REMARK  2 active torsions:
REMARK  status: ('A' for Active; 'I' for Inactive)
REMARK    1  A    between atoms: C_7  and  C_1 
REMARK    2  A    between atoms: C_11  and  C_7 
ROOT
ATOM      1  C   UNL d   1      57.228  -0.342  32.148  0.00  0.00     0.116 A 
ATOM      2  N   UNL d   1      57.296  -0.406  30.732  0.00  0.00    -0.152 NA
ATOM      3  N   UNL d   1      58.029   0.616  31.446  0.00  0.00    -0.152 NA
ATOM      4  C   UNL d   1      57.023  -0.682  31.450  0.00  0.00     0.288 A 
ATOM      5  C   UNL d   1      57.734   0.311  32.148  0.00  0.00     0.288 A 
ATOM      6  C   UNL d   1      57.816   0.264  30.732  0.00  0.00     0.374 A 
ATOM      7  O   UNL d   1      57.962   0.682  32.864  0.00  0.00    -0.265 OA
ATOM      8  O   UNL d   1      56.509  -1.345  31.461  0.00  0.00    -0.265 OA
ATOM      9  O   UNL d   1      58.126   0.589  30.030  0.00  0.00    -0.242 OA
ENDROOT
BRANCH   1  10
ATOM     10  C   UNL d   1      56.935  -0.642  32.875  0.00  0.00     0.010 C 
BRANCH  10  11
ATOM     11  C   UNL d   1      56.248  -0.311  33.188  0.00  0.00     0.000 A 
ATOM     12  C   UNL d   1      56.298   0.354  33.663  0.00  0.00     0.002 A 
ATOM     13  C   UNL d   1      55.619   0.682  33.973  0.00  0.00     0.030 A 
ATOM     14  C   UNL d   1      54.880   0.343  33.808  0.00  0.00     0.140 A 
ATOM     15  C   UNL d   1      54.830  -0.322  33.334  0.00  0.00     0.030 A 
ATOM     16  F   UNL d   1      54.164   0.663  34.117  0.00  0.00    -0.204 F 
ATOM     17  C   UNL d   1      55.509  -0.650  33.023  0.00  0.00     0.002 A 
ENDBRANCH  10  11
ENDBRANCH   1  10
TORSDOF 2
ENDMDL
MODEL 2
REMARK VINA RESULT:      -4.5      1.302      1.669
REMARK  2 active torsions:
REMARK  status: ('A' for Active; 'I' for Inactive)
REMARK    1  A    between atoms: C_7  and  C_1 
REMARK    2  A    between atoms: C_11  and  C_7 
ROOT
ATOM      1  C   UNL d   1      57.701   0.571  31.413  0.00  0.00     0.116 A 
ATOM      2  N   UNL d   1      58.393   0.373  30.190  0.00  0.00    -0.152 NA
ATOM      3  N   UNL d   1      59.130   0.476  31.430  0.00  0.00    -0.152 NA
ATOM      4  C   UNL d   1      57.704   0.472  30.616  0.00  0.00     0.288 A 
ATOM      5  C   UNL d   1      58.417   0.573  31.824  0.00  0.00     0.288 A 
ATOM      6  C   UNL d   1      59.129   0.375  30.612  0.00  0.00     0.374 A 
ATOM      7  O   UNL d   1      58.438   0.674  32.656  0.00  0.00    -0.265 OA
ATOM      8  O   UNL d   1      56.972   0.471  30.207  0.00  0.00    -0.265 OA
ATOM      9  O   UNL d   1      59.864   0.279  30.231  0.00  0.00    -0.242 OA
ENDROOT
BRANCH   1  10
ATOM     10  C   UNL d   1      56.980   0.671  31.830  0.00  0.00     0.010 C 
BRANCH  10  11
ATOM     11  C   UNL d   1      56.638   0.011  32.189  0.00  0.00     0.000 A 
ATOM     12  C   UNL d   1      56.266   0.091  32.913  0.00  0.00     0.002 A 
ATOM     13  C   UNL d   1      55.928  -0.561  33.268  0.00  0.00     0.030 A 
ATOM     14  C   UNL d   1      55.961  -1.301  32.895  0.00  0.00     0.140 A 
ATOM     15  C   UNL d   1      56.333  -1.381  32.171  0.00  0.00     0.030 A 
ATOM     16  F   UNL d   1      55.619  -1.990  33.242  0.00  0.00    -0.204 F 
ATOM     17  C   UNL d   1      56.671  -0.729  31.816  0.00  0.00     0.002 A 
ENDBRANCH  10  11
ENDBRANCH   1  10
TORSDOF 2
ENDMDL
MODEL 3
REMARK VINA RESULT:      -4.4      8.885      9.583
REMARK  2 active torsions:
REMARK  status: ('A' for Active; 'I' for Inactive)
REMARK    1  A    between atoms: C_7  and  C_1 
REMARK    2  A    between atoms: C_11  and  C_7 
ROOT
ATOM      1  C   UNL d   1      59.937  -9.236  34.433  0.00  0.00     0.116 A 
ATOM      2  N   UNL d   1      60.168  -9.222  33.032  0.00  0.00    -0.152 NA
ATOM      3  N   UNL d   1      58.950  -9.796  33.560  0.00  0.00    -0.152 NA
ATOM      4  C   UNL d   1      60.394  -9.053  33.798  0.00  0.00     0.288 A 
ATOM      5  C   UNL d   1      59.211  -9.610  34.315  0.00  0.00     0.288 A 
ATOM      6  C   UNL d   1      59.422  -9.606  32.912  0.00  0.00     0.374 A 
ATOM      7  O   UNL d   1      58.718  -9.811  34.962  0.00  0.00    -0.265 OA
ATOM      8  O   UNL d   1      61.131  -8.673  33.928  0.00  0.00    -0.265 OA
ATOM      9  O   UNL d   1      59.138  -9.804  32.153  0.00  0.00    -0.242 OA
ENDROOT
BRANCH   1  10
ATOM     10  C   UNL d   1      60.191  -9.052  35.211  0.00  0.00     0.010 C 
BRANCH  10  11
ATOM     11  C   UNL d   1      60.079  -8.284  35.490  0.00  0.00     0.000 A 
ATOM     12  C   UNL d   1      60.721  -7.782  35.564  0.00  0.00     0.002 A 
ATOM     13  C   UNL d   1      60.612  -7.023  35.839  0.00  0.00     0.030 A 
ATOM     14  C   UNL d   1      59.852  -6.759  36.043  0.00  0.00     0.140 A 
ATOM     15  C   UNL d   1      59.210  -7.261  35.969  0.00  0.00     0.030 A 
ATOM     16  F   UNL d   1      59.712  -5.979  36.330  0.00  0.00    -0.204 F 
ATOM     17  C   UNL d   1      59.319  -8.021  35.694  0.00  0.00     0.002 A 
ENDBRANCH  10  11
ENDBRANCH   1  10
TORSDOF 2
ENDMDL
MODEL 4
REMARK VINA RESULT:      -3.9      2.143      3.444
REMARK  2 active torsions:
REMARK  status: ('A' for Active; 'I' for Inactive)
REMARK    1  A    between atoms: C_7  and  C_1 
REMARK    2  A    between atoms: C_11  and  C_7 
ROOT
ATOM      1  C   UNL d   1      56.424  -0.292  33.265  0.00  0.00     0.116 A 
ATOM      2  N   UNL d   1      55.814   0.640  34.144  0.00  0.00    -0.152 NA
ATOM      3  N   UNL d   1      55.011  -0.361  33.478  0.00  0.00    -0.152 NA
ATOM      4  C   UNL d   1      56.470   0.333  33.768  0.00  0.00     0.288 A 
ATOM      5  C   UNL d   1      55.691  -0.642  33.118  0.00  0.00     0.288 A 
ATOM      6  C   UNL d   1      55.061   0.280  33.993  0.00  0.00     0.374 A 
ATOM      7  O   UNL d   1      55.620  -1.295  32.597  0.00  0.00    -0.265 OA
ATOM      8  O   UNL d   1      57.219   0.682  33.911  0.00  0.00    -0.265 OA
ATOM      9  O   UNL d   1      54.357   0.550  34.349  0.00  0.00    -0.242 OA
ENDROOT
BRANCH   1  10
ATOM     10  C   UNL d   1      57.112  -0.591  32.889  0.00  0.00     0.010 C 
BRANCH  10  11
ATOM     11  C   UNL d   1      57.336  -0.268  32.163  0.00  0.00     0.000 A 
ATOM     12  C   UNL d   1      57.894   0.329  32.139  0.00  0.00     0.002 A 
ATOM     13  C   UNL d   1      58.115   0.649  31.422  0.00  0.00     0.030 A 
ATOM     14  C   UNL d   1      57.774   0.368  30.719  0.00  0.00     0.140 A 
ATOM     15  C   UNL d   1      57.216  -0.229  30.743  0.00  0.00     0.030 A 
ATOM     16  F   UNL d   1      57.986   0.682  29.966  0.00  0.00    -0.204 F 
ATOM     17  C   UNL d   1      56.995  -0.549  31.460  0.00  0.00     0.002 A 
ENDBRANCH  10  11
ENDBRANCH   1  10
TORSDOF 2
ENDMDL
MODEL 5
REMARK VINA RESULT:      -3.8      8.767      9.502
REMARK  2 active torsions:
REMARK  status: ('A' for Active; 'I' for Inactive)
REMARK    1  A    between atoms: C_7  and  C_1 
REMARK    2  A    between atoms: C_11  and  C_7 
ROOT
ATOM      1  C   UNL d   1      59.899  -7.610  35.858  0.00  0.00     0.116 A 
ATOM      2  N   UNL d   1      60.910  -6.704  36.271  0.00  0.00    -0.152 NA
ATOM      3  N   UNL d   1      59.644  -6.203  35.787  0.00  0.00    -0.152 NA
ATOM      4  C   UNL d   1      60.634  -7.461  36.148  0.00  0.00     0.288 A 
ATOM      5  C   UNL d   1      59.400  -6.978  35.675  0.00  0.00     0.288 A 
ATOM      6  C   UNL d   1      60.397  -6.055  36.084  0.00  0.00     0.374 A 
ATOM      7  O   UNL d   1      58.630  -7.109  35.372  0.00  0.00    -0.265 OA
ATOM      8  O   UNL d   1      61.134  -8.110  36.330  0.00  0.00    -0.265 OA
ATOM      9  O   UNL d   1      60.625  -5.260  36.190  0.00  0.00    -0.242 OA
ENDROOT
BRANCH   1  10
ATOM     10  C   UNL d   1      59.636  -8.398  35.739  0.00  0.00     0.010 C 
BRANCH  10  11
ATOM     11  C   UNL d   1      59.756  -8.745  35.000  0.00  0.00     0.000 A 
ATOM     12  C   UNL d   1      59.115  -8.906  34.518  0.00  0.00     0.002 A 
ATOM     13  C   UNL d   1      59.233  -9.249  33.788  0.00  0.00     0.030 A 
ATOM     14  C   UNL d   1      60.001  -9.435  33.535  0.00  0.00     0.140 A 
ATOM     15  C   UNL d   1      60.642  -9.274  34.017  0.00  0.00     0.030 A 
ATOM     16  F   UNL d   1      60.149  -9.790  32.785  0.00  0.00    -0.204 F 
ATOM     17  C   UNL d   1      60.524  -8.931  34.747  0.00  0.00     0.002 A 
ENDBRANCH  10  11
ENDBRANCH   1  10
TORSDOF 2
ENDMDL
MODEL 6
REMARK VINA RESULT:      -3.3      2.091      2.890
REMARK  2 active torsions:
REMARK  status: ('A' for Active; 'I' for Inactive)
REMARK    1  A    between atoms: C_7  and  C_1 
REMARK    2  A    between atoms: C_11  and  C_7 
ROOT
ATOM      1  C   UNL d   1      58.798   0.260  29.850  0.00  0.00     0.116 A 
ATOM      2  N   UNL d   1      59.311  -0.539  28.796  0.00  0.00    -0.152 NA
ATOM      3  N   UNL d   1      60.178  -0.119  29.873  0.00  0.00    -0.152 NA
ATOM      4  C   UNL d   1      58.700  -0.139  29.160  0.00  0.00     0.288 A 
ATOM      5  C   UNL d   1      59.541   0.272  30.211  0.00  0.00     0.288 A 
ATOM      6  C   UNL d   1      60.074  -0.528  29.165  0.00  0.00     0.374 A 
ATOM      7  O   UNL d   1      59.666   0.682  30.930  0.00  0.00    -0.265 OA
ATOM      8  O   UNL d   1      57.941  -0.145  28.802  0.00  0.00    -0.265 OA
ATOM      9  O   UNL d   1      60.734  -0.918  28.840  0.00  0.00    -0.242 OA
ENDROOT
BRANCH   1  10
ATOM     10  C   UNL d   1      58.155   0.665  30.207  0.00  0.00     0.010 C 
BRANCH  10  11
ATOM     11  C   UNL d   1      57.761   0.301  30.834  0.00  0.00     0.000 A 
ATOM     12  C   UNL d   1      57.709   0.681  31.556  0.00  0.00     0.002 A 
ATOM     13  C   UNL d   1      57.320   0.322  32.176  0.00  0.00     0.030 A 
ATOM     14  C   UNL d   1      56.977  -0.427  32.074  0.00  0.00     0.140 A 
ATOM     15  C   UNL d   1      57.028  -0.807  31.352  0.00  0.00     0.030 A 
ATOM     16  F   UNL d   1      56.569  -0.819  32.699  0.00  0.00    -0.204 F 
ATOM     17  C   UNL d   1      57.418  -0.448  30.732  0.00  0.00     0.002 A 
ENDBRANCH  10  11
ENDBRANCH   1  10
TORSDOF 2
ENDMDL
MODEL 7
REMARK VINA RESULT:      -3.2      2.140      3.583
REMARK  2 active torsions:
REMARK  status: ('A' for Active; 'I' for Inactive)
REMARK    1  A    between atoms: C_7  and  C_1 
REMARK    2  A    between atoms: C_11  and  C_7 
ROOT
ATOM      1  C   UNL d   1      56.652  -0.074  32.270  0.00  0.00     0.116 A 
ATOM      2  N   UNL d   1      56.223  -0.682  33.479  0.00  0.00    -0.152 NA
ATOM      3  N   UNL d   1      56.242  -1.446  32.251  0.00  0.00    -0.152 NA
ATOM      4  C   UNL d   1      56.502  -0.041  33.059  0.00  0.00     0.288 A 
ATOM      5  C   UNL d   1      56.522  -0.780  31.862  0.00  0.00     0.288 A 
ATOM      6  C   UNL d   1      56.089  -1.407  33.060  0.00  0.00     0.374 A 
ATOM      7  O   UNL d   1      56.671  -0.838  31.040  0.00  0.00    -0.265 OA
ATOM      8  O   UNL d   1      56.638   0.681  33.464  0.00  0.00    -0.265 OA
ATOM      9  O   UNL d   1      55.805  -2.095  33.436  0.00  0.00    -0.242 OA
ENDROOT
BRANCH   1  10
ATOM     10  C   UNL d   1      56.939   0.599  31.859  0.00  0.00     0.010 C 
BRANCH  10  11
ATOM     11  C   UNL d   1      57.724   0.600  31.606  0.00  0.00     0.000 A 
ATOM     12  C   UNL d   1      57.893   0.520  30.809  0.00  0.00     0.002 A 
ATOM     13  C   UNL d   1      58.669   0.521  30.559  0.00  0.00     0.030 A 
ATOM     14  C   UNL d   1      59.284   0.602  31.109  0.00  0.00     0.140 A 
ATOM     15  C   UNL d   1      59.115   0.682  31.906  0.00  0.00     0.030 A 
ATOM     16  F   UNL d   1      60.094   0.606  30.875  0.00  0.00    -0.204 F 
ATOM     17  C   UNL d   1      58.339   0.681  32.156  0.00  0.00     0.002 A 
ENDBRANCH  10  11
ENDBRANCH   1  10
TORSDOF 2
ENDMDL
MODEL 8
REMARK VINA RESULT:      -2.8      3.802      4.907
REMARK  2 active torsions:
REMARK  status: ('A' for Active; 'I' for Inactive)
REMARK    1  A    between atoms: C_7  and  C_1 
REMARK    2  A    between atoms: C_11  and  C_7 
ROOT
ATOM      1  C   UNL d   1      59.590  -2.104  28.781  0.00  0.00     0.116 A 
ATOM      2  N   UNL d   1      60.923  -2.548  28.978  0.00  0.00    -0.152 NA
ATOM      3  N   UNL d   1      59.816  -3.434  29.262  0.00  0.00    -0.152 NA
ATOM      4  C   UNL d   1      60.382  -1.977  28.759  0.00  0.00     0.288 A 
ATOM      5  C   UNL d   1      59.303  -2.836  29.034  0.00  0.00     0.288 A 
ATOM      6  C   UNL d   1      60.629  -3.300  29.238  0.00  0.00     0.374 A 
ATOM      7  O   UNL d   1      58.480  -2.991  29.066  0.00  0.00    -0.265 OA
ATOM      8  O   UNL d   1      60.664  -1.230  28.501  0.00  0.00    -0.265 OA
ATOM      9  O   UNL d   1      61.133  -3.920  29.473  0.00  0.00    -0.242 OA
ENDROOT
BRANCH   1  10
ATOM     10  C   UNL d   1      59.052  -1.503  28.551  0.00  0.00     0.010 C 
BRANCH  10  11
ATOM     11  C   UNL d   1      58.811  -0.953  29.117  0.00  0.00     0.000 A 
ATOM     12  C   UNL d   1      59.131  -0.200  29.113  0.00  0.00     0.002 A 
ATOM     13  C   UNL d   1      58.893   0.344  29.672  0.00  0.00     0.030 A 
ATOM     14  C   UNL d   1      58.330   0.134  30.243  0.00  0.00     0.140 A 
ATOM     15  C   UNL d   1      58.010  -0.619  30.248  0.00  0.00     0.030 A 
ATOM     16  F   UNL d   1      58.068   0.678  30.832  0.00  0.00    -0.204 F 
ATOM     17  C   UNL d   1      58.248  -1.163  29.689  0.00  0.00     0.002 A 
ENDBRANCH  10  11
ENDBRANCH   1  10
TORSDOF 2
ENDMDL
MODEL 9
REMARK VINA RESULT:      -2.3      3.140      4.821
REMARK  2 active torsions:
REMARK  status: ('A' for Active; 'I' for Inactive)
REMARK    1  A    between atoms: C_7  and  C_1 
REMARK    2  A    between atoms: C_11  and  C_7 
ROOT
ATOM      1  C   UNL d   1      58.742   0.544  29.922  0.00  0.00     0.116 A 
ATOM      2  N   UNL d   1      57.372   0.542  30.292  0.00  0.00    -0.152 NA
ATOM      3  N   UNL d   1      58.396   0.679  31.304  0.00  0.00    -0.152 NA
ATOM      4  C   UNL d   1      57.963   0.501  29.731  0.00  0.00     0.288 A 
ATOM      5  C   UNL d   1      58.962   0.634  30.713  0.00  0.00     0.288 A 
ATOM      6  C   UNL d   1      57.598   0.634  31.104  0.00  0.00     0.374 A 
ATOM      7  O   UNL d   1      59.768   0.682  30.935  0.00  0.00    -0.265 OA
ATOM      8  O   UNL d   1      57.751   0.410  28.925  0.00  0.00    -0.265 OA
ATOM      9  O   UNL d   1      57.038   0.682  31.721  0.00  0.00    -0.242 OA
ENDROOT
BRANCH   1  10
ATOM     10  C   UNL d   1      59.333   0.500  29.328  0.00  0.00     0.010 C 
BRANCH  10  11
ATOM     11  C   UNL d   1      59.671  -0.235  29.163  0.00  0.00     0.000 A 
ATOM     12  C   UNL d   1      60.445  -0.384  29.381  0.00  0.00     0.002 A 
ATOM     13  C   UNL d   1      60.779  -1.110  29.219  0.00  0.00     0.030 A 
ATOM     14  C   UNL d   1      60.335  -1.695  28.833  0.00  0.00     0.140 A 
ATOM     15  C   UNL d   1      59.560  -1.546  28.615  0.00  0.00     0.030 A 
ATOM     16  F   UNL d   1      60.657  -2.453  28.654  0.00  0.00    -0.204 F 
ATOM     17  C   UNL d   1      59.227  -0.820  28.778  0.00  0.00     0.002 A 
ENDBRANCH  10  11
ENDBRANCH   1  10
TORSDOF 2
ENDMDL
