MODEL 1
REMARK VINA RESULT:     -10.1      0.000      0.000
REMARK  4 active torsions:
REMARK  status: ('A' for Active; 'I' for Inactive)
REMARK    1  A    between atoms: C_7  and  C_1 
REMARK    2  A    between atoms: S_4  and  O_12 
REMARK    3  A    between atoms: O_12  and  C_10 
REMARK    4  A    between atoms: C_25  and  C_13 
ROOT
ATOM      1  C   UNL d   1      51.228  34.206  52.903  0.00  0.00     0.064 A 
ATOM      2  C   UNL d   1      52.175  33.202  53.258  0.00  0.00     0.062 A 
ATOM      3  C   UNL d   1      51.461  33.417  52.912  0.00  0.00     0.199 A 
ATOM      4  C   UNL d   1      51.714  34.789  53.245  0.00  0.00     0.126 A 
ATOM      5  C   UNL d   1      52.660  33.778  53.597  0.00  0.00     0.105 A 
ATOM      6  O   UNL d   1      52.439  34.570  53.596  0.00  0.00    -0.305 OA
ATOM      7  C   UNL d   1      52.411  32.416  53.268  0.00  0.00     0.007 A 
ATOM      8  C   UNL d   1      53.607  32.780  53.953  0.00  0.00     0.115 A 
ATOM      9  C   UNL d   1      53.372  33.569  53.944  0.00  0.00     0.050 A 
ATOM     10  C   UNL d   1      53.125  32.202  53.614  0.00  0.00     0.024 A 
ATOM     11  O   UNL d   1      50.985  32.845  52.577  0.00  0.00    -0.286 OA
ENDROOT
BRANCH   1  12
ATOM     12  C   UNL d   1      50.511  34.417  52.555  0.00  0.00     0.007 A 
ATOM     13  C   UNL d   1      49.943  34.813  53.007  0.00  0.00     0.027 A 
ATOM     14  C   UNL d   1      49.227  35.025  52.660  0.00  0.00     0.123 A 
ATOM     15  O   UNL d   1      48.651  35.426  53.117  0.00  0.00    -0.301 OA
ATOM     16  C   UNL d   1      49.080  34.840  51.861  0.00  0.00     0.123 A 
ATOM     17  C   UNL d   1      47.930  35.636  52.757  0.00  0.00     0.149 A 
ATOM     18  C   UNL d   1      47.784  35.453  51.966  0.00  0.00     0.149 A 
ATOM     19  O   UNL d   1      48.356  35.055  51.514  0.00  0.00    -0.301 OA
ATOM     20  C   UNL d   1      49.645  34.451  51.425  0.00  0.00     0.027 A 
ATOM     21  C   UNL d   1      50.366  34.235  51.765  0.00  0.00     0.002 A 
ENDBRANCH   1  12
BRANCH  10  22
ATOM     22  C   UNL d   1      53.358  31.412  53.623  0.00  0.00     0.002 C 
ATOM     23  C   UNL d   1      52.976  30.858  53.146  0.00  0.00     0.000 C 
ENDBRANCH  10  22
BRANCH   8  24
ATOM     24  O   UNL d   1      54.322  32.568  54.300  0.00  0.00    -0.230 OA
BRANCH  24  25
ATOM     25  S   UNL d   1      54.745  33.120  54.744  0.00  0.00     0.285 S 
ATOM     26  O   UNL d   1      54.314  32.916  55.417  0.00  0.00    -0.197 OA
ATOM     27  O   UNL d   1      55.178  33.327  54.073  0.00  0.00    -0.197 OA
ATOM     28  C   UNL d   1      55.171  33.673  55.184  0.00  0.00     0.172 C 
ENDBRANCH  24  25
ENDBRANCH   8  24
TORSDOF 4
ENDMDL
MODEL 2
REMARK VINA RESULT:      -8.4      0.920      1.811
REMARK  4 active torsions:
REMARK  status: ('A' for Active; 'I' for Inactive)
REMARK    1  A    between atoms: C_7  and  C_1 
REMARK    2  A    between atoms: S_4  and  O_12 
REMARK    3  A    between atoms: O_12  and  C_10 
REMARK    4  A    between atoms: C_25  and  C_13 
ROOT
ATOM      1  C   UNL d   1      50.448  34.132  52.740  0.00  0.00     0.064 A 
ATOM      2  C   UNL d   1      51.746  34.216  53.323  0.00  0.00     0.062 A 
ATOM      3  C   UNL d   1      51.067  34.584  53.040  0.00  0.00     0.199 A 
ATOM      4  C   UNL d   1      50.506  33.301  52.723  0.00  0.00     0.126 A 
ATOM      5  C   UNL d   1      51.807  33.393  53.308  0.00  0.00     0.105 A 
ATOM      6  O   UNL d   1      51.196  32.930  53.011  0.00  0.00    -0.305 OA
ATOM      7  C   UNL d   1      52.365  34.663  53.622  0.00  0.00     0.007 A 
ATOM      8  C   UNL d   1      53.102  33.472  53.888  0.00  0.00     0.115 A 
ATOM      9  C   UNL d   1      52.481  33.022  53.589  0.00  0.00     0.050 A 
ATOM     10  C   UNL d   1      53.044  34.295  53.905  0.00  0.00     0.024 A 
ATOM     11  O   UNL d   1      51.010  35.398  53.056  0.00  0.00    -0.286 OA
ENDROOT
BRANCH   1  12
ATOM     12  C   UNL d   1      49.769  34.504  52.457  0.00  0.00     0.007 A 
ATOM     13  C   UNL d   1      49.305  34.950  52.977  0.00  0.00     0.027 A 
ATOM     14  C   UNL d   1      48.627  35.322  52.695  0.00  0.00     0.123 A 
ATOM     15  O   UNL d   1      48.156  35.774  53.220  0.00  0.00    -0.301 OA
ATOM     16  C   UNL d   1      48.414  35.248  51.893  0.00  0.00     0.123 A 
ATOM     17  C   UNL d   1      47.472  36.146  52.926  0.00  0.00     0.149 A 
ATOM     18  C   UNL d   1      47.261  36.073  52.131  0.00  0.00     0.149 A 
ATOM     19  O   UNL d   1      47.729  35.625  51.611  0.00  0.00    -0.301 OA
ATOM     20  C   UNL d   1      48.876  34.808  51.390  0.00  0.00     0.027 A 
ATOM     21  C   UNL d   1      49.558  34.431  51.664  0.00  0.00     0.002 A 
ENDBRANCH   1  12
BRANCH  10  22
ATOM     22  C   UNL d   1      53.663  34.747  54.205  0.00  0.00     0.002 C 
ATOM     23  C   UNL d   1      53.550  35.543  54.387  0.00  0.00     0.000 C 
ENDBRANCH  10  22
BRANCH   8  24
ATOM     24  O   UNL d   1      53.779  33.101  54.171  0.00  0.00    -0.230 OA
BRANCH  24  25
ATOM     25  S   UNL d   1      53.880  32.289  54.065  0.00  0.00     0.285 S 
ATOM     26  O   UNL d   1      54.196  32.422  53.314  0.00  0.00    -0.197 OA
ATOM     27  O   UNL d   1      53.566  32.152  54.815  0.00  0.00    -0.197 OA
ATOM     28  C   UNL d   1      53.980  31.477  53.963  0.00  0.00     0.172 C 
ENDBRANCH  24  25
ENDBRANCH   8  24
TORSDOF 4
ENDMDL
MODEL 3
REMARK VINA RESULT:      -8.1      2.080      5.766
REMARK  4 active torsions:
REMARK  status: ('A' for Active; 'I' for Inactive)
REMARK    1  A    between atoms: C_7  and  C_1 
REMARK    2  A    between atoms: S_4  and  O_12 
REMARK    3  A    between atoms: O_12  and  C_10 
REMARK    4  A    between atoms: C_25  and  C_13 
ROOT
ATOM      1  C   UNL d   1      50.323  34.378  52.423  0.00  0.00     0.064 A 
ATOM      2  C   UNL d   1      49.173  35.139  52.782  0.00  0.00     0.062 A 
ATOM      3  C   UNL d   1      49.921  34.852  52.963  0.00  0.00     0.199 A 
ATOM      4  C   UNL d   1      49.972  34.189  51.691  0.00  0.00     0.126 A 
ATOM      5  C   UNL d   1      48.822  34.954  52.058  0.00  0.00     0.105 A 
ATOM      6  O   UNL d   1      49.212  34.483  51.509  0.00  0.00    -0.305 OA
ATOM      7  C   UNL d   1      48.770  35.612  53.319  0.00  0.00     0.007 A 
ATOM      8  C   UNL d   1      47.674  35.712  52.413  0.00  0.00     0.115 A 
ATOM      9  C   UNL d   1      48.077  35.239  51.873  0.00  0.00     0.050 A 
ATOM     10  C   UNL d   1      48.021  35.899  53.138  0.00  0.00     0.024 A 
ATOM     11  O   UNL d   1      50.265  35.037  53.680  0.00  0.00    -0.286 OA
ENDROOT
BRANCH   1  12
ATOM     12  C   UNL d   1      51.073  34.092  52.607  0.00  0.00     0.007 A 
ATOM     13  C   UNL d   1      51.165  33.292  52.797  0.00  0.00     0.027 A 
ATOM     14  C   UNL d   1      51.915  33.004  52.981  0.00  0.00     0.123 A 
ATOM     15  O   UNL d   1      52.010  32.195  53.173  0.00  0.00    -0.301 OA
ATOM     16  C   UNL d   1      52.571  33.518  52.977  0.00  0.00     0.123 A 
ATOM     17  C   UNL d   1      52.771  31.914  53.359  0.00  0.00     0.149 A 
ATOM     18  C   UNL d   1      53.421  32.422  53.354  0.00  0.00     0.149 A 
ATOM     19  O   UNL d   1      53.326  33.225  53.164  0.00  0.00    -0.301 OA
ATOM     20  C   UNL d   1      52.470  34.302  52.789  0.00  0.00     0.027 A 
ATOM     21  C   UNL d   1      51.722  34.599  52.603  0.00  0.00     0.002 A 
ENDBRANCH   1  12
BRANCH  10  22
ATOM     22  C   UNL d   1      47.620  36.373  53.678  0.00  0.00     0.002 C 
ATOM     23  C   UNL d   1      48.019  36.709  54.317  0.00  0.00     0.000 C 
ENDBRANCH  10  22
BRANCH   8  24
ATOM     24  O   UNL d   1      46.925  35.999  52.229  0.00  0.00    -0.230 OA
BRANCH  24  25
ATOM     25  S   UNL d   1      46.537  35.736  51.550  0.00  0.00     0.285 S 
ATOM     26  O   UNL d   1      46.211  35.107  51.974  0.00  0.00    -0.197 OA
ATOM     27  O   UNL d   1      46.862  36.362  51.122  0.00  0.00    -0.197 OA
ATOM     28  C   UNL d   1      46.152  35.476  50.868  0.00  0.00     0.172 C 
ENDBRANCH  24  25
ENDBRANCH   8  24
TORSDOF 4
ENDMDL
MODEL 4
REMARK VINA RESULT:      -7.3      1.860      4.870
REMARK  4 active torsions:
REMARK  status: ('A' for Active; 'I' for Inactive)
REMARK    1  A    between atoms: C_7  and  C_1 
REMARK    2  A    between atoms: S_4  and  O_12 
REMARK    3  A    between atoms: O_12  and  C_10 
REMARK    4  A    between atoms: C_25  and  C_13 
ROOT
ATOM      1  C   UNL d   1      53.308  31.848  53.934  0.00  0.00     0.064 A 
ATOM      2  C   UNL d   1      52.658  33.079  53.628  0.00  0.00     0.062 A 
ATOM      3  C   UNL d   1      52.684  32.258  53.587  0.00  0.00     0.199 A 
ATOM      4  C   UNL d   1      53.914  32.264  54.327  0.00  0.00     0.126 A 
ATOM      5  C   UNL d   1      53.256  33.494  54.016  0.00  0.00     0.105 A 
ATOM      6  O   UNL d   1      53.885  33.097  54.367  0.00  0.00    -0.305 OA
ATOM      7  C   UNL d   1      52.037  33.491  53.283  0.00  0.00     0.007 A 
ATOM      8  C   UNL d   1      52.610  34.723  53.713  0.00  0.00     0.115 A 
ATOM      9  C   UNL d   1      53.234  34.311  54.060  0.00  0.00     0.050 A 
ATOM     10  C   UNL d   1      52.010  34.311  53.324  0.00  0.00     0.024 A 
ATOM     11  O   UNL d   1      52.091  31.852  53.201  0.00  0.00    -0.286 OA
ENDROOT
BRANCH   1  12
ATOM     12  C   UNL d   1      53.332  31.026  53.891  0.00  0.00     0.007 A 
ATOM     13  C   UNL d   1      53.293  30.583  54.588  0.00  0.00     0.027 A 
ATOM     14  C   UNL d   1      53.316  29.761  54.546  0.00  0.00     0.123 A 
ATOM     15  O   UNL d   1      53.277  29.311  55.251  0.00  0.00    -0.301 OA
ATOM     16  C   UNL d   1      53.379  29.383  53.806  0.00  0.00     0.123 A 
ATOM     17  C   UNL d   1      53.301  28.480  55.198  0.00  0.00     0.149 A 
ATOM     18  C   UNL d   1      53.363  28.106  54.466  0.00  0.00     0.149 A 
ATOM     19  O   UNL d   1      53.403  28.553  53.767  0.00  0.00    -0.301 OA
ATOM     20  C   UNL d   1      53.417  29.827  53.126  0.00  0.00     0.027 A 
ATOM     21  C   UNL d   1      53.394  30.652  53.159  0.00  0.00     0.002 A 
ENDBRANCH   1  12
BRANCH  10  22
ATOM     22  C   UNL d   1      51.386  34.721  52.977  0.00  0.00     0.002 C 
ATOM     23  C   UNL d   1      50.812  34.319  52.542  0.00  0.00     0.000 C 
ENDBRANCH  10  22
BRANCH   8  24
ATOM     24  O   UNL d   1      52.586  35.544  53.756  0.00  0.00    -0.230 OA
BRANCH  24  25
ATOM     25  S   UNL d   1      53.042  35.942  54.317  0.00  0.00     0.285 S 
ATOM     26  O   UNL d   1      52.417  35.912  54.854  0.00  0.00    -0.197 OA
ATOM     27  O   UNL d   1      53.670  35.974  53.783  0.00  0.00    -0.197 OA
ATOM     28  C   UNL d   1      53.502  36.340  54.874  0.00  0.00     0.172 C 
ENDBRANCH  24  25
ENDBRANCH   8  24
TORSDOF 4
ENDMDL
MODEL 5
REMARK VINA RESULT:      -7.2      1.044      1.826
REMARK  4 active torsions:
REMARK  status: ('A' for Active; 'I' for Inactive)
REMARK    1  A    between atoms: C_7  and  C_1 
REMARK    2  A    between atoms: S_4  and  O_12 
REMARK    3  A    between atoms: O_12  and  C_10 
REMARK    4  A    between atoms: C_25  and  C_13 
ROOT
ATOM      1  C   UNL d   1      50.692  33.684  52.875  0.00  0.00     0.064 A 
ATOM      2  C   UNL d   1      52.045  33.406  53.227  0.00  0.00     0.062 A 
ATOM      3  C   UNL d   1      51.449  33.948  53.062  0.00  0.00     0.199 A 
ATOM      4  C   UNL d   1      50.528  32.868  52.852  0.00  0.00     0.126 A 
ATOM      5  C   UNL d   1      51.886  32.597  53.206  0.00  0.00     0.105 A 
ATOM      6  O   UNL d   1      51.134  32.319  53.020  0.00  0.00    -0.305 OA
ATOM      7  C   UNL d   1      52.801  33.666  53.414  0.00  0.00     0.007 A 
ATOM      8  C   UNL d   1      53.234  32.315  53.557  0.00  0.00     0.115 A 
ATOM      9  C   UNL d   1      52.476  32.053  53.370  0.00  0.00     0.050 A 
ATOM     10  C   UNL d   1      53.396  33.124  53.580  0.00  0.00     0.024 A 
ATOM     11  O   UNL d   1      51.610  34.747  53.084  0.00  0.00    -0.286 OA
ENDROOT
BRANCH   1  12
ATOM     12  C   UNL d   1      50.098  34.230  52.709  0.00  0.00     0.007 A 
ATOM     13  C   UNL d   1      49.766  34.667  53.328  0.00  0.00     0.027 A 
ATOM     14  C   UNL d   1      49.172  35.213  53.164  0.00  0.00     0.123 A 
ATOM     15  O   UNL d   1      48.836  35.656  53.789  0.00  0.00    -0.301 OA
ATOM     16  C   UNL d   1      48.910  35.321  52.381  0.00  0.00     0.123 A 
ATOM     17  C   UNL d   1      48.235  36.206  53.614  0.00  0.00     0.149 A 
ATOM     18  C   UNL d   1      47.976  36.312  52.838  0.00  0.00     0.149 A 
ATOM     19  O   UNL d   1      48.310  35.872  52.218  0.00  0.00    -0.301 OA
ATOM     20  C   UNL d   1      49.242  34.886  51.779  0.00  0.00     0.027 A 
ATOM     21  C   UNL d   1      49.838  34.336  51.935  0.00  0.00     0.002 A 
ENDBRANCH   1  12
BRANCH  10  22
ATOM     22  C   UNL d   1      54.153  33.387  53.767  0.00  0.00     0.002 C 
ATOM     23  C   UNL d   1      54.338  34.191  53.729  0.00  0.00     0.000 C 
ENDBRANCH  10  22
BRANCH   8  24
ATOM     24  O   UNL d   1      53.827  31.771  53.722  0.00  0.00    -0.230 OA
BRANCH  24  25
ATOM     25  S   UNL d   1      53.639  30.976  53.840  0.00  0.00     0.285 S 
ATOM     26  O   UNL d   1      53.805  30.814  53.048  0.00  0.00    -0.197 OA
ATOM     27  O   UNL d   1      53.471  31.133  54.632  0.00  0.00    -0.197 OA
ATOM     28  C   UNL d   1      53.449  30.183  53.962  0.00  0.00     0.172 C 
ENDBRANCH  24  25
ENDBRANCH   8  24
TORSDOF 4
ENDMDL
