MODEL 1
REMARK VINA RESULT:       3.4      0.000      0.000
REMARK  7 active torsions:
REMARK  status: ('A' for Active; 'I' for Inactive)
REMARK    1  A    between atoms: N_3  and  C_1 
REMARK       I    between atoms: C_7  and  N_3 
REMARK    2  A    between atoms: C_11  and  N_3 
REMARK    3  A    between atoms: S_5  and  C_10 
REMARK    4  A    between atoms: C_14  and  S_5 
REMARK    5  A    between atoms: C_9  and  C_7 
REMARK    6  A    between atoms: C_10  and  C_9 
REMARK    7  A    between atoms: C_18  and  C_11 
ROOT
ATOM      1  N   UNL d   1     -41.833-122.859 -50.956  0.00  0.00    -0.253 N 
ATOM      2  C   UNL d   1     -42.275-123.061 -51.638  0.00  0.00     0.267 C 
ATOM      3  O   UNL d   1     -42.983-123.471 -51.554  0.00  0.00    -0.267 OA
ENDROOT
BRANCH   1   4
ATOM      4  C   UNL d   1     -42.112-123.072 -50.210  0.00  0.00     0.182 A 
ATOM      5  N   UNL d   1     -41.650-123.229 -49.538  0.00  0.00    -0.219 NA
ATOM      6  C   UNL d   1     -42.159-123.422 -48.912  0.00  0.00     0.117 A 
ATOM      7  C   UNL d   1     -42.001-123.622 -48.136  0.00  0.00     0.158 A 
ATOM      8  C   UNL d   1     -42.928-123.386 -49.192  0.00  0.00     0.052 A 
ATOM      9  F   UNL d   1     -41.234-123.659 -47.854  0.00  0.00    -0.203 F 
ATOM     10  C   UNL d   1     -42.624-123.788 -47.634  0.00  0.00     0.031 A 
ATOM     11  C   UNL d   1     -43.402-123.754 -47.907  0.00  0.00     0.003 A 
ATOM     12  C   UNL d   1     -43.551-123.552 -48.690  0.00  0.00     0.008 A 
ATOM     13  S   UNL d   1     -42.907-123.171 -49.992  0.00  0.00    -0.048 SA
ENDBRANCH   1   4
BRANCH   1  14
ATOM     14  C   UNL d   1     -41.123-122.448 -51.032  0.00  0.00     0.086 C 
BRANCH  14  15
ATOM     15  C   UNL d   1     -41.126-121.625 -51.087  0.00  0.00     0.037 A 
ATOM     16  C   UNL d   1     -41.131-121.261 -51.826  0.00  0.00     0.100 A 
ATOM     17  N   UNL d   1     -41.134-120.438 -51.882  0.00  0.00    -0.242 NA
ATOM     18  C   UNL d   1     -41.132-119.979 -51.199  0.00  0.00     0.099 A 
ATOM     19  C   UNL d   1     -41.127-120.341 -50.456  0.00  0.00     0.021 A 
ATOM     20  C   UNL d   1     -41.124-121.164 -50.400  0.00  0.00     0.005 A 
ENDBRANCH  14  15
ENDBRANCH   1  14
BRANCH   2  21
ATOM     21  C   UNL d   1     -41.996-122.848 -52.378  0.00  0.00     0.073 C 
BRANCH  21  22
ATOM     22  C   UNL d   1     -42.249-123.267 -53.047  0.00  0.00     0.104 C 
BRANCH  22  23
ATOM     23  S   UNL d   1     -42.143-122.945 -53.802  0.00  0.00     0.211 S 
ATOM     24  O   UNL d   1     -41.497-123.462 -53.935  0.00  0.00    -0.217 OA
ATOM     25  O   UNL d   1     -42.784-122.430 -53.670  0.00  0.00    -0.217 OA
BRANCH  23  26
ATOM     26  C   UNL d   1     -42.034-122.623 -54.559  0.00  0.00     0.088 A 
ATOM     27  C   UNL d   1     -41.292-122.659 -54.917  0.00  0.00     0.011 A 
ATOM     28  C   UNL d   1     -41.179-122.342 -55.668  0.00  0.00     0.001 A 
ATOM     29  C   UNL d   1     -41.810-121.987 -56.062  0.00  0.00     0.000 A 
ATOM     30  C   UNL d   1     -42.546-121.949 -55.711  0.00  0.00     0.001 A 
ATOM     31  C   UNL d   1     -42.665-122.267 -54.956  0.00  0.00     0.011 A 
ENDBRANCH  23  26
ENDBRANCH  22  23
ENDBRANCH  21  22
ENDBRANCH   2  21
TORSDOF 7
ENDMDL
MODEL 2
REMARK VINA RESULT:       4.2      1.512      2.327
REMARK  7 active torsions:
REMARK  status: ('A' for Active; 'I' for Inactive)
REMARK    1  A    between atoms: N_3  and  C_1 
REMARK       I    between atoms: C_7  and  N_3 
REMARK    2  A    between atoms: C_11  and  N_3 
REMARK    3  A    between atoms: S_5  and  C_10 
REMARK    4  A    between atoms: C_14  and  S_5 
REMARK    5  A    between atoms: C_9  and  C_7 
REMARK    6  A    between atoms: C_10  and  C_9 
REMARK    7  A    between atoms: C_18  and  C_11 
ROOT
ATOM      1  N   UNL d   1     -42.241-122.959 -50.186  0.00  0.00    -0.253 N 
ATOM      2  C   UNL d   1     -41.760-122.471 -50.669  0.00  0.00     0.267 C 
ATOM      3  O   UNL d   1     -41.123-122.074 -50.334  0.00  0.00    -0.267 OA
ENDROOT
BRANCH   1   4
ATOM      4  C   UNL d   1     -42.070-123.035 -49.383  0.00  0.00     0.182 A 
ATOM      5  N   UNL d   1     -42.405-122.593 -48.765  0.00  0.00    -0.219 NA
ATOM      6  C   UNL d   1     -42.073-122.853 -48.050  0.00  0.00     0.117 A 
ATOM      7  C   UNL d   1     -42.202-122.611 -47.281  0.00  0.00     0.158 A 
ATOM      8  C   UNL d   1     -41.538-123.449 -48.223  0.00  0.00     0.052 A 
ATOM      9  F   UNL d   1     -42.735-122.016 -47.105  0.00  0.00    -0.203 F 
ATOM     10  C   UNL d   1     -41.788-122.973 -46.677  0.00  0.00     0.031 A 
ATOM     11  C   UNL d   1     -41.247-123.575 -46.840  0.00  0.00     0.003 A 
ATOM     12  C   UNL d   1     -41.124-123.811 -47.619  0.00  0.00     0.008 A 
ATOM     13  S   UNL d   1     -41.531-123.567 -49.043  0.00  0.00    -0.048 SA
ENDBRANCH   1   4
BRANCH   1  14
ATOM     14  C   UNL d   1     -42.882-123.360 -50.514  0.00  0.00     0.086 C 
BRANCH  14  15
ATOM     15  C   UNL d   1     -43.649-123.084 -50.389  0.00  0.00     0.037 A 
ATOM     16  C   UNL d   1     -44.261-123.615 -50.245  0.00  0.00     0.100 A 
ATOM     17  N   UNL d   1     -45.028-123.340 -50.120  0.00  0.00    -0.242 NA
ATOM     18  C   UNL d   1     -45.184-122.532 -50.138  0.00  0.00     0.099 A 
ATOM     19  C   UNL d   1     -44.572-121.995 -50.283  0.00  0.00     0.021 A 
ATOM     20  C   UNL d   1     -43.804-122.271 -50.408  0.00  0.00     0.005 A 
ENDBRANCH  14  15
ENDBRANCH   1  14
BRANCH   2  21
ATOM     21  C   UNL d   1     -41.932-122.397 -51.466  0.00  0.00     0.073 C 
BRANCH  21  22
ATOM     22  C   UNL d   1     -41.319-122.250 -52.005  0.00  0.00     0.104 C 
BRANCH  22  23
ATOM     23  S   UNL d   1     -41.450-122.346 -52.816  0.00  0.00     0.211 S 
ATOM     24  O   UNL d   1     -41.279-123.164 -52.750  0.00  0.00    -0.217 OA
ATOM     25  O   UNL d   1     -41.620-121.534 -52.883  0.00  0.00    -0.217 OA
BRANCH  23  26
ATOM     26  C   UNL d   1     -41.581-122.445 -53.630  0.00  0.00     0.088 A 
ATOM     27  C   UNL d   1     -41.846-121.808 -54.083  0.00  0.00     0.011 A 
ATOM     28  C   UNL d   1     -41.978-121.901 -54.890  0.00  0.00     0.001 A 
ATOM     29  C   UNL d   1     -41.843-122.633 -55.245  0.00  0.00     0.000 A 
ATOM     30  C   UNL d   1     -41.581-123.265 -54.801  0.00  0.00     0.001 A 
ATOM     31  C   UNL d   1     -41.447-123.177 -53.988  0.00  0.00     0.011 A 
ENDBRANCH  23  26
ENDBRANCH  22  23
ENDBRANCH  21  22
ENDBRANCH   2  21
TORSDOF 7
ENDMDL
