MODEL 1
REMARK VINA RESULT:      -5.8      0.000      0.000
REMARK  2 active torsions:
REMARK  status: ('A' for Active; 'I' for Inactive)
REMARK       I    between atoms: N_2  and  C_1 
REMARK    1  A    between atoms: C_4  and  N_2 
REMARK    2  A    between atoms: O_8  and  C_7 
ROOT
ATOM      1  C   UNL d   1     -48.054  12.717  22.304  0.00  0.00     0.102 A 
ATOM      2  C   UNL d   1     -48.462  12.213  22.815  0.00  0.00     0.044 A 
ATOM      3  C   UNL d   1     -49.232  11.977  22.637  0.00  0.00     0.096 A 
ATOM      4  C   UNL d   1     -49.186  12.752  21.434  0.00  0.00     0.004 A 
ATOM      5  C   UNL d   1     -48.416  12.987  21.613  0.00  0.00     0.020 A 
ATOM      6  C   UNL d   1     -49.594  12.247  21.946  0.00  0.00     0.024 A 
ENDROOT
BRANCH   1   7
ATOM      7  N   UNL d   1     -47.281  12.955  22.479  0.00  0.00    -0.056 NA
ATOM      8  C   UNL d   1     -47.136  13.705  22.802  0.00  0.00     0.787 C 
ATOM      9  N   UNL d   1     -46.368  13.946  22.979  0.00  0.00     0.064 N 
ATOM     10  N   UNL d   1     -47.773  14.212  22.946  0.00  0.00     0.064 N 
ENDBRANCH   1   7
BRANCH   3  11
ATOM     11  O   UNL d   1     -49.640  11.473  23.148  0.00  0.00    -0.328 OA
ATOM     12  C   UNL d   1     -50.326  11.733  23.527  0.00  0.00     0.181 C 
ENDBRANCH   3  11
TORSDOF 2
ENDMDL
MODEL 2
REMARK VINA RESULT:      -5.7      1.970      3.134
REMARK  2 active torsions:
REMARK  status: ('A' for Active; 'I' for Inactive)
REMARK       I    between atoms: N_2  and  C_1 
REMARK    1  A    between atoms: C_4  and  N_2 
REMARK    2  A    between atoms: O_8  and  C_7 
ROOT
ATOM      1  C   UNL d   1     -48.157  12.213  23.467  0.00  0.00     0.102 A 
ATOM      2  C   UNL d   1     -47.678  12.860  23.281  0.00  0.00     0.044 A 
ATOM      3  C   UNL d   1     -46.856  12.787  23.304  0.00  0.00     0.096 A 
ATOM      4  C   UNL d   1     -46.993  11.418  23.698  0.00  0.00     0.004 A 
ATOM      5  C   UNL d   1     -47.815  11.492  23.675  0.00  0.00     0.020 A 
ATOM      6  C   UNL d   1     -46.515  12.065  23.512  0.00  0.00     0.024 A 
ENDROOT
BRANCH   1   7
ATOM      7  N   UNL d   1     -48.981  12.283  23.445  0.00  0.00    -0.056 NA
ATOM      8  C   UNL d   1     -49.407  12.017  22.787  0.00  0.00     0.787 C 
ATOM      9  N   UNL d   1     -50.229  12.085  22.761  0.00  0.00     0.064 N 
ATOM     10  N   UNL d   1     -49.000  11.680  22.151  0.00  0.00     0.064 N 
ENDBRANCH   1   7
BRANCH   3  11
ATOM     11  O   UNL d   1     -46.378  13.434  23.118  0.00  0.00    -0.328 OA
ATOM     12  C   UNL d   1     -45.836  13.384  22.498  0.00  0.00     0.181 C 
ENDBRANCH   3  11
TORSDOF 2
ENDMDL
MODEL 3
REMARK VINA RESULT:      -5.7      1.856      3.058
REMARK  2 active torsions:
REMARK  status: ('A' for Active; 'I' for Inactive)
REMARK       I    between atoms: N_2  and  C_1 
REMARK    1  A    between atoms: C_4  and  N_2 
REMARK    2  A    between atoms: O_8  and  C_7 
ROOT
ATOM      1  C   UNL d   1     -47.855  13.235  22.691  0.00  0.00     0.102 A 
ATOM      2  C   UNL d   1     -47.122  13.590  22.555  0.00  0.00     0.044 A 
ATOM      3  C   UNL d   1     -46.434  13.249  22.858  0.00  0.00     0.096 A 
ATOM      4  C   UNL d   1     -47.214  12.197  23.434  0.00  0.00     0.004 A 
ATOM      5  C   UNL d   1     -47.902  12.538  23.130  0.00  0.00     0.020 A 
ATOM      6  C   UNL d   1     -46.481  12.553  23.297  0.00  0.00     0.024 A 
ENDROOT
BRANCH   1   7
ATOM      7  N   UNL d   1     -48.546  13.574  22.388  0.00  0.00    -0.056 NA
ATOM      8  C   UNL d   1     -48.871  13.300  21.676  0.00  0.00     0.787 C 
ATOM      9  N   UNL d   1     -49.560  13.636  21.371  0.00  0.00     0.064 N 
ATOM     10  N   UNL d   1     -48.495  12.685  21.271  0.00  0.00     0.064 N 
ENDBRANCH   1   7
BRANCH   3  11
ATOM     11  O   UNL d   1     -45.701  13.605  22.722  0.00  0.00    -0.328 OA
ATOM     12  C   UNL d   1     -45.170  13.267  22.187  0.00  0.00     0.181 C 
ENDBRANCH   3  11
TORSDOF 2
ENDMDL
MODEL 4
REMARK VINA RESULT:      -5.5      2.016      2.683
REMARK  2 active torsions:
REMARK  status: ('A' for Active; 'I' for Inactive)
REMARK       I    between atoms: N_2  and  C_1 
REMARK    1  A    between atoms: C_4  and  N_2 
REMARK    2  A    between atoms: O_8  and  C_7 
ROOT
ATOM      1  C   UNL d   1     -48.523  14.512  22.526  0.00  0.00     0.102 A 
ATOM      2  C   UNL d   1     -47.815  14.325  22.908  0.00  0.00     0.044 A 
ATOM      3  C   UNL d   1     -47.418  13.625  22.726  0.00  0.00     0.096 A 
ATOM      4  C   UNL d   1     -48.438  13.299  21.777  0.00  0.00     0.004 A 
ATOM      5  C   UNL d   1     -48.835  13.999  21.959  0.00  0.00     0.020 A 
ATOM      6  C   UNL d   1     -47.731  13.112  22.160  0.00  0.00     0.024 A 
ENDROOT
BRANCH   1   7
ATOM      7  N   UNL d   1     -48.923  15.214  22.706  0.00  0.00    -0.056 NA
ATOM      8  C   UNL d   1     -49.568  15.206  23.226  0.00  0.00     0.787 C 
ATOM      9  N   UNL d   1     -49.969  15.903  23.409  0.00  0.00     0.064 N 
ATOM     10  N   UNL d   1     -49.807  14.490  23.564  0.00  0.00     0.064 N 
ENDBRANCH   1   7
BRANCH   3  11
ATOM     11  O   UNL d   1     -46.711  13.438  23.109  0.00  0.00    -0.328 OA
ATOM     12  C   UNL d   1     -46.542  12.655  23.308  0.00  0.00     0.181 C 
ENDBRANCH   3  11
TORSDOF 2
ENDMDL
MODEL 5
REMARK VINA RESULT:      -5.5      1.739      2.177
REMARK  2 active torsions:
REMARK  status: ('A' for Active; 'I' for Inactive)
REMARK       I    between atoms: N_2  and  C_1 
REMARK    1  A    between atoms: C_4  and  N_2 
REMARK    2  A    between atoms: O_8  and  C_7 
ROOT
ATOM      1  C   UNL d   1     -47.692  13.232  22.531  0.00  0.00     0.102 A 
ATOM      2  C   UNL d   1     -47.889  13.966  22.853  0.00  0.00     0.044 A 
ATOM      3  C   UNL d   1     -48.509  14.406  22.532  0.00  0.00     0.096 A 
ATOM      4  C   UNL d   1     -48.735  13.375  21.566  0.00  0.00     0.004 A 
ATOM      5  C   UNL d   1     -48.115  12.935  21.888  0.00  0.00     0.020 A 
ATOM      6  C   UNL d   1     -48.932  14.110  21.888  0.00  0.00     0.024 A 
ENDROOT
BRANCH   1   7
ATOM      7  N   UNL d   1     -47.071  12.788  22.851  0.00  0.00    -0.056 NA
ATOM      8  C   UNL d   1     -47.227  12.167  23.377  0.00  0.00     0.787 C 
ATOM      9  N   UNL d   1     -46.610  11.722  23.698  0.00  0.00     0.064 N 
ATOM     10  N   UNL d   1     -48.010  11.995  23.579  0.00  0.00     0.064 N 
ENDBRANCH   1   7
BRANCH   3  11
ATOM     11  O   UNL d   1     -48.705  15.141  22.853  0.00  0.00    -0.328 OA
ATOM     12  C   UNL d   1     -49.486  15.304  23.067  0.00  0.00     0.181 C 
ENDBRANCH   3  11
TORSDOF 2
ENDMDL
