MODEL 1
REMARK VINA RESULT:      58.8      0.000      0.000
REMARK  9 active torsions:
REMARK  status: ('A' for Active; 'I' for Inactive)
REMARK    1  A    between atoms: N_3  and  C_1 
REMARK       I    between atoms: C_7  and  N_3 
REMARK    2  A    between atoms: S_10  and  C_4 
REMARK    3  A    between atoms: C_9  and  C_7 
REMARK    4  A    between atoms: C_8  and  C_17 
REMARK       I    between atoms: N_12  and  C_8 
REMARK    5  A    between atoms: C_17  and  S_10 
REMARK    6  A    between atoms: C_18  and  N_12 
REMARK    7  A    between atoms: C_22  and  C_18 
REMARK    8  A    between atoms: O_23  and  C_19 
REMARK    9  A    between atoms: C_25  and  O_23 
ROOT
ATOM      1  C   UNL d   1     -48.615  28.065  34.557  0.00  0.00     0.219 A 
ATOM      2  S   UNL d   1     -49.176  27.668  34.104  0.00  0.00    -0.019 SA
ATOM      3  C   UNL d   1     -49.187  26.880  34.330  0.00  0.00     0.165 A 
ATOM      4  N   UNL d   1     -48.274  27.512  35.069  0.00  0.00    -0.120 NA
ATOM      5  N   UNL d   1     -48.627  26.781  34.929  0.00  0.00    -0.133 NA
ENDROOT
BRANCH   1   6
ATOM      6  N   UNL d   1     -48.428  28.872  34.505  0.00  0.00    -0.181 NA
ATOM      7  C   UNL d   1     -48.112  29.258  35.165  0.00  0.00     0.281 C 
ATOM      8  O   UNL d   1     -47.985  28.845  35.865  0.00  0.00    -0.265 OA
BRANCH   7   9
ATOM      9  C   UNL d   1     -47.924  30.062  35.117  0.00  0.00     0.058 A 
ATOM     10  C   UNL d   1     -48.339  30.545  34.595  0.00  0.00     0.007 A 
ATOM     11  C   UNL d   1     -48.147  31.346  34.552  0.00  0.00     0.025 A 
ATOM     12  C   UNL d   1     -47.554  31.655  35.020  0.00  0.00     0.100 A 
ATOM     13  C   UNL d   1     -47.137  31.167  35.545  0.00  0.00     0.025 A 
ATOM     14  C   UNL d   1     -47.330  30.365  35.587  0.00  0.00     0.007 A 
BRANCH  12  15
ATOM     15  O   UNL d   1     -47.358  32.455  34.981  0.00  0.00    -0.305 OA
BRANCH  15  16
ATOM     16  C   UNL d   1     -47.739  32.960  34.464  0.00  0.00     0.123 C 
ATOM     17  C   UNL d   1     -47.593  32.917  33.638  0.00  0.00     0.029 C 
ENDBRANCH  15  16
ENDBRANCH  12  15
ENDBRANCH   7   9
ENDBRANCH   1   6
BRANCH   3  18
ATOM     18  S   UNL d   1     -49.672  26.294  34.012  0.00  0.00    -0.054 SA
BRANCH  18  19
ATOM     19  C   UNL d   1     -49.327  25.619  33.673  0.00  0.00     0.100 C 
BRANCH  19  20
ATOM     20  C   UNL d   1     -49.783  24.947  33.541  0.00  0.00     0.286 C 
ATOM     21  N   UNL d   1     -50.600  25.015  33.478  0.00  0.00    -0.204 NA
ATOM     22  O   UNL d   1     -49.427  24.202  33.469  0.00  0.00    -0.265 OA
BRANCH  21  23
ATOM     23  C   UNL d   1     -51.061  24.338  33.345  0.00  0.00     0.127 C 
BRANCH  23  24
ATOM     24  C   UNL d   1     -51.854  24.335  33.560  0.00  0.00     0.119 A 
ATOM     25  O   UNL d   1     -52.327  24.996  33.720  0.00  0.00    -0.304 OA
ATOM     26  C   UNL d   1     -53.092  24.730  33.914  0.00  0.00     0.123 A 
ATOM     27  C   UNL d   1     -53.097  23.912  33.876  0.00  0.00     0.029 A 
ATOM     28  C   UNL d   1     -52.339  23.672  33.659  0.00  0.00     0.028 A 
ENDBRANCH  23  24
ENDBRANCH  21  23
ENDBRANCH  19  20
ENDBRANCH  18  19
ENDBRANCH   3  18
TORSDOF 9
ENDMDL
MODEL 2
REMARK VINA RESULT:      59.3      1.402      2.037
REMARK  9 active torsions:
REMARK  status: ('A' for Active; 'I' for Inactive)
REMARK    1  A    between atoms: N_3  and  C_1 
REMARK       I    between atoms: C_7  and  N_3 
REMARK    2  A    between atoms: S_10  and  C_4 
REMARK    3  A    between atoms: C_9  and  C_7 
REMARK    4  A    between atoms: C_8  and  C_17 
REMARK       I    between atoms: N_12  and  C_8 
REMARK    5  A    between atoms: C_17  and  S_10 
REMARK    6  A    between atoms: C_18  and  N_12 
REMARK    7  A    between atoms: C_22  and  C_18 
REMARK    8  A    between atoms: O_23  and  C_19 
REMARK    9  A    between atoms: C_25  and  O_23 
ROOT
ATOM      1  C   UNL d   1     -49.760  27.339  34.114  0.00  0.00     0.219 A 
ATOM      2  S   UNL d   1     -49.753  26.517  34.069  0.00  0.00    -0.019 SA
ATOM      3  C   UNL d   1     -50.369  26.274  33.585  0.00  0.00     0.165 A 
ATOM      4  N   UNL d   1     -50.391  27.607  33.650  0.00  0.00    -0.120 NA
ATOM      5  N   UNL d   1     -50.766  26.950  33.324  0.00  0.00    -0.133 NA
ENDROOT
BRANCH   1   6
ATOM      6  N   UNL d   1     -49.230  27.809  34.546  0.00  0.00    -0.181 NA
ATOM      7  C   UNL d   1     -49.131  28.603  34.338  0.00  0.00     0.281 C 
ATOM      8  O   UNL d   1     -49.553  28.923  33.709  0.00  0.00    -0.265 OA
BRANCH   7   9
ATOM      9  C   UNL d   1     -48.604  29.075  34.767  0.00  0.00     0.058 A 
ATOM     10  C   UNL d   1     -48.448  28.896  35.555  0.00  0.00     0.007 A 
ATOM     11  C   UNL d   1     -47.921  29.370  35.977  0.00  0.00     0.025 A 
ATOM     12  C   UNL d   1     -47.558  30.008  35.617  0.00  0.00     0.100 A 
ATOM     13  C   UNL d   1     -47.716  30.186  34.823  0.00  0.00     0.025 A 
ATOM     14  C   UNL d   1     -48.244  29.711  34.402  0.00  0.00     0.007 A 
BRANCH  12  15
ATOM     15  O   UNL d   1     -47.031  30.484  36.035  0.00  0.00    -0.305 OA
BRANCH  15  16
ATOM     16  C   UNL d   1     -47.127  30.624  36.834  0.00  0.00     0.123 C 
ATOM     17  C   UNL d   1     -46.462  30.763  37.327  0.00  0.00     0.029 C 
ENDBRANCH  15  16
ENDBRANCH  12  15
ENDBRANCH   7   9
ENDBRANCH   1   6
BRANCH   3  18
ATOM     18  S   UNL d   1     -50.555  25.493  33.396  0.00  0.00    -0.054 SA
BRANCH  18  19
ATOM     19  C   UNL d   1     -50.778  24.970  34.001  0.00  0.00     0.100 C 
BRANCH  19  20
ATOM     20  C   UNL d   1     -51.143  24.257  33.813  0.00  0.00     0.286 C 
ATOM     21  N   UNL d   1     -51.881  24.081  34.128  0.00  0.00    -0.204 NA
ATOM     22  O   UNL d   1     -50.772  23.713  33.308  0.00  0.00    -0.265 OA
BRANCH  21  23
ATOM     23  C   UNL d   1     -52.250  23.361  33.939  0.00  0.00     0.127 C 
BRANCH  23  24
ATOM     24  C   UNL d   1     -53.068  23.301  33.971  0.00  0.00     0.119 A 
ATOM     25  O   UNL d   1     -53.539  23.293  34.652  0.00  0.00    -0.304 OA
ATOM     26  C   UNL d   1     -54.336  23.224  34.420  0.00  0.00     0.123 A 
ATOM     27  C   UNL d   1     -54.363  23.189  33.602  0.00  0.00     0.029 A 
ATOM     28  C   UNL d   1     -53.586  23.237  33.329  0.00  0.00     0.028 A 
ENDBRANCH  23  24
ENDBRANCH  21  23
ENDBRANCH  19  20
ENDBRANCH  18  19
ENDBRANCH   3  18
TORSDOF 9
ENDMDL
