MODEL 1
REMARK VINA RESULT:      -5.7      0.000      0.000
REMARK  6 active torsions:
REMARK  status: ('A' for Active; 'I' for Inactive)
REMARK    1  A    between atoms: C_6  and  N_3 
REMARK    2  A    between atoms: C_14  and  C_6 
REMARK    3  A    between atoms: C_7  and  O_8 
REMARK    4  A    between atoms: O_8  and  C_11 
REMARK    5  A    between atoms: C_11  and  C_15 
REMARK    6  A    between atoms: C_15  and  C_14 
ROOT
ATOM      1  C   UNL d   1     -48.184  12.811  23.281  0.00  0.00     0.082 C 
ENDROOT
BRANCH   1   2
ATOM      2  N   UNL d   1     -48.968  12.700  23.040  0.00  0.00    -0.287 N 
ATOM      3  C   UNL d   1     -49.255  11.916  23.154  0.00  0.00     0.183 A 
ATOM      4  N   UNL d   1     -50.057  11.891  22.883  0.00  0.00    -0.224 NA
ATOM      5  C   UNL d   1     -50.261  12.655  22.604  0.00  0.00     0.099 A 
ATOM      6  C   UNL d   1     -49.583  13.152  22.703  0.00  0.00     0.083 A 
ATOM      7  C   UNL d   1     -50.956  12.958  22.281  0.00  0.00     0.021 A 
ATOM      8  C   UNL d   1     -49.632  13.952  22.468  0.00  0.00     0.019 A 
ATOM      9  C   UNL d   1     -50.335  14.251  22.143  0.00  0.00     0.002 A 
ATOM     10  C   UNL d   1     -50.997  13.748  22.051  0.00  0.00     0.002 A 
ENDBRANCH   1   2
BRANCH   1  11
ATOM     11  C   UNL d   1     -47.631  12.210  23.179  0.00  0.00     0.021 C 
BRANCH  11  12
ATOM     12  C   UNL d   1     -46.843  12.351  23.317  0.00  0.00     0.028 C 
BRANCH  12  13
ATOM     13  C   UNL d   1     -46.292  11.724  23.312  0.00  0.00     0.123 C 
BRANCH  13  14
ATOM     14  O   UNL d   1     -45.488  11.884  23.345  0.00  0.00    -0.305 OA
BRANCH  14  15
ATOM     15  C   UNL d   1     -44.945  11.263  23.348  0.00  0.00     0.100 A 
ATOM     16  C   UNL d   1     -44.200  11.368  23.003  0.00  0.00     0.025 A 
ATOM     17  C   UNL d   1     -43.670  10.751  23.010  0.00  0.00     0.002 A 
ATOM     18  C   UNL d   1     -43.860  10.033  23.351  0.00  0.00     0.000 A 
ATOM     19  C   UNL d   1     -44.607   9.929  23.698  0.00  0.00     0.002 A 
ATOM     20  C   UNL d   1     -45.150  10.546  23.696  0.00  0.00     0.025 A 
ENDBRANCH  14  15
ENDBRANCH  13  14
ENDBRANCH  12  13
ENDBRANCH  11  12
ENDBRANCH   1  11
TORSDOF 6
ENDMDL
MODEL 2
REMARK VINA RESULT:      -5.3      1.532      5.626
REMARK  6 active torsions:
REMARK  status: ('A' for Active; 'I' for Inactive)
REMARK    1  A    between atoms: C_6  and  N_3 
REMARK    2  A    between atoms: C_14  and  C_6 
REMARK    3  A    between atoms: C_7  and  O_8 
REMARK    4  A    between atoms: O_8  and  C_11 
REMARK    5  A    between atoms: C_11  and  C_15 
REMARK    6  A    between atoms: C_15  and  C_14 
ROOT
ATOM      1  C   UNL d   1     -46.894  11.766  23.569  0.00  0.00     0.082 C 
ENDROOT
BRANCH   1   2
ATOM      2  N   UNL d   1     -46.095  11.741  23.356  0.00  0.00    -0.287 N 
ATOM      3  C   UNL d   1     -45.812  12.446  22.992  0.00  0.00     0.183 A 
ATOM      4  N   UNL d   1     -44.993  12.333  22.809  0.00  0.00    -0.224 NA
ATOM      5  C   UNL d   1     -44.774  11.564  23.059  0.00  0.00     0.099 A 
ATOM      6  C   UNL d   1     -45.460  11.200  23.397  0.00  0.00     0.083 A 
ATOM      7  C   UNL d   1     -44.059  11.155  23.024  0.00  0.00     0.021 A 
ATOM      8  C   UNL d   1     -45.398  10.423  23.694  0.00  0.00     0.019 A 
ATOM      9  C   UNL d   1     -44.676  10.016  23.657  0.00  0.00     0.002 A 
ATOM     10  C   UNL d   1     -44.007  10.388  23.320  0.00  0.00     0.002 A 
ENDBRANCH   1   2
BRANCH   1  11
ATOM     11  C   UNL d   1     -47.389  12.338  23.246  0.00  0.00     0.021 C 
BRANCH  11  12
ATOM     12  C   UNL d   1     -48.191  12.304  23.370  0.00  0.00     0.028 C 
BRANCH  12  13
ATOM     13  C   UNL d   1     -48.704  12.840  22.987  0.00  0.00     0.123 C 
BRANCH  13  14
ATOM     14  O   UNL d   1     -49.326  13.179  23.402  0.00  0.00    -0.305 OA
BRANCH  14  15
ATOM     15  C   UNL d   1     -49.907  13.603  22.997  0.00  0.00     0.100 A 
ATOM     16  C   UNL d   1     -50.482  13.198  22.562  0.00  0.00     0.025 A 
ATOM     17  C   UNL d   1     -51.052  13.622  22.165  0.00  0.00     0.002 A 
ATOM     18  C   UNL d   1     -51.064  14.438  22.189  0.00  0.00     0.000 A 
ATOM     19  C   UNL d   1     -50.487  14.845  22.626  0.00  0.00     0.002 A 
ATOM     20  C   UNL d   1     -49.907  14.425  23.031  0.00  0.00     0.025 A 
ENDBRANCH  14  15
ENDBRANCH  13  14
ENDBRANCH  12  13
ENDBRANCH  11  12
ENDBRANCH   1  11
TORSDOF 6
ENDMDL
MODEL 3
REMARK VINA RESULT:      -5.3      1.405      2.055
REMARK  6 active torsions:
REMARK  status: ('A' for Active; 'I' for Inactive)
REMARK    1  A    between atoms: C_6  and  N_3 
REMARK    2  A    between atoms: C_14  and  C_6 
REMARK    3  A    between atoms: C_7  and  O_8 
REMARK    4  A    between atoms: O_8  and  C_11 
REMARK    5  A    between atoms: C_11  and  C_15 
REMARK    6  A    between atoms: C_15  and  C_14 
ROOT
ATOM      1  C   UNL d   1     -49.656  12.290  23.497  0.00  0.00     0.082 C 
ENDROOT
BRANCH   1   2
ATOM      2  N   UNL d   1     -50.078  12.837  23.041  0.00  0.00    -0.287 N 
ATOM      3  C   UNL d   1     -50.347  12.535  22.302  0.00  0.00     0.183 A 
ATOM      4  N   UNL d   1     -50.765  13.156  21.905  0.00  0.00    -0.224 NA
ATOM      5  C   UNL d   1     -50.752  13.834  22.397  0.00  0.00     0.099 A 
ATOM      6  C   UNL d   1     -50.326  13.632  23.100  0.00  0.00     0.083 A 
ATOM      7  C   UNL d   1     -51.064  14.591  22.302  0.00  0.00     0.021 A 
ATOM      8  C   UNL d   1     -50.228  14.211  23.692  0.00  0.00     0.019 A 
ATOM      9  C   UNL d   1     -50.544  14.972  23.591  0.00  0.00     0.002 A 
ATOM     10  C   UNL d   1     -50.963  15.157  22.891  0.00  0.00     0.002 A 
ENDBRANCH   1   2
BRANCH   1  11
ATOM     11  C   UNL d   1     -48.983  11.929  23.191  0.00  0.00     0.021 C 
BRANCH  11  12
ATOM     12  C   UNL d   1     -48.334  11.806  23.662  0.00  0.00     0.028 C 
BRANCH  12  13
ATOM     13  C   UNL d   1     -47.564  11.832  23.342  0.00  0.00     0.123 C 
BRANCH  13  14
ATOM     14  O   UNL d   1     -46.996  12.323  23.676  0.00  0.00    -0.305 OA
BRANCH  14  15
ATOM     15  C   UNL d   1     -46.410  12.656  23.202  0.00  0.00     0.100 A 
ATOM     16  C   UNL d   1     -46.469  13.449  22.972  0.00  0.00     0.025 A 
ATOM     17  C   UNL d   1     -45.887  13.771  22.504  0.00  0.00     0.002 A 
ATOM     18  C   UNL d   1     -45.247  13.325  22.258  0.00  0.00     0.000 A 
ATOM     19  C   UNL d   1     -45.189  12.530  22.488  0.00  0.00     0.002 A 
ATOM     20  C   UNL d   1     -45.772  12.195  22.961  0.00  0.00     0.025 A 
ENDBRANCH  14  15
ENDBRANCH  13  14
ENDBRANCH  12  13
ENDBRANCH  11  12
ENDBRANCH   1  11
TORSDOF 6
ENDMDL
MODEL 4
REMARK VINA RESULT:      -5.2      1.412      1.915
REMARK  6 active torsions:
REMARK  status: ('A' for Active; 'I' for Inactive)
REMARK    1  A    between atoms: C_6  and  N_3 
REMARK    2  A    between atoms: C_14  and  C_6 
REMARK    3  A    between atoms: C_7  and  O_8 
REMARK    4  A    between atoms: O_8  and  C_11 
REMARK    5  A    between atoms: C_11  and  C_15 
REMARK    6  A    between atoms: C_15  and  C_14 
ROOT
ATOM      1  C   UNL d   1     -47.934  13.044  23.012  0.00  0.00     0.082 C 
ENDROOT
BRANCH   1   2
ATOM      2  N   UNL d   1     -48.555  12.544  23.232  0.00  0.00    -0.287 N 
ATOM      3  C   UNL d   1     -48.307  11.782  23.495  0.00  0.00     0.183 A 
ATOM      4  N   UNL d   1     -49.001  11.340  23.698  0.00  0.00    -0.224 NA
ATOM      5  C   UNL d   1     -49.669  11.826  23.561  0.00  0.00     0.099 A 
ATOM      6  C   UNL d   1     -49.388  12.571  23.273  0.00  0.00     0.083 A 
ATOM      7  C   UNL d   1     -50.477  11.695  23.658  0.00  0.00     0.021 A 
ATOM      8  C   UNL d   1     -49.943  13.167  23.089  0.00  0.00     0.019 A 
ATOM      9  C   UNL d   1     -50.755  13.029  23.189  0.00  0.00     0.002 A 
ATOM     10  C   UNL d   1     -51.018  12.288  23.475  0.00  0.00     0.002 A 
ENDBRANCH   1   2
BRANCH   1  11
ATOM     11  C   UNL d   1     -47.163  12.758  22.985  0.00  0.00     0.021 C 
BRANCH  11  12
ATOM     12  C   UNL d   1     -46.563  13.223  22.696  0.00  0.00     0.028 C 
BRANCH  12  13
ATOM     13  C   UNL d   1     -45.798  12.909  22.585  0.00  0.00     0.123 C 
BRANCH  13  14
ATOM     14  O   UNL d   1     -45.313  13.209  21.993  0.00  0.00    -0.305 OA
BRANCH  14  15
ATOM     15  C   UNL d   1     -44.552  12.909  21.894  0.00  0.00     0.100 A 
ATOM     16  C   UNL d   1     -44.310  12.251  22.334  0.00  0.00     0.025 A 
ATOM     17  C   UNL d   1     -43.557  11.960  22.232  0.00  0.00     0.002 A 
ATOM     18  C   UNL d   1     -43.039  12.305  21.703  0.00  0.00     0.000 A 
ATOM     19  C   UNL d   1     -43.282  12.965  21.262  0.00  0.00     0.002 A 
ATOM     20  C   UNL d   1     -44.040  13.267  21.358  0.00  0.00     0.025 A 
ENDBRANCH  14  15
ENDBRANCH  13  14
ENDBRANCH  12  13
ENDBRANCH  11  12
ENDBRANCH   1  11
TORSDOF 6
ENDMDL
MODEL 5
REMARK VINA RESULT:      -5.0      8.783     10.110
REMARK  6 active torsions:
REMARK  status: ('A' for Active; 'I' for Inactive)
REMARK    1  A    between atoms: C_6  and  N_3 
REMARK    2  A    between atoms: C_14  and  C_6 
REMARK    3  A    between atoms: C_7  and  O_8 
REMARK    4  A    between atoms: O_8  and  C_11 
REMARK    5  A    between atoms: C_11  and  C_15 
REMARK    6  A    between atoms: C_15  and  C_14 
ROOT
ATOM      1  C   UNL d   1     -40.196  14.211  18.445  0.00  0.00     0.082 C 
ENDROOT
BRANCH   1   2
ATOM      2  N   UNL d   1     -39.837  14.367  17.716  0.00  0.00    -0.287 N 
ATOM      3  C   UNL d   1     -40.153  15.037  17.313  0.00  0.00     0.183 A 
ATOM      4  N   UNL d   1     -39.732  15.123  16.583  0.00  0.00    -0.224 NA
ATOM      5  C   UNL d   1     -39.162  14.511  16.538  0.00  0.00     0.099 A 
ATOM      6  C   UNL d   1     -39.230  14.045  17.241  0.00  0.00     0.083 A 
ATOM      7  C   UNL d   1     -38.602  14.319  15.964  0.00  0.00     0.021 A 
ATOM      8  C   UNL d   1     -38.723  13.391  17.343  0.00  0.00     0.019 A 
ATOM      9  C   UNL d   1     -38.161  13.202  16.762  0.00  0.00     0.002 A 
ATOM     10  C   UNL d   1     -38.105  13.671  16.071  0.00  0.00     0.002 A 
ENDBRANCH   1   2
BRANCH   1  11
ATOM     11  C   UNL d   1     -40.177  14.775  19.044  0.00  0.00     0.021 C 
BRANCH  11  12
ATOM     12  C   UNL d   1     -40.390  14.575  19.802  0.00  0.00     0.028 C 
BRANCH  12  13
ATOM     13  C   UNL d   1     -40.020  14.936  20.457  0.00  0.00     0.123 C 
BRANCH  13  14
ATOM     14  O   UNL d   1     -40.134  14.633  21.212  0.00  0.00    -0.305 OA
BRANCH  14  15
ATOM     15  C   UNL d   1     -39.645  14.875  21.829  0.00  0.00     0.100 A 
ATOM     16  C   UNL d   1     -39.209  14.312  22.252  0.00  0.00     0.025 A 
ATOM     17  C   UNL d   1     -38.728  14.557  22.861  0.00  0.00     0.002 A 
ATOM     18  C   UNL d   1     -38.669  15.347  23.060  0.00  0.00     0.000 A 
ATOM     19  C   UNL d   1     -39.106  15.911  22.636  0.00  0.00     0.002 A 
ATOM     20  C   UNL d   1     -39.594  15.673  22.020  0.00  0.00     0.025 A 
ENDBRANCH  14  15
ENDBRANCH  13  14
ENDBRANCH  12  13
ENDBRANCH  11  12
ENDBRANCH   1  11
TORSDOF 6
ENDMDL
MODEL 6
REMARK VINA RESULT:      -4.9      8.599      9.934
REMARK  6 active torsions:
REMARK  status: ('A' for Active; 'I' for Inactive)
REMARK    1  A    between atoms: C_6  and  N_3 
REMARK    2  A    between atoms: C_14  and  C_6 
REMARK    3  A    between atoms: C_7  and  O_8 
REMARK    4  A    between atoms: O_8  and  C_11 
REMARK    5  A    between atoms: C_11  and  C_15 
REMARK    6  A    between atoms: C_15  and  C_14 
ROOT
ATOM      1  C   UNL d   1     -40.193  14.452  20.731  0.00  0.00     0.082 C 
ENDROOT
BRANCH   1   2
ATOM      2  N   UNL d   1     -39.806  14.759  21.395  0.00  0.00    -0.287 N 
ATOM      3  C   UNL d   1     -39.842  15.598  21.457  0.00  0.00     0.183 A 
ATOM      4  N   UNL d   1     -39.424  15.824  22.158  0.00  0.00    -0.224 NA
ATOM      5  C   UNL d   1     -39.135  15.129  22.524  0.00  0.00     0.099 A 
ATOM      6  C   UNL d   1     -39.374  14.471  22.048  0.00  0.00     0.083 A 
ATOM      7  C   UNL d   1     -38.696  15.008  23.212  0.00  0.00     0.021 A 
ATOM      8  C   UNL d   1     -39.157  13.701  22.287  0.00  0.00     0.019 A 
ATOM      9  C   UNL d   1     -38.715  13.585  22.979  0.00  0.00     0.002 A 
ATOM     10  C   UNL d   1     -38.486  14.245  23.440  0.00  0.00     0.002 A 
ENDBRANCH   1   2
BRANCH   1  11
ATOM     11  C   UNL d   1     -40.031  14.753  19.983  0.00  0.00     0.021 C 
BRANCH  11  12
ATOM     12  C   UNL d   1     -40.263  14.347  19.318  0.00  0.00     0.028 C 
BRANCH  12  13
ATOM     13  C   UNL d   1     -39.813  14.386  18.617  0.00  0.00     0.123 C 
BRANCH  13  14
ATOM     14  O   UNL d   1     -39.879  13.793  18.052  0.00  0.00    -0.305 OA
BRANCH  14  15
ATOM     15  C   UNL d   1     -39.322  13.738  17.448  0.00  0.00     0.100 A 
ATOM     16  C   UNL d   1     -38.782  13.111  17.443  0.00  0.00     0.025 A 
ATOM     17  C   UNL d   1     -38.235  13.062  16.843  0.00  0.00     0.002 A 
ATOM     18  C   UNL d   1     -38.210  13.620  16.247  0.00  0.00     0.000 A 
ATOM     19  C   UNL d   1     -38.752  14.250  16.252  0.00  0.00     0.002 A 
ATOM     20  C   UNL d   1     -39.308  14.307  16.854  0.00  0.00     0.025 A 
ENDBRANCH  14  15
ENDBRANCH  13  14
ENDBRANCH  12  13
ENDBRANCH  11  12
ENDBRANCH   1  11
TORSDOF 6
ENDMDL
MODEL 7
REMARK VINA RESULT:      -4.4      8.773      9.377
REMARK  6 active torsions:
REMARK  status: ('A' for Active; 'I' for Inactive)
REMARK    1  A    between atoms: C_6  and  N_3 
REMARK    2  A    between atoms: C_14  and  C_6 
REMARK    3  A    between atoms: C_7  and  O_8 
REMARK    4  A    between atoms: O_8  and  C_11 
REMARK    5  A    between atoms: C_11  and  C_15 
REMARK    6  A    between atoms: C_15  and  C_14 
ROOT
ATOM      1  C   UNL d   1     -40.195  15.737  19.329  0.00  0.00     0.082 C 
ENDROOT
BRANCH   1   2
ATOM      2  N   UNL d   1     -40.095  15.668  18.510  0.00  0.00    -0.287 N 
ATOM      3  C   UNL d   1     -39.308  15.482  18.274  0.00  0.00     0.183 A 
ATOM      4  N   UNL d   1     -39.296  15.431  17.428  0.00  0.00    -0.224 NA
ATOM      5  C   UNL d   1     -40.071  15.583  17.148  0.00  0.00     0.099 A 
ATOM      6  C   UNL d   1     -40.563  15.729  17.821  0.00  0.00     0.083 A 
ATOM      7  C   UNL d   1     -40.388  15.608  16.387  0.00  0.00     0.021 A 
ATOM      8  C   UNL d   1     -41.371  15.898  17.702  0.00  0.00     0.019 A 
ATOM      9  C   UNL d   1     -41.685  15.922  16.934  0.00  0.00     0.002 A 
ATOM     10  C   UNL d   1     -41.187  15.775  16.277  0.00  0.00     0.002 A 
ENDBRANCH   1   2
BRANCH   1  11
ATOM     11  C   UNL d   1     -39.779  15.243  19.839  0.00  0.00     0.021 C 
BRANCH  11  12
ATOM     12  C   UNL d   1     -39.953  15.233  20.632  0.00  0.00     0.028 C 
BRANCH  12  13
ATOM     13  C   UNL d   1     -39.420  14.897  21.180  0.00  0.00     0.123 C 
BRANCH  13  14
ATOM     14  O   UNL d   1     -39.700  14.589  21.888  0.00  0.00    -0.305 OA
BRANCH  14  15
ATOM     15  C   UNL d   1     -39.168  14.334  22.464  0.00  0.00     0.100 A 
ATOM     16  C   UNL d   1     -39.055  13.524  22.588  0.00  0.00     0.025 A 
ATOM     17  C   UNL d   1     -38.528  13.279  23.157  0.00  0.00     0.002 A 
ATOM     18  C   UNL d   1     -38.110  13.818  23.607  0.00  0.00     0.000 A 
ATOM     19  C   UNL d   1     -38.224  14.631  23.482  0.00  0.00     0.002 A 
ATOM     20  C   UNL d   1     -38.754  14.889  22.909  0.00  0.00     0.025 A 
ENDBRANCH  14  15
ENDBRANCH  13  14
ENDBRANCH  12  13
ENDBRANCH  11  12
ENDBRANCH   1  11
TORSDOF 6
ENDMDL
MODEL 8
REMARK VINA RESULT:      -4.2      8.608      9.947
REMARK  6 active torsions:
REMARK  status: ('A' for Active; 'I' for Inactive)
REMARK    1  A    between atoms: C_6  and  N_3 
REMARK    2  A    between atoms: C_14  and  C_6 
REMARK    3  A    between atoms: C_7  and  O_8 
REMARK    4  A    between atoms: O_8  and  C_11 
REMARK    5  A    between atoms: C_11  and  C_15 
REMARK    6  A    between atoms: C_15  and  C_14 
ROOT
ATOM      1  C   UNL d   1     -40.189  15.328  21.323  0.00  0.00     0.082 C 
ENDROOT
BRANCH   1   2
ATOM      2  N   UNL d   1     -39.680  14.873  21.790  0.00  0.00    -0.287 N 
ATOM      3  C   UNL d   1     -39.654  14.057  21.578  0.00  0.00     0.183 A 
ATOM      4  N   UNL d   1     -39.113  13.670  22.102  0.00  0.00    -0.224 NA
ATOM      5  C   UNL d   1     -38.810  14.242  22.633  0.00  0.00     0.099 A 
ATOM      6  C   UNL d   1     -39.163  14.986  22.436  0.00  0.00     0.083 A 
ATOM      7  C   UNL d   1     -38.271  14.189  23.255  0.00  0.00     0.021 A 
ATOM      8  C   UNL d   1     -38.956  15.661  22.881  0.00  0.00     0.019 A 
ATOM      9  C   UNL d   1     -38.414  15.601  23.506  0.00  0.00     0.002 A 
ATOM     10  C   UNL d   1     -38.072  14.859  23.690  0.00  0.00     0.002 A 
ENDBRANCH   1   2
BRANCH   1  11
ATOM     11  C   UNL d   1     -40.225  15.204  20.511  0.00  0.00     0.021 C 
BRANCH  11  12
ATOM     12  C   UNL d   1     -40.566  15.760  20.026  0.00  0.00     0.028 C 
BRANCH  12  13
ATOM     13  C   UNL d   1     -40.418  15.756  19.205  0.00  0.00     0.123 C 
BRANCH  13  14
ATOM     14  O   UNL d   1     -41.034  15.881  18.676  0.00  0.00    -0.305 OA
BRANCH  14  15
ATOM     15  C   UNL d   1     -40.890  15.857  17.865  0.00  0.00     0.100 A 
ATOM     16  C   UNL d   1     -41.522  15.922  17.335  0.00  0.00     0.025 A 
ATOM     17  C   UNL d   1     -41.373  15.898  16.535  0.00  0.00     0.002 A 
ATOM     18  C   UNL d   1     -40.613  15.812  16.249  0.00  0.00     0.000 A 
ATOM     19  C   UNL d   1     -39.979  15.747  16.782  0.00  0.00     0.002 A 
ATOM     20  C   UNL d   1     -40.120  15.770  17.591  0.00  0.00     0.025 A 
ENDBRANCH  14  15
ENDBRANCH  13  14
ENDBRANCH  12  13
ENDBRANCH  11  12
ENDBRANCH   1  11
TORSDOF 6
ENDMDL
