MODEL 1
REMARK VINA RESULT:      13.0      0.000      0.000
REMARK  3 active torsions:
REMARK  status: ('A' for Active; 'I' for Inactive)
REMARK    1  A    between atoms: C_4  and  C_1 
REMARK    2  A    between atoms: C_9  and  N_2 
REMARK    3  A    between atoms: C_8  and  C_13 
ROOT
ATOM      1  N   UNL d   1      45.413 -15.017  44.416  0.00  0.00    -0.273 N 
ATOM      2  C   UNL d   1      45.420 -16.364  44.364  0.00  0.00     0.056 A 
ATOM      3  C   UNL d   1      44.676 -15.293  44.693  0.00  0.00     0.265 A 
ATOM      4  C   UNL d   1      45.865 -15.675  44.217  0.00  0.00     0.086 A 
ATOM      5  C   UNL d   1      44.682 -16.117  44.660  0.00  0.00     0.066 A 
ATOM      6  O   UNL d   1      44.052 -14.812  44.953  0.00  0.00    -0.267 OA
ENDROOT
BRANCH   1   7
ATOM      7  C   UNL d   1      45.607 -14.232  44.370  0.00  0.00     0.067 A 
ATOM      8  C   UNL d   1      45.317 -13.776  43.755  0.00  0.00     0.021 A 
ATOM      9  C   UNL d   1      45.507 -12.968  43.694  0.00  0.00     0.073 A 
ATOM     10  C   UNL d   1      46.003 -12.620  44.273  0.00  0.00     0.004 A 
ATOM     11  C   UNL d   1      46.293 -13.077  44.887  0.00  0.00     0.001 A 
ATOM     12  C   UNL d   1      46.097 -13.884  44.939  0.00  0.00     0.018 A 
BRANCH   9  13
ATOM     13  C   UNL d   1      45.211 -12.529  43.078  0.00  0.00     0.419 C 
ATOM     14  F   UNL d   1      44.910 -12.080  42.439  0.00  0.00    -0.166 F 
ATOM     15  F   UNL d   1      44.738 -12.106  43.598  0.00  0.00    -0.166 F 
ATOM     16  F   UNL d   1      45.682 -12.948  42.541  0.00  0.00    -0.166 F 
ENDBRANCH   9  13
ENDBRANCH   1   7
BRANCH   2  17
ATOM     17  C   UNL d   1      45.706 -17.118  44.225  0.00  0.00     0.142 A 
ATOM     18  N   UNL d   1      45.874 -17.703  44.742  0.00  0.00    -0.227 NA
ATOM     19  C   UNL d   1      46.150 -18.363  44.319  0.00  0.00     0.099 A 
ATOM     20  C   UNL d   1      46.397 -19.102  44.567  0.00  0.00     0.021 A 
ATOM     21  C   UNL d   1      46.147 -18.163  43.526  0.00  0.00     0.076 A 
ATOM     22  C   UNL d   1      46.647 -19.652  43.994  0.00  0.00     0.002 A 
ATOM     23  C   UNL d   1      46.644 -19.453  43.200  0.00  0.00     0.002 A 
ATOM     24  C   UNL d   1      46.390 -18.698  42.957  0.00  0.00     0.019 A 
ATOM     25  N   UNL d   1      45.868 -17.383  43.468  0.00  0.00    -0.338 N 
ATOM     26  H   UNL d   1      45.769 -16.942  42.762  0.00  0.00     0.167 HD
ENDBRANCH   2  17
TORSDOF 3
ENDMDL
