MODEL 1
REMARK VINA RESULT:      -5.6      0.000      0.000
REMARK  5 active torsions:
REMARK  status: ('A' for Active; 'I' for Inactive)
REMARK    1  A    between atoms: N_3  and  C_1 
REMARK    2  A    between atoms: N_6  and  C_1 
REMARK       I    between atoms: C_2  and  N_4 
REMARK    3  A    between atoms: C_5  and  C_2 
REMARK    4  A    between atoms: C_7  and  N_3 
REMARK    5  A    between atoms: N_4  and  N_6 
ROOT
ATOM      1  N   UNL d   1     -41.308-122.616 -51.400  0.00  0.00    -0.273 N 
ATOM      2  H   UNL d   1     -41.035-121.845 -51.276  0.00  0.00     0.189 HD
ENDROOT
BRANCH   1   3
ATOM      3  N   UNL d   1     -41.393-122.910 -52.165  0.00  0.00    -0.264 N 
ATOM      4  C   UNL d   1     -41.445-122.383 -52.792  0.00  0.00     0.272 C 
ATOM      5  O   UNL d   1     -41.413-121.567 -52.658  0.00  0.00    -0.266 OA
ATOM      6  H   UNL d   1     -41.425-123.714 -52.297  0.00  0.00     0.190 HD
BRANCH   4   7
ATOM      7  C   UNL d   1     -41.532-122.657 -53.572  0.00  0.00     0.058 A 
ATOM      8  C   UNL d   1     -41.733-122.142 -54.171  0.00  0.00     0.011 A 
ATOM      9  C   UNL d   1     -41.813-122.436 -54.938  0.00  0.00     0.035 A 
ATOM     10 BR   UNL d   1     -42.017-121.935 -55.563  0.00  0.00    -0.049 Br
ATOM     11  C   UNL d   1     -41.690-123.245 -55.094  0.00  0.00     0.007 A 
ATOM     12  C   UNL d   1     -41.486-123.761 -54.483  0.00  0.00     0.001 A 
ATOM     13  C   UNL d   1     -41.408-123.466 -53.728  0.00  0.00     0.005 A 
ENDBRANCH   4   7
ENDBRANCH   1   3
BRANCH   1  14
ATOM     14  C   UNL d   1     -41.496-123.097 -50.769  0.00  0.00     0.191 C 
ATOM     15  S   UNL d   1     -41.123-123.816 -50.667  0.00  0.00    -0.039 SA
BRANCH  14  16
ATOM     16  N   UNL d   1     -42.080-122.851 -50.219  0.00  0.00    -0.331 N 
ATOM     17  H   UNL d   1     -42.758-122.459 -50.489  0.00  0.00     0.168 HD
BRANCH  16  18
ATOM     18  C   UNL d   1     -41.976-123.000 -49.419  0.00  0.00     0.058 A 
ATOM     19  C   UNL d   1     -42.633-123.002 -48.921  0.00  0.00     0.016 A 
ATOM     20  C   UNL d   1     -43.389-122.856 -49.226  0.00  0.00     0.002 C 
ATOM     21  C   UNL d   1     -42.527-123.150 -48.128  0.00  0.00     0.001 A 
ATOM     22  C   UNL d   1     -41.782-123.294 -47.827  0.00  0.00     0.000 A 
ATOM     23  C   UNL d   1     -41.128-123.293 -48.314  0.00  0.00     0.002 A 
ATOM     24  C   UNL d   1     -41.231-123.143 -49.119  0.00  0.00     0.017 A 
ENDBRANCH  16  18
ENDBRANCH  14  16
ENDBRANCH   1  14
TORSDOF 5
ENDMDL
MODEL 2
REMARK VINA RESULT:      -3.3      0.907      1.438
REMARK  5 active torsions:
REMARK  status: ('A' for Active; 'I' for Inactive)
REMARK    1  A    between atoms: N_3  and  C_1 
REMARK    2  A    between atoms: N_6  and  C_1 
REMARK       I    between atoms: C_2  and  N_4 
REMARK    3  A    between atoms: C_5  and  C_2 
REMARK    4  A    between atoms: C_7  and  N_3 
REMARK    5  A    between atoms: N_4  and  N_6 
ROOT
ATOM      1  N   UNL d   1     -41.169-123.094 -51.658  0.00  0.00    -0.273 N 
ATOM      2  H   UNL d   1     -40.838-123.848 -51.743  0.00  0.00     0.189 HD
ENDROOT
BRANCH   1   3
ATOM      3  N   UNL d   1     -41.432-122.678 -52.319  0.00  0.00    -0.264 N 
ATOM      4  C   UNL d   1     -41.413-123.042 -53.054  0.00  0.00     0.272 C 
ATOM      5  O   UNL d   1     -41.133-123.817 -53.132  0.00  0.00    -0.266 OA
ATOM      6  H   UNL d   1     -41.708-121.914 -52.242  0.00  0.00     0.190 HD
BRANCH   4   7
ATOM      7  C   UNL d   1     -41.673-122.641 -53.734  0.00  0.00     0.058 A 
ATOM      8  C   UNL d   1     -41.979-123.055 -54.366  0.00  0.00     0.011 A 
ATOM      9  C   UNL d   1     -42.232-122.636 -55.031  0.00  0.00     0.035 A 
ATOM     10 BR   UNL d   1     -42.546-123.032 -55.685  0.00  0.00    -0.049 Br
ATOM     11  C   UNL d   1     -42.174-121.806 -55.053  0.00  0.00     0.007 A 
ATOM     12  C   UNL d   1     -41.863-121.392 -54.410  0.00  0.00     0.001 A 
ATOM     13  C   UNL d   1     -41.615-121.811 -53.756  0.00  0.00     0.005 A 
ENDBRANCH   4   7
ENDBRANCH   1   3
BRANCH   1  14
ATOM     14  C   UNL d   1     -41.240-122.751 -50.922  0.00  0.00     0.191 C 
ATOM     15  S   UNL d   1     -41.234-121.939 -50.838  0.00  0.00    -0.039 SA
BRANCH  14  16
ATOM     16  N   UNL d   1     -41.320-123.239 -50.243  0.00  0.00    -0.331 N 
ATOM     17  H   UNL d   1     -40.758-123.828 -50.093  0.00  0.00     0.168 HD
BRANCH  16  18
ATOM     18  C   UNL d   1     -41.954-123.129 -49.735  0.00  0.00     0.058 A 
ATOM     19  C   UNL d   1     -41.886-123.369 -48.949  0.00  0.00     0.016 A 
ATOM     20  C   UNL d   1     -41.186-123.717 -48.677  0.00  0.00     0.002 C 
ATOM     21  C   UNL d   1     -42.518-123.258 -48.447  0.00  0.00     0.001 A 
ATOM     22  C   UNL d   1     -43.208-122.916 -48.714  0.00  0.00     0.000 A 
ATOM     23  C   UNL d   1     -43.282-122.676 -49.489  0.00  0.00     0.002 A 
ATOM     24  C   UNL d   1     -42.645-122.786 -50.002  0.00  0.00     0.017 A 
ENDBRANCH  16  18
ENDBRANCH  14  16
ENDBRANCH   1  14
TORSDOF 5
ENDMDL
MODEL 3
REMARK VINA RESULT:      -2.7      1.067      1.716
REMARK  5 active torsions:
REMARK  status: ('A' for Active; 'I' for Inactive)
REMARK    1  A    between atoms: N_3  and  C_1 
REMARK    2  A    between atoms: N_6  and  C_1 
REMARK       I    between atoms: C_2  and  N_4 
REMARK    3  A    between atoms: C_5  and  C_2 
REMARK    4  A    between atoms: C_7  and  N_3 
REMARK    5  A    between atoms: N_4  and  N_6 
ROOT
ATOM      1  N   UNL d   1     -41.788-122.397 -50.223  0.00  0.00    -0.273 N 
ATOM      2  H   UNL d   1     -42.122-121.667 -50.020  0.00  0.00     0.189 HD
ENDROOT
BRANCH   1   3
ATOM      3  N   UNL d   1     -41.576-122.556 -51.003  0.00  0.00    -0.264 N 
ATOM      4  C   UNL d   1     -41.815-122.040 -51.595  0.00  0.00     0.272 C 
ATOM      5  O   UNL d   1     -42.264-121.369 -51.411  0.00  0.00    -0.266 OA
ATOM      6  H   UNL d   1     -41.133-123.217 -51.184  0.00  0.00     0.190 HD
BRANCH   4   7
ATOM      7  C   UNL d   1     -41.612-122.181 -52.389  0.00  0.00     0.058 A 
ATOM      8  C   UNL d   1     -41.582-122.941 -52.680  0.00  0.00     0.011 A 
ATOM      9  C   UNL d   1     -41.378-123.056 -53.471  0.00  0.00     0.035 A 
ATOM     10 BR   UNL d   1     -41.340-123.817 -53.792  0.00  0.00    -0.049 Br
ATOM     11  C   UNL d   1     -41.208-122.405 -53.962  0.00  0.00     0.007 A 
ATOM     12  C   UNL d   1     -41.241-121.637 -53.661  0.00  0.00     0.001 A 
ATOM     13  C   UNL d   1     -41.442-121.529 -52.879  0.00  0.00     0.005 A 
ENDBRANCH   4   7
ENDBRANCH   1   3
BRANCH   1  14
ATOM     14  C   UNL d   1     -41.663-122.969 -49.656  0.00  0.00     0.191 C 
ATOM     15  S   UNL d   1     -41.671-123.761 -49.854  0.00  0.00    -0.039 SA
BRANCH  14  16
ATOM     16  N   UNL d   1     -41.525-122.741 -48.860  0.00  0.00    -0.331 N 
ATOM     17  H   UNL d   1     -40.917-122.207 -48.685  0.00  0.00     0.168 HD
BRANCH  16  18
ATOM     18  C   UNL d   1     -41.993-123.048 -48.260  0.00  0.00     0.058 A 
ATOM     19  C   UNL d   1     -41.791-122.899 -47.475  0.00  0.00     0.016 A 
ATOM     20  C   UNL d   1     -41.123-122.445 -47.295  0.00  0.00     0.002 C 
ATOM     21  C   UNL d   1     -42.258-123.206 -46.883  0.00  0.00     0.001 A 
ATOM     22  C   UNL d   1     -42.917-123.653 -47.060  0.00  0.00     0.000 A 
ATOM     23  C   UNL d   1     -43.122-123.804 -47.834  0.00  0.00     0.002 A 
ATOM     24  C   UNL d   1     -42.652-123.496 -48.438  0.00  0.00     0.017 A 
ENDBRANCH  16  18
ENDBRANCH  14  16
ENDBRANCH   1  14
TORSDOF 5
ENDMDL
