MODEL 1
REMARK VINA RESULT:      -3.1      0.000      0.000
REMARK  2 active torsions:
REMARK  status: ('A' for Active; 'I' for Inactive)
REMARK       I    between atoms: C_6  and  N_8 
REMARK    1  A    between atoms: C_7  and  C_6 
REMARK    2  A    between atoms: N_8  and  C_11 
ROOT
ATOM      1  N   UNL d   1     -41.641-123.639 -53.808  0.00  0.00    -0.246 NA
ATOM      2  C   UNL d   1     -41.869-122.321 -53.848  0.00  0.00     0.019 A 
ATOM      3  C   UNL d   1     -41.878-123.018 -54.295  0.00  0.00     0.081 A 
ATOM      4  C   UNL d   1     -41.627-122.519 -53.093  0.00  0.00     0.021 A 
ATOM      5  C   UNL d   1     -41.489-123.332 -53.078  0.00  0.00     0.082 A 
ATOM      6  C   UNL d   1     -41.515-122.064 -52.422  0.00  0.00     0.021 A 
ATOM      7  C   UNL d   1     -41.261-122.419 -51.717  0.00  0.00     0.085 A 
ATOM      8  C   UNL d   1     -41.233-123.694 -52.371  0.00  0.00     0.021 A 
ATOM      9  C   UNL d   1     -41.123-123.233 -51.699  0.00  0.00     0.021 A 
ATOM     10  C   UNL d   1     -42.086-121.593 -54.198  0.00  0.00     0.002 A 
ATOM     11  C   UNL d   1     -42.104-122.990 -55.092  0.00  0.00     0.019 A 
ATOM     12  C   UNL d   1     -42.310-121.568 -54.991  0.00  0.00     0.000 A 
ATOM     13  C   UNL d   1     -42.319-122.266 -55.438  0.00  0.00     0.002 A 
ENDROOT
BRANCH   7  14
ATOM     14  N   UNL d   1     -41.147-121.947 -51.025  0.00  0.00    -0.206 NA
ATOM     15  C   UNL d   1     -41.605-122.083 -50.348  0.00  0.00     0.302 C 
ATOM     16  O   UNL d   1     -41.482-121.620 -49.691  0.00  0.00    -0.263 OA
BRANCH  15  17
ATOM     17  C   UNL d   1     -42.183-122.692 -50.349  0.00  0.00     0.158 A 
ATOM     18  O   UNL d   1     -42.143-123.506 -50.489  0.00  0.00    -0.300 OA
ATOM     19  C   UNL d   1     -42.897-123.811 -50.410  0.00  0.00     0.123 A 
ATOM     20  C   UNL d   1     -43.400-123.203 -50.226  0.00  0.00     0.029 A 
ATOM     21  C   UNL d   1     -42.954-122.516 -50.190  0.00  0.00     0.032 A 
ENDBRANCH  15  17
ENDBRANCH   7  14
TORSDOF 2
ENDMDL
MODEL 2
REMARK VINA RESULT:      -2.2      1.890      3.809
REMARK  2 active torsions:
REMARK  status: ('A' for Active; 'I' for Inactive)
REMARK       I    between atoms: C_6  and  N_8 
REMARK    1  A    between atoms: C_7  and  C_6 
REMARK    2  A    between atoms: N_8  and  C_11 
ROOT
ATOM      1  N   UNL d   1     -41.601-123.792 -52.318  0.00  0.00    -0.246 NA
ATOM      2  C   UNL d   1     -41.290-122.496 -52.184  0.00  0.00     0.019 A 
ATOM      3  C   UNL d   1     -41.467-123.191 -51.770  0.00  0.00     0.081 A 
ATOM      4  C   UNL d   1     -41.316-122.676 -52.982  0.00  0.00     0.021 A 
ATOM      5  C   UNL d   1     -41.508-123.475 -53.054  0.00  0.00     0.082 A 
ATOM      6  C   UNL d   1     -41.190-122.215 -53.645  0.00  0.00     0.021 A 
ATOM      7  C   UNL d   1     -41.255-122.550 -54.401  0.00  0.00     0.085 A 
ATOM      8  C   UNL d   1     -41.574-123.816 -53.812  0.00  0.00     0.021 A 
ATOM      9  C   UNL d   1     -41.446-123.349 -54.477  0.00  0.00     0.021 A 
ATOM     10  C   UNL d   1     -41.128-121.788 -51.771  0.00  0.00     0.002 A 
ATOM     11  C   UNL d   1     -41.483-123.180 -50.941  0.00  0.00     0.019 A 
ATOM     12  C   UNL d   1     -41.144-121.780 -50.946  0.00  0.00     0.000 A 
ATOM     13  C   UNL d   1     -41.321-122.475 -50.532  0.00  0.00     0.002 A 
ENDROOT
BRANCH   7  14
ATOM     14  N   UNL d   1     -41.124-122.071 -55.087  0.00  0.00    -0.206 NA
ATOM     15  C   UNL d   1     -41.765-121.720 -55.477  0.00  0.00     0.302 C 
ATOM     16  O   UNL d   1     -41.622-121.262 -56.134  0.00  0.00    -0.263 OA
BRANCH  15  17
ATOM     17  C   UNL d   1     -42.546-121.839 -55.192  0.00  0.00     0.158 A 
ATOM     18  O   UNL d   1     -42.950-121.562 -54.525  0.00  0.00    -0.300 OA
ATOM     19  C   UNL d   1     -43.706-121.871 -54.545  0.00  0.00     0.123 A 
ATOM     20  C   UNL d   1     -43.776-122.331 -55.208  0.00  0.00     0.029 A 
ATOM     21  C   UNL d   1     -43.058-122.308 -55.603  0.00  0.00     0.032 A 
ENDBRANCH  15  17
ENDBRANCH   7  14
TORSDOF 2
ENDMDL
MODEL 3
REMARK VINA RESULT:      -1.5      1.837      4.586
REMARK  2 active torsions:
REMARK  status: ('A' for Active; 'I' for Inactive)
REMARK       I    between atoms: C_6  and  N_8 
REMARK    1  A    between atoms: C_7  and  C_6 
REMARK    2  A    between atoms: N_8  and  C_11 
ROOT
ATOM      1  N   UNL d   1     -43.249-122.460 -48.820  0.00  0.00    -0.246 NA
ATOM      2  C   UNL d   1     -42.198-123.271 -48.644  0.00  0.00     0.019 A 
ATOM      3  C   UNL d   1     -42.747-122.790 -48.254  0.00  0.00     0.081 A 
ATOM      4  C   UNL d   1     -42.365-123.233 -49.444  0.00  0.00     0.021 A 
ATOM      5  C   UNL d   1     -43.013-122.731 -49.542  0.00  0.00     0.082 A 
ATOM      6  C   UNL d   1     -42.012-123.588 -50.089  0.00  0.00     0.021 A 
ATOM      7  C   UNL d   1     -42.303-123.448 -50.853  0.00  0.00     0.085 A 
ATOM      8  C   UNL d   1     -43.310-122.586 -50.308  0.00  0.00     0.021 A 
ATOM      9  C   UNL d   1     -42.951-122.947 -50.954  0.00  0.00     0.021 A 
ATOM     10  C   UNL d   1     -41.614-123.682 -48.210  0.00  0.00     0.002 A 
ATOM     11  C   UNL d   1     -42.715-122.718 -47.429  0.00  0.00     0.019 A 
ATOM     12  C   UNL d   1     -41.584-123.609 -47.389  0.00  0.00     0.000 A 
ATOM     13  C   UNL d   1     -42.134-123.127 -46.999  0.00  0.00     0.002 A 
ENDROOT
BRANCH   7  14
ATOM     14  N   UNL d   1     -41.936-123.817 -51.519  0.00  0.00    -0.206 NA
ATOM     15  C   UNL d   1     -41.469-123.370 -52.038  0.00  0.00     0.302 C 
ATOM     16  O   UNL d   1     -41.123-123.741 -52.674  0.00  0.00    -0.263 OA
BRANCH  15  17
ATOM     17  C   UNL d   1     -41.361-122.548 -51.901  0.00  0.00     0.158 A 
ATOM     18  O   UNL d   1     -41.138-122.113 -51.234  0.00  0.00    -0.300 OA
ATOM     19  C   UNL d   1     -41.129-121.323 -51.443  0.00  0.00     0.123 A 
ATOM     20  C   UNL d   1     -41.341-121.262 -52.222  0.00  0.00     0.029 A 
ATOM     21  C   UNL d   1     -41.483-122.021 -52.500  0.00  0.00     0.032 A 
ENDBRANCH  15  17
ENDBRANCH   7  14
TORSDOF 2
ENDMDL
MODEL 4
REMARK VINA RESULT:      -1.2      1.155      1.643
REMARK  2 active torsions:
REMARK  status: ('A' for Active; 'I' for Inactive)
REMARK       I    between atoms: C_6  and  N_8 
REMARK    1  A    between atoms: C_7  and  C_6 
REMARK    2  A    between atoms: N_8  and  C_11 
ROOT
ATOM      1  N   UNL d   1     -41.324-123.456 -52.318  0.00  0.00    -0.246 NA
ATOM      2  C   UNL d   1     -41.563-122.155 -52.114  0.00  0.00     0.019 A 
ATOM      3  C   UNL d   1     -41.497-122.743 -52.693  0.00  0.00     0.081 A 
ATOM      4  C   UNL d   1     -41.431-122.511 -51.390  0.00  0.00     0.021 A 
ATOM      5  C   UNL d   1     -41.284-123.311 -51.525  0.00  0.00     0.082 A 
ATOM      6  C   UNL d   1     -41.425-122.208 -50.630  0.00  0.00     0.021 A 
ATOM      7  C   UNL d   1     -41.271-122.707 -49.986  0.00  0.00     0.085 A 
ATOM      8  C   UNL d   1     -41.129-123.817 -50.881  0.00  0.00     0.021 A 
ATOM      9  C   UNL d   1     -41.124-123.508 -50.118  0.00  0.00     0.021 A 
ATOM     10  C   UNL d   1     -41.738-121.367 -52.331  0.00  0.00     0.002 A 
ATOM     11  C   UNL d   1     -41.605-122.545 -53.491  0.00  0.00     0.019 A 
ATOM     12  C   UNL d   1     -41.845-121.173 -53.125  0.00  0.00     0.000 A 
ATOM     13  C   UNL d   1     -41.778-121.762 -53.705  0.00  0.00     0.002 A 
ENDROOT
BRANCH   7  14
ATOM     14  N   UNL d   1     -41.266-122.392 -49.201  0.00  0.00    -0.206 NA
ATOM     15  C   UNL d   1     -41.920-122.501 -48.704  0.00  0.00     0.302 C 
ATOM     16  O   UNL d   1     -41.899-122.192 -47.952  0.00  0.00    -0.263 OA
BRANCH  15  17
ATOM     17  C   UNL d   1     -42.590-122.925 -48.981  0.00  0.00     0.158 A 
ATOM     18  O   UNL d   1     -42.757-123.733 -49.045  0.00  0.00    -0.300 OA
ATOM     19  C   UNL d   1     -43.508-123.808 -49.359  0.00  0.00     0.123 A 
ATOM     20  C   UNL d   1     -43.807-123.066 -49.488  0.00  0.00     0.029 A 
ATOM     21  C   UNL d   1     -43.236-122.526 -49.254  0.00  0.00     0.032 A 
ENDBRANCH  15  17
ENDBRANCH   7  14
TORSDOF 2
ENDMDL
