MODEL 1
REMARK VINA RESULT:      -3.2      0.000      0.000
REMARK  5 active torsions:
REMARK  status: ('A' for Active; 'I' for Inactive)
REMARK    1  A    between atoms: N_2  and  S_1 
REMARK    2  A    between atoms: C_4  and  S_1 
REMARK    3  A    between atoms: C_3  and  N_2 
REMARK    4  A    between atoms: N_7  and  C_3 
REMARK    5  A    between atoms: C_15  and  N_7 
ROOT
ATOM      1  S   UNL d   1      33.181  20.004 -22.389  0.00  0.00     0.287 S 
ATOM      2  O   UNL d   1      33.121  19.562 -21.685  0.00  0.00    -0.198 OA
ATOM      3  O   UNL d   1      33.241  20.425 -23.096  0.00  0.00    -0.198 OA
ENDROOT
BRANCH   1   4
ATOM      4  N   UNL d   1      33.191  20.708 -21.957  0.00  0.00    -0.128 NA
BRANCH   4   5
ATOM      5  C   UNL d   1      32.919  21.492 -21.849  0.00  0.00     0.232 C 
ATOM      6  S   UNL d   1      33.240  22.101 -22.295  0.00  0.00    -0.036 SA
BRANCH   5   7
ATOM      7  N   UNL d   1      32.329  21.641 -21.292  0.00  0.00    -0.217 NA
BRANCH   7   8
ATOM      8  C   UNL d   1      32.361  22.332 -20.840  0.00  0.00     0.084 A 
ATOM      9  C   UNL d   1      32.766  22.334 -20.127  0.00  0.00     0.019 A 
ATOM     10  C   UNL d   1      32.800  23.017 -19.676  0.00  0.00     0.002 A 
ATOM     11  C   UNL d   1      32.431  23.702 -19.934  0.00  0.00     0.000 A 
ATOM     12  C   UNL d   1      32.023  23.702 -20.651  0.00  0.00     0.002 A 
ATOM     13  C   UNL d   1      31.987  23.018 -21.105  0.00  0.00     0.019 A 
ENDBRANCH   7   8
ENDBRANCH   5   7
ENDBRANCH   4   5
ENDBRANCH   1   4
BRANCH   1  14
ATOM     14  C   UNL d   1      33.171  19.295 -22.824  0.00  0.00     0.105 A 
ATOM     15  C   UNL d   1      33.099  19.316 -23.654  0.00  0.00     0.014 A 
ATOM     16  C   UNL d   1      33.089  18.617 -24.083  0.00  0.00     0.012 A 
ATOM     17  C   UNL d   1      33.150  17.892 -23.694  0.00  0.00     0.058 A 
ATOM     18  C   UNL d   1      33.222  17.865 -22.870  0.00  0.00     0.012 A 
ATOM     19 CL   UNL d   1      33.140  17.193 -24.122  0.00  0.00    -0.082 Cl
ATOM     20  C   UNL d   1      33.232  18.569 -22.439  0.00  0.00     0.014 A 
ENDBRANCH   1  14
TORSDOF 5
ENDMDL
MODEL 2
REMARK VINA RESULT:      -2.9      1.945      4.946
REMARK  5 active torsions:
REMARK  status: ('A' for Active; 'I' for Inactive)
REMARK    1  A    between atoms: N_2  and  S_1 
REMARK    2  A    between atoms: C_4  and  S_1 
REMARK    3  A    between atoms: C_3  and  N_2 
REMARK    4  A    between atoms: N_7  and  C_3 
REMARK    5  A    between atoms: C_15  and  N_7 
ROOT
ATOM      1  S   UNL d   1      33.121  20.219 -22.105  0.00  0.00     0.287 S 
ATOM      2  O   UNL d   1      33.130  20.643 -22.822  0.00  0.00    -0.198 OA
ATOM      3  O   UNL d   1      33.109  19.816 -21.385  0.00  0.00    -0.198 OA
ENDROOT
BRANCH   1   4
ATOM      4  N   UNL d   1      33.239  19.510 -22.511  0.00  0.00    -0.128 NA
BRANCH   4   5
ATOM      5  C   UNL d   1      32.988  18.960 -23.090  0.00  0.00     0.232 C 
ATOM      6  S   UNL d   1      33.237  19.041 -23.867  0.00  0.00    -0.036 SA
BRANCH   5   7
ATOM      7  N   UNL d   1      32.490  18.340 -22.868  0.00  0.00    -0.217 NA
BRANCH   7   8
ATOM      8  C   UNL d   1      32.470  17.651 -23.323  0.00  0.00     0.084 A 
ATOM      9  C   UNL d   1      31.880  17.548 -23.883  0.00  0.00     0.019 A 
ATOM     10  C   UNL d   1      31.858  16.866 -24.336  0.00  0.00     0.002 A 
ATOM     11  C   UNL d   1      32.424  16.282 -24.233  0.00  0.00     0.000 A 
ATOM     12  C   UNL d   1      33.019  16.383 -23.670  0.00  0.00     0.002 A 
ATOM     13  C   UNL d   1      33.043  17.067 -23.214  0.00  0.00     0.019 A 
ENDBRANCH   7   8
ENDBRANCH   5   7
ENDBRANCH   4   5
ENDBRANCH   1   4
BRANCH   1  14
ATOM     14  C   UNL d   1      33.002  20.934 -21.695  0.00  0.00     0.105 A 
ATOM     15  C   UNL d   1      32.871  20.925 -20.872  0.00  0.00     0.014 A 
ATOM     16  C   UNL d   1      32.754  21.629 -20.468  0.00  0.00     0.012 A 
ATOM     17  C   UNL d   1      32.766  22.347 -20.875  0.00  0.00     0.058 A 
ATOM     18  C   UNL d   1      32.896  22.361 -21.692  0.00  0.00     0.012 A 
ATOM     19 CL   UNL d   1      32.649  23.051 -20.472  0.00  0.00    -0.082 Cl
ATOM     20  C   UNL d   1      33.014  21.652 -22.098  0.00  0.00     0.014 A 
ENDBRANCH   1  14
TORSDOF 5
ENDMDL
MODEL 3
REMARK VINA RESULT:      -2.2      1.186      1.752
REMARK  5 active torsions:
REMARK  status: ('A' for Active; 'I' for Inactive)
REMARK    1  A    between atoms: N_2  and  S_1 
REMARK    2  A    between atoms: C_4  and  S_1 
REMARK    3  A    between atoms: C_3  and  N_2 
REMARK    4  A    between atoms: N_7  and  C_3 
REMARK    5  A    between atoms: C_15  and  N_7 
ROOT
ATOM      1  S   UNL d   1      32.944  18.807 -23.207  0.00  0.00     0.287 S 
ATOM      2  O   UNL d   1      33.004  18.502 -22.434  0.00  0.00    -0.198 OA
ATOM      3  O   UNL d   1      32.880  19.091 -23.979  0.00  0.00    -0.198 OA
ENDROOT
BRANCH   1   4
ATOM      4  N   UNL d   1      33.190  19.550 -22.943  0.00  0.00    -0.128 NA
BRANCH   4   5
ATOM      5  C   UNL d   1      33.017  20.271 -22.555  0.00  0.00     0.232 C 
ATOM      6  S   UNL d   1      33.241  20.982 -22.896  0.00  0.00    -0.036 SA
BRANCH   5   7
ATOM      7  N   UNL d   1      32.623  20.254 -21.830  0.00  0.00    -0.217 NA
BRANCH   7   8
ATOM      8  C   UNL d   1      32.687  20.899 -21.317  0.00  0.00     0.084 A 
ATOM      9  C   UNL d   1      32.267  21.586 -21.470  0.00  0.00     0.019 A 
ATOM     10  C   UNL d   1      32.328  22.227 -20.964  0.00  0.00     0.002 A 
ATOM     11  C   UNL d   1      32.810  22.186 -20.301  0.00  0.00     0.000 A 
ATOM     12  C   UNL d   1      33.235  21.495 -20.146  0.00  0.00     0.002 A 
ATOM     13  C   UNL d   1      33.174  20.851 -20.653  0.00  0.00     0.019 A 
ENDBRANCH   7   8
ENDBRANCH   5   7
ENDBRANCH   4   5
ENDBRANCH   1   4
BRANCH   1  14
ATOM     14  C   UNL d   1      32.697  18.058 -23.472  0.00  0.00     0.105 A 
ATOM     15  C   UNL d   1      33.226  17.414 -23.455  0.00  0.00     0.014 A 
ATOM     16  C   UNL d   1      32.982  16.676 -23.716  0.00  0.00     0.012 A 
ATOM     17  C   UNL d   1      32.213  16.569 -23.997  0.00  0.00     0.058 A 
ATOM     18  C   UNL d   1      31.685  17.205 -24.017  0.00  0.00     0.012 A 
ATOM     19 CL   UNL d   1      31.969  15.831 -24.259  0.00  0.00    -0.082 Cl
ATOM     20  C   UNL d   1      31.930  17.948 -23.754  0.00  0.00     0.014 A 
ENDBRANCH   1  14
TORSDOF 5
ENDMDL
MODEL 4
REMARK VINA RESULT:      -2.2      3.947      5.212
REMARK  5 active torsions:
REMARK  status: ('A' for Active; 'I' for Inactive)
REMARK    1  A    between atoms: N_2  and  S_1 
REMARK    2  A    between atoms: C_4  and  S_1 
REMARK    3  A    between atoms: C_3  and  N_2 
REMARK    4  A    between atoms: N_7  and  C_3 
REMARK    5  A    between atoms: C_15  and  N_7 
ROOT
ATOM      1  S   UNL d   1      30.317  16.753 -24.129  0.00  0.00     0.287 S 
ATOM      2  O   UNL d   1      30.672  16.032 -23.913  0.00  0.00    -0.198 OA
ATOM      3  O   UNL d   1      29.947  17.461 -24.339  0.00  0.00    -0.198 OA
ENDROOT
BRANCH   1   4
ATOM      4  N   UNL d   1      31.057  17.079 -24.297  0.00  0.00    -0.128 NA
BRANCH   4   5
ATOM      5  C   UNL d   1      31.891  17.026 -24.268  0.00  0.00     0.232 C 
ATOM      6  S   UNL d   1      32.300  16.675 -24.887  0.00  0.00    -0.036 SA
BRANCH   5   7
ATOM      7  N   UNL d   1      32.293  17.330 -23.614  0.00  0.00    -0.217 NA
BRANCH   7   8
ATOM      8  C   UNL d   1      32.611  18.092 -23.649  0.00  0.00     0.084 A 
ATOM      9  C   UNL d   1      32.646  18.552 -22.971  0.00  0.00     0.019 A 
ATOM     10  C   UNL d   1      32.960  19.307 -23.002  0.00  0.00     0.002 A 
ATOM     11  C   UNL d   1      33.241  19.609 -23.711  0.00  0.00     0.000 A 
ATOM     12  C   UNL d   1      33.206  19.149 -24.395  0.00  0.00     0.002 A 
ATOM     13  C   UNL d   1      32.891  18.391 -24.365  0.00  0.00     0.019 A 
ENDBRANCH   7   8
ENDBRANCH   5   7
ENDBRANCH   4   5
ENDBRANCH   1   4
BRANCH   1  14
ATOM     14  C   UNL d   1      29.571  16.425 -23.960  0.00  0.00     0.105 A 
ATOM     15  C   UNL d   1      28.964  16.454 -24.531  0.00  0.00     0.014 A 
ATOM     16  C   UNL d   1      28.229  16.131 -24.364  0.00  0.00     0.012 A 
ATOM     17  C   UNL d   1      28.089  15.776 -23.632  0.00  0.00     0.058 A 
ATOM     18  C   UNL d   1      28.688  15.745 -23.063  0.00  0.00     0.012 A 
ATOM     19 CL   UNL d   1      27.354  15.453 -23.466  0.00  0.00    -0.082 Cl
ATOM     20  C   UNL d   1      29.427  16.070 -23.230  0.00  0.00     0.014 A 
ENDBRANCH   1  14
TORSDOF 5
ENDMDL
MODEL 5
REMARK VINA RESULT:      -1.2      4.059      6.030
REMARK  5 active torsions:
REMARK  status: ('A' for Active; 'I' for Inactive)
REMARK    1  A    between atoms: N_2  and  S_1 
REMARK    2  A    between atoms: C_4  and  S_1 
REMARK    3  A    between atoms: C_3  and  N_2 
REMARK    4  A    between atoms: N_7  and  C_3 
REMARK    5  A    between atoms: C_15  and  N_7 
ROOT
ATOM      1  S   UNL d   1      31.506  17.491 -24.196  0.00  0.00     0.287 S 
ATOM      2  O   UNL d   1      31.127  17.566 -24.934  0.00  0.00    -0.198 OA
ATOM      3  O   UNL d   1      31.891  17.434 -23.468  0.00  0.00    -0.198 OA
ENDROOT
BRANCH   1   4
ATOM      4  N   UNL d   1      31.073  16.807 -24.032  0.00  0.00    -0.128 NA
BRANCH   4   5
ATOM      5  C   UNL d   1      30.857  16.024 -24.234  0.00  0.00     0.232 C 
ATOM      6  S   UNL d   1      31.051  15.725 -24.973  0.00  0.00    -0.036 SA
BRANCH   5   7
ATOM      7  N   UNL d   1      30.450  15.563 -23.685  0.00  0.00    -0.217 NA
BRANCH   7   8
ATOM      8  C   UNL d   1      29.624  15.569 -23.681  0.00  0.00     0.084 A 
ATOM      9  C   UNL d   1      29.211  15.453 -24.380  0.00  0.00     0.019 A 
ATOM     10  C   UNL d   1      28.393  15.458 -24.380  0.00  0.00     0.002 A 
ATOM     11  C   UNL d   1      27.980  15.579 -23.682  0.00  0.00     0.000 A 
ATOM     12  C   UNL d   1      28.392  15.696 -22.976  0.00  0.00     0.002 A 
ATOM     13  C   UNL d   1      29.214  15.691 -22.975  0.00  0.00     0.019 A 
ENDBRANCH   7   8
ENDBRANCH   5   7
ENDBRANCH   4   5
ENDBRANCH   1   4
BRANCH   1  14
ATOM     14  C   UNL d   1      31.941  18.180 -24.360  0.00  0.00     0.105 A 
ATOM     15  C   UNL d   1      32.650  18.334 -23.949  0.00  0.00     0.014 A 
ATOM     16  C   UNL d   1      33.079  19.014 -24.111  0.00  0.00     0.012 A 
ATOM     17  C   UNL d   1      32.812  19.546 -24.682  0.00  0.00     0.058 A 
ATOM     18  C   UNL d   1      32.109  19.398 -25.094  0.00  0.00     0.012 A 
ATOM     19 CL   UNL d   1      33.241  20.225 -24.845  0.00  0.00    -0.082 Cl
ATOM     20  C   UNL d   1      31.677  18.714 -24.930  0.00  0.00     0.014 A 
ENDBRANCH   1  14
TORSDOF 5
ENDMDL
MODEL 6
REMARK VINA RESULT:      -1.0      2.788      5.395
REMARK  5 active torsions:
REMARK  status: ('A' for Active; 'I' for Inactive)
REMARK    1  A    between atoms: N_2  and  S_1 
REMARK    2  A    between atoms: C_4  and  S_1 
REMARK    3  A    between atoms: C_3  and  N_2 
REMARK    4  A    between atoms: N_7  and  C_3 
REMARK    5  A    between atoms: C_15  and  N_7 
ROOT
ATOM      1  S   UNL d   1      32.931  18.463 -23.316  0.00  0.00     0.287 S 
ATOM      2  O   UNL d   1      32.852  18.862 -24.043  0.00  0.00    -0.198 OA
ATOM      3  O   UNL d   1      33.011  18.086 -22.587  0.00  0.00    -0.198 OA
ENDROOT
BRANCH   1   4
ATOM      4  N   UNL d   1      32.854  17.734 -23.696  0.00  0.00    -0.128 NA
BRANCH   4   5
ATOM      5  C   UNL d   1      32.370  17.102 -23.951  0.00  0.00     0.232 C 
ATOM      6  S   UNL d   1      32.686  16.509 -24.421  0.00  0.00    -0.036 SA
BRANCH   5   7
ATOM      7  N   UNL d   1      31.576  17.084 -23.725  0.00  0.00    -0.217 NA
BRANCH   7   8
ATOM      8  C   UNL d   1      31.043  16.615 -24.146  0.00  0.00     0.084 A 
ATOM      9  C   UNL d   1      30.256  16.841 -24.204  0.00  0.00     0.019 A 
ATOM     10  C   UNL d   1      29.725  16.378 -24.621  0.00  0.00     0.002 A 
ATOM     11  C   UNL d   1      29.975  15.686 -24.984  0.00  0.00     0.000 A 
ATOM     12  C   UNL d   1      30.765  15.456 -24.927  0.00  0.00     0.002 A 
ATOM     13  C   UNL d   1      31.300  15.920 -24.509  0.00  0.00     0.019 A 
ENDBRANCH   7   8
ENDBRANCH   5   7
ENDBRANCH   4   5
ENDBRANCH   1   4
BRANCH   1  14
ATOM     14  C   UNL d   1      33.009  19.198 -22.933  0.00  0.00     0.105 A 
ATOM     15  C   UNL d   1      33.163  19.886 -23.378  0.00  0.00     0.014 A 
ATOM     16  C   UNL d   1      33.240  20.610 -23.000  0.00  0.00     0.012 A 
ATOM     17  C   UNL d   1      33.164  20.659 -22.180  0.00  0.00     0.058 A 
ATOM     18  C   UNL d   1      33.010  19.979 -21.734  0.00  0.00     0.012 A 
ATOM     19 CL   UNL d   1      33.241  21.383 -21.802  0.00  0.00    -0.082 Cl
ATOM     20  C   UNL d   1      32.933  19.251 -22.114  0.00  0.00     0.014 A 
ENDBRANCH   1  14
TORSDOF 5
ENDMDL
