MODEL 1
REMARK VINA RESULT:      -3.9      0.000      0.000
REMARK  6 active torsions:
REMARK  status: ('A' for Active; 'I' for Inactive)
REMARK    1  A    between atoms: C_9  and  C_3 
REMARK    2  A    between atoms: C_4  and  C_18 
REMARK       I    between atoms: N_7  and  C_4 
REMARK    3  A    between atoms: S_11  and  C_5 
REMARK       I    between atoms: C_6  and  N_8 
REMARK    4  A    between atoms: C_12  and  N_7 
REMARK    5  A    between atoms: N_8  and  C_13 
REMARK    6  A    between atoms: C_18  and  S_11 
ROOT
ATOM      1  C   UNL d   1      32.924  18.998 -23.212  0.00  0.00     0.099 C 
ENDROOT
BRANCH   1   2
ATOM      2  C   UNL d   1      32.663  18.242 -23.405  0.00  0.00     0.286 C 
ATOM      3  N   UNL d   1      32.126  18.135 -24.023  0.00  0.00    -0.207 NA
ATOM      4  O   UNL d   1      32.936  17.589 -22.981  0.00  0.00    -0.265 OA
BRANCH   3   5
ATOM      5  C   UNL d   1      31.863  17.376 -24.216  0.00  0.00     0.086 A 
ATOM      6  C   UNL d   1      31.099  17.149 -24.020  0.00  0.00     0.038 A 
ATOM      7  C   UNL d   1      30.836  16.390 -24.214  0.00  0.00     0.086 A 
ATOM      8  C   UNL d   1      31.345  15.868 -24.603  0.00  0.00     0.019 A 
ATOM      9  C   UNL d   1      32.111  16.110 -24.794  0.00  0.00     0.003 A 
ATOM     10  C   UNL d   1      32.370  16.858 -24.603  0.00  0.00     0.019 A 
BRANCH   7  11
ATOM     11  N   UNL d   1      30.069  16.156 -24.020  0.00  0.00    -0.208 NA
ATOM     12  C   UNL d   1      29.933  15.690 -23.358  0.00  0.00     0.279 C 
ATOM     13  O   UNL d   1      30.577  15.454 -22.881  0.00  0.00    -0.265 OA
ATOM     14  C   UNL d   1      29.173  15.453 -23.158  0.00  0.00     0.068 C 
ENDBRANCH   7  11
ENDBRANCH   3   5
ENDBRANCH   1   2
BRANCH   1  15
ATOM     15  S   UNL d   1      33.175  19.156 -22.447  0.00  0.00    -0.061 SA
BRANCH  15  16
ATOM     16  C   UNL d   1      33.101  19.915 -22.132  0.00  0.00     0.133 A 
ATOM     17  N   UNL d   1      33.241  20.575 -22.597  0.00  0.00    -0.141 NA
ATOM     18  N   UNL d   1      33.167  21.334 -22.283  0.00  0.00    -0.148 NA
ATOM     19  C   UNL d   1      32.949  21.436 -21.490  0.00  0.00     0.104 A 
ATOM     20  C   UNL d   1      32.807  20.772 -21.018  0.00  0.00     0.023 A 
ATOM     21  C   UNL d   1      32.881  20.016 -21.334  0.00  0.00     0.029 A 
BRANCH  19  22
ATOM     22  C   UNL d   1      32.875  22.195 -21.175  0.00  0.00     0.039 A 
ATOM     23  C   UNL d   1      33.024  22.842 -21.646  0.00  0.00     0.101 A 
ATOM     24  N   UNL d   1      32.952  23.597 -21.338  0.00  0.00    -0.242 NA
ATOM     25  C   UNL d   1      32.726  23.700 -20.544  0.00  0.00     0.099 A 
ATOM     26  C   UNL d   1      32.577  23.046 -20.075  0.00  0.00     0.021 A 
ATOM     27  C   UNL d   1      32.648  22.283 -20.381  0.00  0.00     0.005 A 
ENDBRANCH  19  22
ENDBRANCH  15  16
ENDBRANCH   1  15
TORSDOF 6
ENDMDL
MODEL 2
REMARK VINA RESULT:      -2.6      1.927      6.538
REMARK  6 active torsions:
REMARK  status: ('A' for Active; 'I' for Inactive)
REMARK    1  A    between atoms: C_9  and  C_3 
REMARK    2  A    between atoms: C_4  and  C_18 
REMARK       I    between atoms: N_7  and  C_4 
REMARK    3  A    between atoms: S_11  and  C_5 
REMARK       I    between atoms: C_6  and  N_8 
REMARK    4  A    between atoms: C_12  and  N_7 
REMARK    5  A    between atoms: N_8  and  C_13 
REMARK    6  A    between atoms: C_18  and  S_11 
ROOT
ATOM      1  C   UNL d   1      33.087  20.283 -21.865  0.00  0.00     0.099 C 
ENDROOT
BRANCH   1   2
ATOM      2  C   UNL d   1      32.905  21.057 -21.656  0.00  0.00     0.286 C 
ATOM      3  N   UNL d   1      32.966  21.299 -20.870  0.00  0.00    -0.207 NA
ATOM      4  O   UNL d   1      32.661  21.595 -22.233  0.00  0.00    -0.265 OA
BRANCH   3   5
ATOM      5  C   UNL d   1      32.783  22.078 -20.660  0.00  0.00     0.086 A 
ATOM      6  C   UNL d   1      33.100  22.398 -19.974  0.00  0.00     0.038 A 
ATOM      7  C   UNL d   1      32.917  23.176 -19.765  0.00  0.00     0.086 A 
ATOM      8  C   UNL d   1      32.417  23.622 -20.247  0.00  0.00     0.019 A 
ATOM      9  C   UNL d   1      32.105  23.287 -20.934  0.00  0.00     0.003 A 
ATOM     10  C   UNL d   1      32.285  22.520 -21.140  0.00  0.00     0.019 A 
BRANCH   7  11
ATOM     11  N   UNL d   1      33.233  23.504 -19.076  0.00  0.00    -0.208 NA
ATOM     12  C   UNL d   1      32.872  23.375 -18.351  0.00  0.00     0.279 C 
ATOM     13  O   UNL d   1      32.181  22.907 -18.313  0.00  0.00    -0.265 OA
ATOM     14  C   UNL d   1      33.180  23.698 -17.663  0.00  0.00     0.068 C 
ENDBRANCH   7  11
ENDBRANCH   3   5
ENDBRANCH   1   2
BRANCH   1  15
ATOM     15  S   UNL d   1      33.241  20.101 -22.650  0.00  0.00    -0.061 SA
BRANCH  15  16
ATOM     16  C   UNL d   1      33.066  19.351 -22.947  0.00  0.00     0.133 A 
ATOM     17  N   UNL d   1      32.720  19.265 -23.684  0.00  0.00    -0.141 NA
ATOM     18  N   UNL d   1      32.544  18.516 -23.980  0.00  0.00    -0.148 NA
ATOM     19  C   UNL d   1      32.718  17.840 -23.532  0.00  0.00     0.104 A 
ATOM     20  C   UNL d   1      33.067  17.924 -22.787  0.00  0.00     0.023 A 
ATOM     21  C   UNL d   1      33.241  18.673 -22.494  0.00  0.00     0.029 A 
BRANCH  19  22
ATOM     22  C   UNL d   1      32.543  17.091 -23.828  0.00  0.00     0.039 A 
ATOM     23  C   UNL d   1      33.102  16.687 -24.261  0.00  0.00     0.101 A 
ATOM     24  N   UNL d   1      32.932  15.944 -24.558  0.00  0.00    -0.242 NA
ATOM     25  C   UNL d   1      32.187  15.601 -24.414  0.00  0.00     0.099 A 
ATOM     26  C   UNL d   1      31.629  16.010 -23.978  0.00  0.00     0.021 A 
ATOM     27  C   UNL d   1      31.795  16.761 -23.678  0.00  0.00     0.005 A 
ENDBRANCH  19  22
ENDBRANCH  15  16
ENDBRANCH   1  15
TORSDOF 6
ENDMDL
MODEL 3
REMARK VINA RESULT:      -1.7      1.659      6.468
REMARK  6 active torsions:
REMARK  status: ('A' for Active; 'I' for Inactive)
REMARK    1  A    between atoms: C_9  and  C_3 
REMARK    2  A    between atoms: C_4  and  C_18 
REMARK       I    between atoms: N_7  and  C_4 
REMARK    3  A    between atoms: S_11  and  C_5 
REMARK       I    between atoms: C_6  and  N_8 
REMARK    4  A    between atoms: C_12  and  N_7 
REMARK    5  A    between atoms: N_8  and  C_13 
REMARK    6  A    between atoms: C_18  and  S_11 
ROOT
ATOM      1  C   UNL d   1      32.753  19.863 -22.664  0.00  0.00     0.099 C 
ENDROOT
BRANCH   1   2
ATOM      2  C   UNL d   1      32.900  20.661 -22.529  0.00  0.00     0.286 C 
ATOM      3  N   UNL d   1      32.707  21.000 -21.802  0.00  0.00    -0.207 NA
ATOM      4  O   UNL d   1      33.240  21.125 -23.120  0.00  0.00    -0.265 OA
BRANCH   3   5
ATOM      5  C   UNL d   1      32.855  21.802 -21.666  0.00  0.00     0.086 A 
ATOM      6  C   UNL d   1      32.972  22.068 -20.898  0.00  0.00     0.038 A 
ATOM      7  C   UNL d   1      33.119  22.869 -20.762  0.00  0.00     0.086 A 
ATOM      8  C   UNL d   1      33.147  23.394 -21.400  0.00  0.00     0.019 A 
ATOM      9  C   UNL d   1      33.027  23.112 -22.167  0.00  0.00     0.003 A 
ATOM     10  C   UNL d   1      32.882  22.322 -22.300  0.00  0.00     0.019 A 
BRANCH   7  11
ATOM     11  N   UNL d   1      33.238  23.144 -19.993  0.00  0.00    -0.208 NA
ATOM     12  C   UNL d   1      32.598  23.360 -19.527  0.00  0.00     0.279 C 
ATOM     13  O   UNL d   1      31.824  23.300 -19.835  0.00  0.00    -0.265 OA
ATOM     14  C   UNL d   1      32.708  23.634 -18.761  0.00  0.00     0.068 C 
ENDBRANCH   7  11
ENDBRANCH   3   5
ENDBRANCH   1   2
BRANCH   1  15
ATOM     15  S   UNL d   1      32.920  19.540 -23.400  0.00  0.00    -0.061 SA
BRANCH  15  16
ATOM     16  C   UNL d   1      32.531  18.858 -23.654  0.00  0.00     0.133 A 
ATOM     17  N   UNL d   1      32.617  18.153 -23.246  0.00  0.00    -0.141 NA
ATOM     18  N   UNL d   1      32.229  17.471 -23.500  0.00  0.00    -0.148 NA
ATOM     19  C   UNL d   1      31.745  17.494 -24.173  0.00  0.00     0.104 A 
ATOM     20  C   UNL d   1      31.656  18.204 -24.586  0.00  0.00     0.023 A 
ATOM     21  C   UNL d   1      32.045  18.883 -24.331  0.00  0.00     0.029 A 
BRANCH  19  22
ATOM     22  C   UNL d   1      31.357  16.812 -24.426  0.00  0.00     0.039 A 
ATOM     23  C   UNL d   1      30.545  16.771 -24.384  0.00  0.00     0.101 A 
ATOM     24  N   UNL d   1      30.155  16.096 -24.634  0.00  0.00    -0.242 NA
ATOM     25  C   UNL d   1      30.592  15.453 -24.932  0.00  0.00     0.099 A 
ATOM     26  C   UNL d   1      31.407  15.499 -24.973  0.00  0.00     0.021 A 
ATOM     27  C   UNL d   1      31.805  16.178 -24.722  0.00  0.00     0.005 A 
ENDBRANCH  19  22
ENDBRANCH  15  16
ENDBRANCH   1  15
TORSDOF 6
ENDMDL
