MODEL 1
REMARK VINA RESULT:      -1.3      0.000      0.000
REMARK  0 active torsions:
REMARK  status: ('A' for Active; 'I' for Inactive)
ROOT
ATOM      1  C   UNL d   1      46.613 -18.511  42.798  0.00  0.00     0.282 A 
ATOM      2  N   UNL d   1      46.642 -18.826  42.034  0.00  0.00    -0.189 NA
ATOM      3  N   UNL d   1      46.556 -20.145  42.581  0.00  0.00    -0.227 NA
ATOM      4  C   UNL d   1      46.555 -19.011  43.449  0.00  0.00     0.076 A 
ATOM      5  C   UNL d   1      46.614 -19.643  41.926  0.00  0.00     0.166 A 
ATOM      6  C   UNL d   1      46.526 -19.828  43.340  0.00  0.00     0.088 A 
ATOM      7  O   UNL d   1      46.641 -17.693  42.907  0.00  0.00    -0.265 OA
ATOM      8  C   UNL d   1      46.526 -18.695  44.209  0.00  0.00     0.006 A 
ATOM      9  C   UNL d   1      46.643 -19.959  41.158  0.00  0.00     0.042 C 
ATOM     10  C   UNL d   1      46.469 -20.330  43.991  0.00  0.00     0.019 A 
ATOM     11  C   UNL d   1      46.468 -19.197  44.867  0.00  0.00     0.000 A 
ATOM     12  C   UNL d   1      46.439 -20.014  44.758  0.00  0.00     0.002 A 
ENDROOT
TORSDOF 0
ENDMDL
