MODEL 1
REMARK VINA RESULT:      -3.6      0.000      0.000
REMARK  3 active torsions:
REMARK  status: ('A' for Active; 'I' for Inactive)
REMARK    1  A    between atoms: N_3  and  S_1 
REMARK    2  A    between atoms: C_11  and  S_1 
REMARK    3  A    between atoms: C_2  and  N_3 
ROOT
ATOM      1  C   UNL d   1      30.510  16.601 -24.086  0.00  0.00     0.095 A 
ATOM      2  C   UNL d   1      30.115  16.049 -23.602  0.00  0.00     0.032 A 
ATOM      3  C   UNL d   1      29.312  16.103 -23.511  0.00  0.00     0.098 A 
ATOM      4  C   UNL d   1      28.881  16.698 -23.893  0.00  0.00     0.206 A 
ATOM      5  C   UNL d   1      29.269  17.239 -24.368  0.00  0.00     0.041 A 
ATOM      6  C   UNL d   1      30.077  17.199 -24.470  0.00  0.00     0.023 A 
ATOM      7 CL   UNL d   1      28.917  15.551 -23.027  0.00  0.00    -0.079 Cl
ATOM      8  O   UNL d   1      28.061  16.727 -23.781  0.00  0.00    -0.286 OA
ATOM      9  C   UNL d   1      30.523  15.453 -23.215  0.00  0.00     0.003 C 
ATOM     10  C   UNL d   1      28.831  17.837 -24.751  0.00  0.00     0.003 C 
ENDROOT
BRANCH   1  11
ATOM     11  N   UNL d   1      31.321  16.559 -24.187  0.00  0.00    -0.158 NA
BRANCH  11  12
ATOM     12  S   UNL d   1      31.774  17.239 -24.173  0.00  0.00     0.285 S 
ATOM     13  O   UNL d   1      31.796  17.233 -23.352  0.00  0.00    -0.198 OA
ATOM     14  O   UNL d   1      31.770  17.272 -25.013  0.00  0.00    -0.198 OA
BRANCH  12  15
ATOM     15  C   UNL d   1      32.242  17.942 -24.172  0.00  0.00     0.105 A 
ATOM     16  C   UNL d   1      32.453  18.313 -23.479  0.00  0.00     0.013 A 
ATOM     17  C   UNL d   1      32.908  18.996 -23.478  0.00  0.00     0.001 A 
ATOM     18  C   UNL d   1      33.161  19.319 -24.200  0.00  0.00     0.000 A 
ATOM     19  C   UNL d   1      32.950  18.948 -24.892  0.00  0.00     0.001 A 
ATOM     20  C   UNL d   1      32.493  18.262 -24.890  0.00  0.00     0.013 A 
ENDBRANCH  12  15
ENDBRANCH  11  12
ENDBRANCH   1  11
TORSDOF 3
ENDMDL
MODEL 2
REMARK VINA RESULT:      -2.7      2.005      2.095
REMARK  3 active torsions:
REMARK  status: ('A' for Active; 'I' for Inactive)
REMARK    1  A    between atoms: N_3  and  S_1 
REMARK    2  A    between atoms: C_11  and  S_1 
REMARK    3  A    between atoms: C_2  and  N_3 
ROOT
ATOM      1  C   UNL d   1      29.475  16.175 -24.161  0.00  0.00     0.095 A 
ATOM      2  C   UNL d   1      28.813  16.209 -23.656  0.00  0.00     0.032 A 
ATOM      3  C   UNL d   1      28.379  16.892 -23.615  0.00  0.00     0.098 A 
ATOM      4  C   UNL d   1      28.586  17.553 -24.070  0.00  0.00     0.206 A 
ATOM      5  C   UNL d   1      29.235  17.518 -24.565  0.00  0.00     0.041 A 
ATOM      6  C   UNL d   1      29.683  16.839 -24.617  0.00  0.00     0.023 A 
ATOM      7 CL   UNL d   1      27.716  16.927 -23.110  0.00  0.00    -0.079 Cl
ATOM      8  O   UNL d   1      28.122  18.237 -24.007  0.00  0.00    -0.286 OA
ATOM      9  C   UNL d   1      28.592  15.567 -23.198  0.00  0.00     0.003 C 
ATOM     10  C   UNL d   1      29.440  18.187 -25.021  0.00  0.00     0.003 C 
ENDROOT
BRANCH   1  11
ATOM     11  N   UNL d   1      29.923  15.492 -24.211  0.00  0.00    -0.158 NA
BRANCH  11  12
ATOM     12  S   UNL d   1      30.739  15.534 -24.225  0.00  0.00     0.285 S 
ATOM     13  O   UNL d   1      30.770  15.615 -23.408  0.00  0.00    -0.198 OA
ATOM     14  O   UNL d   1      30.741  15.453 -25.062  0.00  0.00    -0.198 OA
BRANCH  12  15
ATOM     15  C   UNL d   1      31.582  15.576 -24.252  0.00  0.00     0.105 A 
ATOM     16  C   UNL d   1      32.023  15.729 -23.585  0.00  0.00     0.013 A 
ATOM     17  C   UNL d   1      32.842  15.769 -23.612  0.00  0.00     0.001 A 
ATOM     18  C   UNL d   1      33.234  15.652 -24.335  0.00  0.00     0.000 A 
ATOM     19  C   UNL d   1      32.793  15.499 -25.001  0.00  0.00     0.001 A 
ATOM     20  C   UNL d   1      31.969  15.459 -24.971  0.00  0.00     0.013 A 
ENDBRANCH  12  15
ENDBRANCH  11  12
ENDBRANCH   1  11
TORSDOF 3
ENDMDL
MODEL 3
REMARK VINA RESULT:      -2.7      1.789      3.707
REMARK  3 active torsions:
REMARK  status: ('A' for Active; 'I' for Inactive)
REMARK    1  A    between atoms: N_3  and  S_1 
REMARK    2  A    between atoms: C_11  and  S_1 
REMARK    3  A    between atoms: C_2  and  N_3 
ROOT
ATOM      1  C   UNL d   1      31.707  16.599 -24.008  0.00  0.00     0.095 A 
ATOM      2  C   UNL d   1      32.313  16.796 -23.470  0.00  0.00     0.032 A 
ATOM      3  C   UNL d   1      32.630  17.542 -23.484  0.00  0.00     0.098 A 
ATOM      4  C   UNL d   1      32.359  18.107 -24.026  0.00  0.00     0.206 A 
ATOM      5  C   UNL d   1      31.766  17.913 -24.553  0.00  0.00     0.041 A 
ATOM      6  C   UNL d   1      31.436  17.168 -24.552  0.00  0.00     0.023 A 
ATOM      7 CL   UNL d   1      33.236  17.739 -22.946  0.00  0.00    -0.079 Cl
ATOM      8  O   UNL d   1      32.703  18.860 -24.016  0.00  0.00    -0.286 OA
ATOM      9  C   UNL d   1      32.594  16.252 -22.926  0.00  0.00     0.003 C 
ATOM     10  C   UNL d   1      31.496  18.486 -25.097  0.00  0.00     0.003 C 
ENDROOT
BRANCH   1  11
ATOM     11  N   UNL d   1      31.378  15.850 -24.005  0.00  0.00    -0.158 NA
BRANCH  11  12
ATOM     12  S   UNL d   1      30.566  15.757 -23.980  0.00  0.00     0.285 S 
ATOM     13  O   UNL d   1      30.548  15.942 -23.179  0.00  0.00    -0.198 OA
ATOM     14  O   UNL d   1      30.551  15.564 -24.797  0.00  0.00    -0.198 OA
BRANCH  12  15
ATOM     15  C   UNL d   1      29.727  15.658 -23.966  0.00  0.00     0.105 A 
ATOM     16  C   UNL d   1      29.293  15.598 -24.651  0.00  0.00     0.013 A 
ATOM     17  C   UNL d   1      28.478  15.501 -24.637  0.00  0.00     0.001 A 
ATOM     18  C   UNL d   1      28.084  15.464 -23.907  0.00  0.00     0.000 A 
ATOM     19  C   UNL d   1      28.518  15.524 -23.222  0.00  0.00     0.001 A 
ATOM     20  C   UNL d   1      29.337  15.621 -23.239  0.00  0.00     0.013 A 
ENDBRANCH  12  15
ENDBRANCH  11  12
ENDBRANCH   1  11
TORSDOF 3
ENDMDL
MODEL 4
REMARK VINA RESULT:      -2.6      2.196      4.215
REMARK  3 active torsions:
REMARK  status: ('A' for Active; 'I' for Inactive)
REMARK    1  A    between atoms: N_3  and  S_1 
REMARK    2  A    between atoms: C_11  and  S_1 
REMARK    3  A    between atoms: C_2  and  N_3 
ROOT
ATOM      1  C   UNL d   1      33.152  18.837 -23.782  0.00  0.00     0.095 A 
ATOM      2  C   UNL d   1      33.182  19.573 -24.171  0.00  0.00     0.032 A 
ATOM      3  C   UNL d   1      33.210  20.254 -23.732  0.00  0.00     0.098 A 
ATOM      4  C   UNL d   1      33.209  20.225 -22.904  0.00  0.00     0.206 A 
ATOM      5  C   UNL d   1      33.179  19.502 -22.524  0.00  0.00     0.041 A 
ATOM      6  C   UNL d   1      33.150  18.808 -22.950  0.00  0.00     0.023 A 
ATOM      7 CL   UNL d   1      33.241  20.991 -24.122  0.00  0.00    -0.079 Cl
ATOM      8  O   UNL d   1      33.238  20.938 -22.484  0.00  0.00    -0.286 OA
ATOM      9  C   UNL d   1      33.185  19.624 -24.989  0.00  0.00     0.003 C 
ATOM     10  C   UNL d   1      33.178  19.478 -21.689  0.00  0.00     0.003 C 
ENDROOT
BRANCH   1  11
ATOM     11  N   UNL d   1      33.123  18.142 -24.212  0.00  0.00    -0.158 NA
BRANCH  11  12
ATOM     12  S   UNL d   1      32.561  17.573 -24.040  0.00  0.00     0.285 S 
ATOM     13  O   UNL d   1      31.994  17.969 -24.484  0.00  0.00    -0.198 OA
ATOM     14  O   UNL d   1      33.119  17.145 -23.579  0.00  0.00    -0.198 OA
BRANCH  12  15
ATOM     15  C   UNL d   1      31.989  16.979 -23.856  0.00  0.00     0.105 A 
ATOM     16  C   UNL d   1      32.200  16.280 -23.497  0.00  0.00     0.013 A 
ATOM     17  C   UNL d   1      31.644  15.704 -23.318  0.00  0.00     0.001 A 
ATOM     18  C   UNL d   1      30.846  15.834 -23.507  0.00  0.00     0.000 A 
ATOM     19  C   UNL d   1      30.635  16.533 -23.866  0.00  0.00     0.001 A 
ATOM     20  C   UNL d   1      31.197  17.111 -24.044  0.00  0.00     0.013 A 
ENDBRANCH  12  15
ENDBRANCH  11  12
ENDBRANCH   1  11
TORSDOF 3
ENDMDL
MODEL 5
REMARK VINA RESULT:      -1.4      2.356      4.217
REMARK  3 active torsions:
REMARK  status: ('A' for Active; 'I' for Inactive)
REMARK    1  A    between atoms: N_3  and  S_1 
REMARK    2  A    between atoms: C_11  and  S_1 
REMARK    3  A    between atoms: C_2  and  N_3 
ROOT
ATOM      1  C   UNL d   1      33.236  19.107 -22.963  0.00  0.00     0.095 A 
ATOM      2  C   UNL d   1      33.238  19.485 -22.219  0.00  0.00     0.032 A 
ATOM      3  C   UNL d   1      33.239  20.294 -22.184  0.00  0.00     0.098 A 
ATOM      4  C   UNL d   1      33.239  20.748 -22.878  0.00  0.00     0.206 A 
ATOM      5  C   UNL d   1      33.238  20.377 -23.606  0.00  0.00     0.041 A 
ATOM      6  C   UNL d   1      33.236  19.564 -23.658  0.00  0.00     0.023 A 
ATOM      7 CL   UNL d   1      33.241  20.672 -21.441  0.00  0.00    -0.079 Cl
ATOM      8  O   UNL d   1      33.241  21.573 -22.809  0.00  0.00    -0.286 OA
ATOM      9  C   UNL d   1      33.238  19.054 -21.522  0.00  0.00     0.003 C 
ATOM     10  C   UNL d   1      33.238  20.839 -24.302  0.00  0.00     0.003 C 
ENDROOT
BRANCH   1  11
ATOM     11  N   UNL d   1      33.235  18.291 -23.013  0.00  0.00    -0.158 NA
BRANCH  11  12
ATOM     12  S   UNL d   1      32.678  17.907 -23.473  0.00  0.00     0.285 S 
ATOM     13  O   UNL d   1      33.153  17.974 -24.140  0.00  0.00    -0.198 OA
ATOM     14  O   UNL d   1      32.171  17.823 -22.808  0.00  0.00    -0.198 OA
BRANCH  12  15
ATOM     15  C   UNL d   1      32.096  17.509 -23.938  0.00  0.00     0.105 A 
ATOM     16  C   UNL d   1      31.584  17.917 -24.421  0.00  0.00     0.013 A 
ATOM     17  C   UNL d   1      31.018  17.529 -24.872  0.00  0.00     0.001 A 
ATOM     18  C   UNL d   1      30.965  16.702 -24.837  0.00  0.00     0.000 A 
ATOM     19  C   UNL d   1      31.477  16.294 -24.354  0.00  0.00     0.001 A 
ATOM     20  C   UNL d   1      32.045  16.686 -23.902  0.00  0.00     0.013 A 
ENDBRANCH  12  15
ENDBRANCH  11  12
ENDBRANCH   1  11
TORSDOF 3
ENDMDL
