MODEL 1
REMARK VINA RESULT:     -10.5      0.000      0.000
REMARK  5 active torsions:
REMARK  status: ('A' for Active; 'I' for Inactive)
REMARK    1  A    between atoms: N_2  and  S_1 
REMARK    2  A    between atoms: C_11  and  S_1 
REMARK    3  A    between atoms: C_3  and  N_9 
REMARK    4  A    between atoms: N_9  and  N_16 
REMARK    5  A    between atoms: N_16  and  C_23 
ROOT
ATOM      1  C   UNL d   1      51.717  33.672  53.052  0.00  0.00     0.104 A 
ATOM      2  C   UNL d   1      51.041  33.414  53.461  0.00  0.00     0.015 A 
ATOM      3  C   UNL d   1      51.622  34.187  52.414  0.00  0.00     0.015 A 
ATOM      4  C   UNL d   1      50.209  34.173  52.605  0.00  0.00     0.103 A 
ATOM      5  C   UNL d   1      50.883  34.435  52.192  0.00  0.00     0.022 A 
ATOM      6  C   UNL d   1      50.297  33.661  53.241  0.00  0.00     0.022 A 
ENDROOT
BRANCH   1   7
ATOM      7  S   UNL d   1      52.474  33.427  53.269  0.00  0.00     0.271 S 
ATOM      8  O   UNL d   1      52.144  32.757  53.631  0.00  0.00    -0.200 OA
ATOM      9  O   UNL d   1      52.799  34.080  52.917  0.00  0.00    -0.200 OA
BRANCH   7  10
ATOM     10  N   UNL d   1      53.236  33.173  53.492  0.00  0.00    -0.231 N 
ATOM     11  C   UNL d   1      53.704  33.444  54.129  0.00  0.00     0.075 A 
ATOM     12  C   UNL d   1      54.416  33.028  54.128  0.00  0.00     0.018 A 
ATOM     13  C   UNL d   1      53.548  34.022  54.702  0.00  0.00     0.018 A 
ATOM     14  C   UNL d   1      54.992  33.173  54.692  0.00  0.00     0.002 A 
ATOM     15  C   UNL d   1      54.395  32.491  53.483  0.00  0.00     0.021 A 
ATOM     16  C   UNL d   1      54.854  33.746  55.271  0.00  0.00     0.000 A 
ATOM     17  C   UNL d   1      54.128  34.168  55.270  0.00  0.00     0.002 A 
ATOM     18  C   UNL d   1      53.689  32.582  53.108  0.00  0.00     0.092 A 
ENDBRANCH   7  10
ENDBRANCH   1   7
BRANCH   4  19
ATOM     19  N   UNL d   1      49.448  34.420  52.387  0.00  0.00    -0.148 NA
BRANCH  19  20
ATOM     20  N   UNL d   1      49.272  35.206  52.354  0.00  0.00    -0.138 NA
BRANCH  20  21
ATOM     21  C   UNL d   1      48.487  35.456  52.267  0.00  0.00     0.218 A 
ATOM     22  C   UNL d   1      48.141  35.886  52.842  0.00  0.00     0.305 A 
ATOM     23  N   UNL d   1      47.348  36.141  52.758  0.00  0.00    -0.177 NA
ATOM     24  O   UNL d   1      48.574  36.079  53.524  0.00  0.00    -0.263 OA
ATOM     25  C   UNL d   1      46.927  35.959  52.106  0.00  0.00     0.226 A 
ATOM     26  N   UNL d   1      47.256  35.516  51.494  0.00  0.00    -0.177 NA
ATOM     27  S   UNL d   1      46.117  36.229  52.038  0.00  0.00    -0.037 SA
ATOM     28  C   UNL d   1      48.052  35.260  51.578  0.00  0.00     0.305 A 
ATOM     29  O   UNL d   1      48.404  34.814  50.976  0.00  0.00    -0.263 OA
ENDBRANCH  20  21
ENDBRANCH  19  20
ENDBRANCH   4  19
TORSDOF 5
ENDMDL
MODEL 2
REMARK VINA RESULT:      -8.9      0.886      1.702
REMARK  5 active torsions:
REMARK  status: ('A' for Active; 'I' for Inactive)
REMARK    1  A    between atoms: N_2  and  S_1 
REMARK    2  A    between atoms: C_11  and  S_1 
REMARK    3  A    between atoms: C_3  and  N_9 
REMARK    4  A    between atoms: N_9  and  N_16 
REMARK    5  A    between atoms: N_16  and  C_23 
ROOT
ATOM      1  C   UNL d   1      51.467  33.803  53.028  0.00  0.00     0.104 A 
ATOM      2  C   UNL d   1      51.057  34.143  53.666  0.00  0.00     0.015 A 
ATOM      3  C   UNL d   1      51.142  33.863  52.271  0.00  0.00     0.015 A 
ATOM      4  C   UNL d   1      50.031  34.585  52.798  0.00  0.00     0.103 A 
ATOM      5  C   UNL d   1      50.438  34.246  52.156  0.00  0.00     0.022 A 
ATOM      6  C   UNL d   1      50.349  34.529  53.553  0.00  0.00     0.022 A 
ENDROOT
BRANCH   1   7
ATOM      7  S   UNL d   1      52.185  33.411  53.135  0.00  0.00     0.271 S 
ATOM      8  O   UNL d   1      52.124  33.540  53.952  0.00  0.00    -0.200 OA
ATOM      9  O   UNL d   1      52.247  33.283  52.337  0.00  0.00    -0.200 OA
BRANCH   7  10
ATOM     10  N   UNL d   1      52.909  33.016  53.250  0.00  0.00    -0.231 N 
ATOM     11  C   UNL d   1      53.050  32.192  53.265  0.00  0.00     0.075 A 
ATOM     12  C   UNL d   1      53.854  32.065  53.396  0.00  0.00     0.018 A 
ATOM     13  C   UNL d   1      52.528  31.556  53.173  0.00  0.00     0.018 A 
ATOM     14  C   UNL d   1      54.163  31.307  53.439  0.00  0.00     0.002 A 
ATOM     15  C   UNL d   1      54.222  32.818  53.464  0.00  0.00     0.021 A 
ATOM     16  C   UNL d   1      53.656  30.661  53.349  0.00  0.00     0.000 A 
ATOM     17  C   UNL d   1      52.838  30.793  53.216  0.00  0.00     0.002 A 
ATOM     18  C   UNL d   1      53.653  33.379  53.376  0.00  0.00     0.092 A 
ENDBRANCH   7  10
ENDBRANCH   1   7
BRANCH   4  19
ATOM     19  N   UNL d   1      49.310  34.979  52.691  0.00  0.00    -0.148 NA
BRANCH  19  20
ATOM     20  N   UNL d   1      49.020  35.096  51.948  0.00  0.00    -0.138 NA
BRANCH  20  21
ATOM     21  C   UNL d   1      48.243  35.362  51.838  0.00  0.00     0.218 A 
ATOM     22  C   UNL d   1      47.793  35.048  51.260  0.00  0.00     0.305 A 
ATOM     23  N   UNL d   1      47.007  35.314  51.146  0.00  0.00    -0.177 NA
ATOM     24  O   UNL d   1      48.110  34.455  50.772  0.00  0.00    -0.263 OA
ATOM     25  C   UNL d   1      46.697  35.884  51.612  0.00  0.00     0.226 A 
ATOM     26  N   UNL d   1      47.136  36.228  52.217  0.00  0.00    -0.177 NA
ATOM     27  S   UNL d   1      45.892  36.143  51.480  0.00  0.00    -0.037 SA
ATOM     28  C   UNL d   1      47.925  35.960  52.332  0.00  0.00     0.305 A 
ATOM     29  O   UNL d   1      48.386  36.291  52.934  0.00  0.00    -0.263 OA
ENDBRANCH  20  21
ENDBRANCH  19  20
ENDBRANCH   4  19
TORSDOF 5
ENDMDL
