MODEL 1
REMARK VINA RESULT:      14.7      0.000      0.000
REMARK  4 active torsions:
REMARK  status: ('A' for Active; 'I' for Inactive)
REMARK    1  A    between atoms: C_6  and  N_1 
REMARK    2  A    between atoms: C_9  and  C_2 
REMARK    3  A    between atoms: O_14  and  C_10 
REMARK    4  A    between atoms: C_15  and  O_14 
ROOT
ATOM      1  C   UNL d   1      58.122  49.700  50.159  0.00  0.00     0.086 A 
ATOM      2  C   UNL d   1      58.802  49.694  49.694  0.00  0.00     0.021 A 
ATOM      3  C   UNL d   1      58.183  49.707  50.978  0.00  0.00     0.021 A 
ATOM      4  C   UNL d   1      59.611  49.702  50.869  0.00  0.00     0.100 A 
ATOM      5  C   UNL d   1      58.929  49.708  51.333  0.00  0.00     0.026 A 
ATOM      6  C   UNL d   1      59.546  49.695  50.049  0.00  0.00     0.026 A 
ENDROOT
BRANCH   1   7
ATOM      7  N   UNL d   1      57.378  49.699  49.803  0.00  0.00    -0.191 N 
ATOM      8  C   UNL d   1      56.653  49.702  50.192  0.00  0.00     0.200 A 
ATOM      9  N   UNL d   1      56.051  49.700  49.623  0.00  0.00    -0.107 NA
ATOM     10  N   UNL d   1      56.401  49.695  48.890  0.00  0.00    -0.022 NA
ATOM     11  N   UNL d   1      57.223  49.694  48.996  0.00  0.00    -0.039 NA
BRANCH   8  12
ATOM     12  C   UNL d   1      56.536  49.708  51.017  0.00  0.00     0.109 C 
ATOM     13 CL   UNL d   1      56.104  49.205  51.517  0.00  0.00    -0.078 Cl
ENDBRANCH   8  12
ENDBRANCH   1   7
BRANCH   4  14
ATOM     14  O   UNL d   1      60.352  49.703  51.223  0.00  0.00    -0.305 OA
BRANCH  14  15
ATOM     15  C   UNL d   1      60.430  49.508  52.019  0.00  0.00     0.123 C 
ATOM     16  C   UNL d   1      61.129  49.694  52.427  0.00  0.00     0.029 C 
ENDBRANCH  14  15
ENDBRANCH   4  14
TORSDOF 4
ENDMDL
MODEL 2
REMARK VINA RESULT:      15.8      2.372      3.669
REMARK  4 active torsions:
REMARK  status: ('A' for Active; 'I' for Inactive)
REMARK    1  A    between atoms: C_6  and  N_1 
REMARK    2  A    between atoms: C_9  and  C_2 
REMARK    3  A    between atoms: O_14  and  C_10 
REMARK    4  A    between atoms: C_15  and  O_14 
ROOT
ATOM      1  C   UNL d   1      59.233  49.702  50.376  0.00  0.00     0.086 A 
ATOM      2  C   UNL d   1      58.739  49.700  51.034  0.00  0.00     0.021 A 
ATOM      3  C   UNL d   1      58.913  49.705  49.619  0.00  0.00     0.021 A 
ATOM      4  C   UNL d   1      57.595  49.705  50.180  0.00  0.00     0.100 A 
ATOM      5  C   UNL d   1      58.093  49.707  49.521  0.00  0.00     0.026 A 
ATOM      6  C   UNL d   1      57.920  49.702  50.936  0.00  0.00     0.026 A 
ENDROOT
BRANCH   1   7
ATOM      7  N   UNL d   1      60.052  49.701  50.474  0.00  0.00    -0.191 N 
ATOM      8  C   UNL d   1      60.457  49.700  51.190  0.00  0.00     0.200 A 
ATOM      9  N   UNL d   1      61.270  49.698  51.030  0.00  0.00    -0.107 NA
ATOM     10  N   UNL d   1      61.366  49.698  50.224  0.00  0.00    -0.022 NA
ATOM     11  N   UNL d   1      60.615  49.699  49.874  0.00  0.00    -0.039 NA
BRANCH   8  12
ATOM     12  C   UNL d   1      60.115  49.701  51.950  0.00  0.00     0.109 C 
ATOM     13 CL   UNL d   1      60.443  49.594  52.704  0.00  0.00    -0.078 Cl
ENDBRANCH   8  12
ENDBRANCH   1   7
BRANCH   4  14
ATOM     14  O   UNL d   1      56.780  49.706  50.082  0.00  0.00    -0.305 OA
BRANCH  14  15
ATOM     15  C   UNL d   1      56.395  49.028  49.816  0.00  0.00     0.123 C 
ATOM     16  C   UNL d   1      56.072  49.006  49.052  0.00  0.00     0.029 C 
ENDBRANCH  14  15
ENDBRANCH   4  14
TORSDOF 4
ENDMDL
MODEL 3
REMARK VINA RESULT:      16.3      2.481      3.809
REMARK  4 active torsions:
REMARK  status: ('A' for Active; 'I' for Inactive)
REMARK    1  A    between atoms: C_6  and  N_1 
REMARK    2  A    between atoms: C_9  and  C_2 
REMARK    3  A    between atoms: O_14  and  C_10 
REMARK    4  A    between atoms: C_15  and  O_14 
ROOT
ATOM      1  C   UNL d   1      58.674  49.704  51.172  0.00  0.00     0.086 A 
ATOM      2  C   UNL d   1      58.015  49.703  51.665  0.00  0.00     0.021 A 
ATOM      3  C   UNL d   1      58.579  49.706  50.356  0.00  0.00     0.021 A 
ATOM      4  C   UNL d   1      57.156  49.706  50.525  0.00  0.00     0.100 A 
ATOM      5  C   UNL d   1      57.819  49.707  50.032  0.00  0.00     0.026 A 
ATOM      6  C   UNL d   1      57.256  49.704  51.341  0.00  0.00     0.026 A 
ENDROOT
BRANCH   1   7
ATOM      7  N   UNL d   1      59.433  49.704  51.496  0.00  0.00    -0.191 N 
ATOM      8  C   UNL d   1      60.141  49.698  51.077  0.00  0.00     0.200 A 
ATOM      9  N   UNL d   1      60.766  49.700  51.621  0.00  0.00    -0.107 NA
ATOM     10  N   UNL d   1      60.447  49.705  52.368  0.00  0.00    -0.022 NA
ATOM     11  N   UNL d   1      59.621  49.708  52.296  0.00  0.00    -0.039 NA
BRANCH   8  12
ATOM     12  C   UNL d   1      60.223  49.693  50.248  0.00  0.00     0.109 C 
ATOM     13 CL   UNL d   1      60.884  49.583  49.758  0.00  0.00    -0.078 Cl
ENDBRANCH   8  12
ENDBRANCH   1   7
BRANCH   4  14
ATOM     14  O   UNL d   1      56.401  49.707  50.203  0.00  0.00    -0.305 OA
BRANCH  14  15
ATOM     15  C   UNL d   1      56.152  49.078  49.733  0.00  0.00     0.123 C 
ATOM     16  C   UNL d   1      56.122  49.161  48.907  0.00  0.00     0.029 C 
ENDBRANCH  14  15
ENDBRANCH   4  14
TORSDOF 4
ENDMDL
