MODEL 1
REMARK VINA RESULT:       9.8      0.000      0.000
REMARK  3 active torsions:
REMARK  status: ('A' for Active; 'I' for Inactive)
REMARK    1  A    between atoms: C_14  and  C_4 
REMARK    2  A    between atoms: C_10  and  O_11 
REMARK    3  A    between atoms: O_11  and  C_14 
ROOT
ATOM      1  C   UNL d   1      45.919 -16.612  44.701  0.00  0.00     0.144 C 
ENDROOT
BRANCH   1   2
ATOM      2  O   UNL d   1      46.010 -17.090  44.025  0.00  0.00    -0.303 OA
BRANCH   2   3
ATOM      3  C   UNL d   1      46.166 -17.876  44.102  0.00  0.00     0.100 A 
ATOM      4  C   UNL d   1      46.364 -18.332  43.439  0.00  0.00     0.024 A 
ATOM      5  C   UNL d   1      46.523 -19.145  43.535  0.00  0.00     0.013 A 
ATOM      6  C   UNL d   1      46.408 -18.008  42.690  0.00  0.00     0.002 C 
ATOM      7  C   UNL d   1      46.486 -19.500  44.279  0.00  0.00     0.058 A 
ATOM      8  C   UNL d   1      46.289 -19.044  44.942  0.00  0.00     0.013 A 
ATOM      9 CL   UNL d   1      46.646 -20.328  44.385  0.00  0.00    -0.082 Cl
ATOM     10  C   UNL d   1      46.126 -18.229  44.867  0.00  0.00     0.026 A 
ENDBRANCH   2   3
ENDBRANCH   1   2
BRANCH   1  11
ATOM     11  C   UNL d   1      45.773 -15.820  44.626  0.00  0.00     0.142 A 
ATOM     12  N   UNL d   1      46.241 -15.281  44.210  0.00  0.00    -0.057 NA
ATOM     13  C   UNL d   1      45.896 -14.552  44.277  0.00  0.00     0.735 A 
ATOM     14  N   UNL d   1      45.224 -14.631  44.727  0.00  0.00    -0.136 N 
ATOM     15  N   UNL d   1      46.112 -13.809  43.979  0.00  0.00    -0.059 NA
ATOM     16  C   UNL d   1      45.165 -15.411  44.931  0.00  0.00     0.120 A 
ATOM     17  C   UNL d   1      44.758 -13.952  44.882  0.00  0.00     0.100 A 
ATOM     18  C   UNL d   1      44.969 -13.230  44.592  0.00  0.00     0.041 A 
ATOM     19  C   UNL d   1      45.653 -13.157  44.136  0.00  0.00     0.119 A 
ENDBRANCH   1  11
TORSDOF 3
ENDMDL
MODEL 2
REMARK VINA RESULT:      11.3      2.276      4.662
REMARK  3 active torsions:
REMARK  status: ('A' for Active; 'I' for Inactive)
REMARK    1  A    between atoms: C_14  and  C_4 
REMARK    2  A    between atoms: C_10  and  O_11 
REMARK    3  A    between atoms: O_11  and  C_14 
ROOT
ATOM      1  C   UNL d   1      46.029 -16.556  43.863  0.00  0.00     0.144 C 
ENDROOT
BRANCH   1   2
ATOM      2  O   UNL d   1      45.714 -16.189  44.540  0.00  0.00    -0.303 OA
BRANCH   2   3
ATOM      3  C   UNL d   1      45.706 -15.386  44.599  0.00  0.00     0.100 A 
ATOM      4  C   UNL d   1      45.009 -14.987  44.805  0.00  0.00     0.024 A 
ATOM      5  C   UNL d   1      45.017 -14.155  44.862  0.00  0.00     0.013 A 
ATOM      6  C   UNL d   1      44.312 -15.386  44.955  0.00  0.00     0.002 C 
ATOM      7  C   UNL d   1      45.705 -13.725  44.716  0.00  0.00     0.058 A 
ATOM      8  C   UNL d   1      46.402 -14.124  44.510  0.00  0.00     0.013 A 
ATOM      9 CL   UNL d   1      45.722 -12.878  44.772  0.00  0.00    -0.082 Cl
ATOM     10  C   UNL d   1      46.415 -14.956  44.448  0.00  0.00     0.026 A 
ENDBRANCH   2   3
ENDBRANCH   1   2
BRANCH   1  11
ATOM     11  C   UNL d   1      46.156 -17.356  43.852  0.00  0.00     0.142 A 
ATOM     12  N   UNL d   1      46.247 -17.838  44.517  0.00  0.00    -0.057 NA
ATOM     13  C   UNL d   1      46.362 -18.595  44.257  0.00  0.00     0.735 A 
ATOM     14  N   UNL d   1      46.344 -18.590  43.445  0.00  0.00    -0.136 N 
ATOM     15  N   UNL d   1      46.485 -19.307  44.666  0.00  0.00    -0.059 NA
ATOM     16  C   UNL d   1      46.217 -17.826  43.215  0.00  0.00     0.120 A 
ATOM     17  C   UNL d   1      46.450 -19.312  43.032  0.00  0.00     0.100 A 
ATOM     18  C   UNL d   1      46.569 -20.003  43.429  0.00  0.00     0.041 A 
ATOM     19  C   UNL d   1      46.586 -20.001  44.255  0.00  0.00     0.119 A 
ENDBRANCH   1  11
TORSDOF 3
ENDMDL
