MODEL 1
REMARK VINA RESULT:      -2.2      0.000      0.000
REMARK  6 active torsions:
REMARK  status: ('A' for Active; 'I' for Inactive)
REMARK       I    between atoms: C_2  and  N_1 
REMARK    1  A    between atoms: C_5  and  N_1 
REMARK    2  A    between atoms: C_4  and  C_2 
REMARK    3  A    between atoms: C_3  and  C_6 
REMARK    4  A    between atoms: C_6  and  C_4 
REMARK    5  A    between atoms: O_11  and  C_7 
REMARK    6  A    between atoms: C_14  and  O_11 
ROOT
ATOM      1  C   UNL d   1      31.817  16.204 -24.063  0.00  0.00     0.107 A 
ATOM      2  C   UNL d   1      32.410  16.772 -23.943  0.00  0.00     0.118 A 
ATOM      3  C   UNL d   1      31.934  15.589 -24.560  0.00  0.00     0.021 A 
ATOM      4  C   UNL d   1      33.128  16.698 -24.343  0.00  0.00     0.026 A 
ATOM      5  C   UNL d   1      32.649  15.500 -24.971  0.00  0.00     0.002 A 
ATOM      6  C   UNL d   1      33.241  16.041 -24.869  0.00  0.00     0.002 A 
ENDROOT
BRANCH   1   7
ATOM      7  N   UNL d   1      31.094  16.277 -23.661  0.00  0.00    -0.206 NA
ATOM      8  C   UNL d   1      30.385  16.087 -24.033  0.00  0.00     0.280 C 
ATOM      9  O   UNL d   1      30.386  15.827 -24.794  0.00  0.00    -0.265 OA
BRANCH   8  10
ATOM     10  C   UNL d   1      29.653  16.162 -23.622  0.00  0.00     0.068 C 
BRANCH  10  11
ATOM     11  C   UNL d   1      28.943  16.110 -24.032  0.00  0.00     0.069 C 
BRANCH  11  12
ATOM     12  C   UNL d   1      28.243  16.131 -23.620  0.00  0.00     0.297 C 
ATOM     13  O   UNL d   1      27.974  16.849 -23.316  0.00  0.00    -0.264 OA
ATOM     14  N   UNL d   1      27.793  15.454 -23.496  0.00  0.00    -0.102 N 
ENDBRANCH  11  12
ENDBRANCH  10  11
ENDBRANCH   8  10
ENDBRANCH   1   7
BRANCH   2  15
ATOM     15  O   UNL d   1      32.294  17.416 -23.425  0.00  0.00    -0.304 OA
BRANCH  15  16
ATOM     16  C   UNL d   1      32.920  17.945 -23.265  0.00  0.00     0.123 C 
ATOM     17  C   UNL d   1      32.758  18.606 -22.787  0.00  0.00     0.029 C 
ENDBRANCH  15  16
ENDBRANCH   2  15
TORSDOF 6
ENDMDL
MODEL 2
REMARK VINA RESULT:      -2.1      3.111      4.398
REMARK  6 active torsions:
REMARK  status: ('A' for Active; 'I' for Inactive)
REMARK       I    between atoms: C_2  and  N_1 
REMARK    1  A    between atoms: C_5  and  N_1 
REMARK    2  A    between atoms: C_4  and  C_2 
REMARK    3  A    between atoms: C_3  and  C_6 
REMARK    4  A    between atoms: C_6  and  C_4 
REMARK    5  A    between atoms: O_11  and  C_7 
REMARK    6  A    between atoms: C_14  and  O_11 
ROOT
ATOM      1  C   UNL d   1      32.886  18.384 -23.542  0.00  0.00     0.107 A 
ATOM      2  C   UNL d   1      33.025  17.573 -23.649  0.00  0.00     0.118 A 
ATOM      3  C   UNL d   1      32.824  18.874 -24.171  0.00  0.00     0.021 A 
ATOM      4  C   UNL d   1      33.100  17.272 -24.414  0.00  0.00     0.026 A 
ATOM      5  C   UNL d   1      32.896  18.589 -24.946  0.00  0.00     0.002 A 
ATOM      6  C   UNL d   1      33.032  17.802 -25.073  0.00  0.00     0.002 A 
ENDROOT
BRANCH   1   7
ATOM      7  N   UNL d   1      32.811  18.688 -22.773  0.00  0.00    -0.206 NA
ATOM      8  C   UNL d   1      32.986  19.476 -22.614  0.00  0.00     0.280 C 
ATOM      9  O   UNL d   1      33.234  19.961 -23.205  0.00  0.00    -0.265 OA
BRANCH   8  10
ATOM     10  C   UNL d   1      32.909  19.782 -21.832  0.00  0.00     0.068 C 
BRANCH  10  11
ATOM     11  C   UNL d   1      32.902  20.594 -21.706  0.00  0.00     0.069 C 
BRANCH  11  12
ATOM     12  C   UNL d   1      32.689  20.881 -20.977  0.00  0.00     0.297 C 
ATOM     13  O   UNL d   1      31.914  21.134 -20.852  0.00  0.00    -0.264 OA
ATOM     14  N   UNL d   1      33.225  20.928 -20.355  0.00  0.00    -0.102 N 
ENDBRANCH  11  12
ENDBRANCH  10  11
ENDBRANCH   8  10
ENDBRANCH   1   7
BRANCH   2  15
ATOM     15  O   UNL d   1      33.091  17.056 -22.997  0.00  0.00    -0.304 OA
BRANCH  15  16
ATOM     16  C   UNL d   1      33.193  16.236 -23.119  0.00  0.00     0.123 C 
ATOM     17  C   UNL d   1      33.222  15.744 -22.449  0.00  0.00     0.029 C 
ENDBRANCH  15  16
ENDBRANCH   2  15
TORSDOF 6
ENDMDL
MODEL 3
REMARK VINA RESULT:      -2.1      4.270      6.630
REMARK  6 active torsions:
REMARK  status: ('A' for Active; 'I' for Inactive)
REMARK       I    between atoms: C_2  and  N_1 
REMARK    1  A    between atoms: C_5  and  N_1 
REMARK    2  A    between atoms: C_4  and  C_2 
REMARK    3  A    between atoms: C_3  and  C_6 
REMARK    4  A    between atoms: C_6  and  C_4 
REMARK    5  A    between atoms: O_11  and  C_7 
REMARK    6  A    between atoms: C_14  and  O_11 
ROOT
ATOM      1  C   UNL d   1      32.834  22.330 -21.248  0.00  0.00     0.107 A 
ATOM      2  C   UNL d   1      32.799  23.037 -21.681  0.00  0.00     0.118 A 
ATOM      3  C   UNL d   1      32.527  22.286 -20.511  0.00  0.00     0.021 A 
ATOM      4  C   UNL d   1      32.444  23.701 -21.344  0.00  0.00     0.026 A 
ATOM      5  C   UNL d   1      32.166  22.944 -20.157  0.00  0.00     0.002 A 
ATOM      6  C   UNL d   1      32.122  23.643 -20.561  0.00  0.00     0.002 A 
ENDROOT
BRANCH   1   7
ATOM      7  N   UNL d   1      33.191  21.661 -21.586  0.00  0.00    -0.206 NA
ATOM      8  C   UNL d   1      32.868  20.912 -21.478  0.00  0.00     0.280 C 
ATOM      9  O   UNL d   1      32.199  20.821 -21.042  0.00  0.00    -0.265 OA
BRANCH   8  10
ATOM     10  C   UNL d   1      33.233  20.235 -21.822  0.00  0.00     0.068 C 
BRANCH  10  11
ATOM     11  C   UNL d   1      32.772  19.617 -22.106  0.00  0.00     0.069 C 
BRANCH  11  12
ATOM     12  C   UNL d   1      33.081  19.114 -22.664  0.00  0.00     0.297 C 
ATOM     13  O   UNL d   1      33.241  18.331 -22.460  0.00  0.00    -0.264 OA
ATOM     14  N   UNL d   1      33.239  19.363 -23.432  0.00  0.00    -0.102 N 
ENDBRANCH  11  12
ENDBRANCH  10  11
ENDBRANCH   8  10
ENDBRANCH   1   7
BRANCH   2  15
ATOM     15  O   UNL d   1      33.118  23.089 -22.451  0.00  0.00    -0.304 OA
BRANCH  15  16
ATOM     16  C   UNL d   1      32.809  23.639 -22.998  0.00  0.00     0.123 C 
ATOM     17  C   UNL d   1      32.998  23.538 -23.801  0.00  0.00     0.029 C 
ENDBRANCH  15  16
ENDBRANCH   2  15
TORSDOF 6
ENDMDL
MODEL 4
REMARK VINA RESULT:      -1.8      1.198      1.599
REMARK  6 active torsions:
REMARK  status: ('A' for Active; 'I' for Inactive)
REMARK       I    between atoms: C_2  and  N_1 
REMARK    1  A    between atoms: C_5  and  N_1 
REMARK    2  A    between atoms: C_4  and  C_2 
REMARK    3  A    between atoms: C_3  and  C_6 
REMARK    4  A    between atoms: C_6  and  C_4 
REMARK    5  A    between atoms: O_11  and  C_7 
REMARK    6  A    between atoms: C_14  and  O_11 
ROOT
ATOM      1  C   UNL d   1      31.637  17.318 -24.408  0.00  0.00     0.107 A 
ATOM      2  C   UNL d   1      32.355  17.185 -24.014  0.00  0.00     0.118 A 
ATOM      3  C   UNL d   1      31.562  17.921 -24.928  0.00  0.00     0.021 A 
ATOM      4  C   UNL d   1      32.997  17.682 -24.162  0.00  0.00     0.026 A 
ATOM      5  C   UNL d   1      32.197  18.430 -25.089  0.00  0.00     0.002 A 
ATOM      6  C   UNL d   1      32.906  18.318 -24.716  0.00  0.00     0.002 A 
ENDROOT
BRANCH   1   7
ATOM      7  N   UNL d   1      30.990  16.818 -24.260  0.00  0.00    -0.206 NA
ATOM      8  C   UNL d   1      30.224  17.059 -24.440  0.00  0.00     0.280 C 
ATOM      9  O   UNL d   1      30.095  17.784 -24.762  0.00  0.00    -0.265 OA
BRANCH   8  10
ATOM     10  C   UNL d   1      29.570  16.550 -24.289  0.00  0.00     0.068 C 
BRANCH  10  11
ATOM     11  C   UNL d   1      28.894  16.845 -23.927  0.00  0.00     0.069 C 
BRANCH  11  12
ATOM     12  C   UNL d   1      28.321  16.327 -23.673  0.00  0.00     0.297 C 
ATOM     13  O   UNL d   1      27.775  16.573 -23.106  0.00  0.00    -0.264 OA
ATOM     14  N   UNL d   1      28.269  15.561 -23.967  0.00  0.00    -0.102 N 
ENDBRANCH  11  12
ENDBRANCH  10  11
ENDBRANCH   8  10
ENDBRANCH   1   7
BRANCH   2  15
ATOM     15  O   UNL d   1      32.439  16.557 -23.470  0.00  0.00    -0.304 OA
BRANCH  15  16
ATOM     16  C   UNL d   1      33.165  16.148 -23.409  0.00  0.00     0.123 C 
ATOM     17  C   UNL d   1      33.238  15.573 -22.813  0.00  0.00     0.029 C 
ENDBRANCH  15  16
ENDBRANCH   2  15
TORSDOF 6
ENDMDL
MODEL 5
REMARK VINA RESULT:      -1.6      1.604      3.868
REMARK  6 active torsions:
REMARK  status: ('A' for Active; 'I' for Inactive)
REMARK       I    between atoms: C_2  and  N_1 
REMARK    1  A    between atoms: C_5  and  N_1 
REMARK    2  A    between atoms: C_4  and  C_2 
REMARK    3  A    between atoms: C_3  and  C_6 
REMARK    4  A    between atoms: C_6  and  C_4 
REMARK    5  A    between atoms: O_11  and  C_7 
REMARK    6  A    between atoms: C_14  and  O_11 
ROOT
ATOM      1  C   UNL d   1      30.760  16.596 -23.968  0.00  0.00     0.107 A 
ATOM      2  C   UNL d   1      29.962  16.604 -24.194  0.00  0.00     0.118 A 
ATOM      3  C   UNL d   1      31.036  16.043 -23.459  0.00  0.00     0.021 A 
ATOM      4  C   UNL d   1      29.448  16.034 -23.889  0.00  0.00     0.026 A 
ATOM      5  C   UNL d   1      30.533  15.463 -23.143  0.00  0.00     0.002 A 
ATOM      6  C   UNL d   1      29.752  15.453 -23.350  0.00  0.00     0.002 A 
ENDROOT
BRANCH   1   7
ATOM      7  N   UNL d   1      31.278  17.168 -24.274  0.00  0.00    -0.206 NA
ATOM      8  C   UNL d   1      31.987  17.339 -23.894  0.00  0.00     0.280 C 
ATOM      9  O   UNL d   1      32.187  16.951 -23.218  0.00  0.00    -0.265 OA
BRANCH   8  10
ATOM     10  C   UNL d   1      32.511  17.921 -24.207  0.00  0.00     0.068 C 
BRANCH  10  11
ATOM     11  C   UNL d   1      32.582  18.652 -23.839  0.00  0.00     0.069 C 
BRANCH  11  12
ATOM     12  C   UNL d   1      33.000  19.244 -24.207  0.00  0.00     0.297 C 
ATOM     13  O   UNL d   1      33.240  19.902 -23.772  0.00  0.00    -0.264 OA
ATOM     14  N   UNL d   1      33.192  19.205 -25.006  0.00  0.00    -0.102 N 
ENDBRANCH  11  12
ENDBRANCH  10  11
ENDBRANCH   8  10
ENDBRANCH   1   7
BRANCH   2  15
ATOM     15  O   UNL d   1      29.669  17.178 -24.724  0.00  0.00    -0.304 OA
BRANCH  15  16
ATOM     16  C   UNL d   1      28.912  17.511 -24.606  0.00  0.00     0.123 C 
ATOM     17  C   UNL d   1      28.685  18.144 -25.095  0.00  0.00     0.029 C 
ENDBRANCH  15  16
ENDBRANCH   2  15
TORSDOF 6
ENDMDL
MODEL 6
REMARK VINA RESULT:      -1.3      2.476      4.030
REMARK  6 active torsions:
REMARK  status: ('A' for Active; 'I' for Inactive)
REMARK       I    between atoms: C_2  and  N_1 
REMARK    1  A    between atoms: C_5  and  N_1 
REMARK    2  A    between atoms: C_4  and  C_2 
REMARK    3  A    between atoms: C_3  and  C_6 
REMARK    4  A    between atoms: C_6  and  C_4 
REMARK    5  A    between atoms: O_11  and  C_7 
REMARK    6  A    between atoms: C_14  and  O_11 
ROOT
ATOM      1  C   UNL d   1      33.214  19.724 -23.561  0.00  0.00     0.107 A 
ATOM      2  C   UNL d   1      33.188  20.288 -22.953  0.00  0.00     0.118 A 
ATOM      3  C   UNL d   1      33.238  19.950 -24.327  0.00  0.00     0.021 A 
ATOM      4  C   UNL d   1      33.186  21.090 -23.144  0.00  0.00     0.026 A 
ATOM      5  C   UNL d   1      33.237  20.753 -24.538  0.00  0.00     0.002 A 
ATOM      6  C   UNL d   1      33.211  21.318 -23.962  0.00  0.00     0.002 A 
ENDROOT
BRANCH   1   7
ATOM      7  N   UNL d   1      33.217  18.916 -23.369  0.00  0.00    -0.206 NA
ATOM      8  C   UNL d   1      32.824  18.370 -23.844  0.00  0.00     0.280 C 
ATOM      9  O   UNL d   1      32.432  18.617 -24.502  0.00  0.00    -0.265 OA
BRANCH   8  10
ATOM     10  C   UNL d   1      32.828  17.551 -23.647  0.00  0.00     0.068 C 
BRANCH  10  11
ATOM     11  C   UNL d   1      32.527  16.999 -24.176  0.00  0.00     0.069 C 
BRANCH  11  12
ATOM     12  C   UNL d   1      32.476  16.219 -23.951  0.00  0.00     0.297 C 
ATOM     13  O   UNL d   1      31.946  16.003 -23.358  0.00  0.00    -0.264 OA
ATOM     14  N   UNL d   1      32.941  15.637 -24.298  0.00  0.00    -0.102 N 
ENDBRANCH  11  12
ENDBRANCH  10  11
ENDBRANCH   8  10
ENDBRANCH   1   7
BRANCH   2  15
ATOM     15  O   UNL d   1      33.163  20.058 -22.151  0.00  0.00    -0.304 OA
BRANCH  15  16
ATOM     16  C   UNL d   1      33.241  20.629 -21.547  0.00  0.00     0.123 C 
ATOM     17  C   UNL d   1      33.193  20.371 -20.758  0.00  0.00     0.029 C 
ENDBRANCH  15  16
ENDBRANCH   2  15
TORSDOF 6
ENDMDL
MODEL 7
REMARK VINA RESULT:      -0.9      1.616      4.112
REMARK  6 active torsions:
REMARK  status: ('A' for Active; 'I' for Inactive)
REMARK       I    between atoms: C_2  and  N_1 
REMARK    1  A    between atoms: C_5  and  N_1 
REMARK    2  A    between atoms: C_4  and  C_2 
REMARK    3  A    between atoms: C_3  and  C_6 
REMARK    4  A    between atoms: C_6  and  C_4 
REMARK    5  A    between atoms: O_11  and  C_7 
REMARK    6  A    between atoms: C_14  and  O_11 
ROOT
ATOM      1  C   UNL d   1      29.617  17.180 -24.644  0.00  0.00     0.107 A 
ATOM      2  C   UNL d   1      28.856  17.034 -24.349  0.00  0.00     0.118 A 
ATOM      3  C   UNL d   1      29.794  17.879 -24.990  0.00  0.00     0.021 A 
ATOM      4  C   UNL d   1      28.276  17.618 -24.415  0.00  0.00     0.026 A 
ATOM      5  C   UNL d   1      29.224  18.477 -25.065  0.00  0.00     0.002 A 
ATOM      6  C   UNL d   1      28.476  18.355 -24.784  0.00  0.00     0.002 A 
ENDROOT
BRANCH   1   7
ATOM      7  N   UNL d   1      30.202  16.594 -24.578  0.00  0.00    -0.206 NA
ATOM      8  C   UNL d   1      30.999  16.785 -24.644  0.00  0.00     0.280 C 
ATOM      9  O   UNL d   1      31.221  17.547 -24.775  0.00  0.00    -0.265 OA
BRANCH   8  10
ATOM     10  C   UNL d   1      31.589  16.188 -24.577  0.00  0.00     0.068 C 
BRANCH  10  11
ATOM     11  C   UNL d   1      32.375  16.396 -24.461  0.00  0.00     0.069 C 
BRANCH  11  12
ATOM     12  C   UNL d   1      32.935  15.812 -24.386  0.00  0.00     0.297 C 
ATOM     13  O   UNL d   1      33.239  15.453 -25.064  0.00  0.00    -0.264 OA
ATOM     14  N   UNL d   1      33.209  15.566 -23.651  0.00  0.00    -0.102 N 
ENDBRANCH  11  12
ENDBRANCH  10  11
ENDBRANCH   8  10
ENDBRANCH   1   7
BRANCH   2  15
ATOM     15  O   UNL d   1      28.665  16.306 -23.986  0.00  0.00    -0.304 OA
BRANCH  15  16
ATOM     16  C   UNL d   1      27.953  16.223 -23.559  0.00  0.00     0.123 C 
ATOM     17  C   UNL d   1      27.775  15.477 -23.240  0.00  0.00     0.029 C 
ENDBRANCH  15  16
ENDBRANCH   2  15
TORSDOF 6
ENDMDL
MODEL 8
REMARK VINA RESULT:      -0.4      4.209      6.134
REMARK  6 active torsions:
REMARK  status: ('A' for Active; 'I' for Inactive)
REMARK       I    between atoms: C_2  and  N_1 
REMARK    1  A    between atoms: C_5  and  N_1 
REMARK    2  A    between atoms: C_4  and  C_2 
REMARK    3  A    between atoms: C_3  and  C_6 
REMARK    4  A    between atoms: C_6  and  C_4 
REMARK    5  A    between atoms: O_11  and  C_7 
REMARK    6  A    between atoms: C_14  and  O_11 
ROOT
ATOM      1  C   UNL d   1      33.230  20.908 -22.851  0.00  0.00     0.107 A 
ATOM      2  C   UNL d   1      33.229  20.130 -23.142  0.00  0.00     0.118 A 
ATOM      3  C   UNL d   1      33.220  21.531 -23.351  0.00  0.00     0.021 A 
ATOM      4  C   UNL d   1      33.219  20.002 -23.957  0.00  0.00     0.026 A 
ATOM      5  C   UNL d   1      33.210  21.421 -24.174  0.00  0.00     0.002 A 
ATOM      6  C   UNL d   1      33.209  20.672 -24.478  0.00  0.00     0.002 A 
ENDROOT
BRANCH   1   7
ATOM      7  N   UNL d   1      33.241  21.038 -22.031  0.00  0.00    -0.206 NA
ATOM      8  C   UNL d   1      32.733  21.586 -21.686  0.00  0.00     0.280 C 
ATOM      9  O   UNL d   1      32.220  22.003 -22.142  0.00  0.00    -0.265 OA
BRANCH   8  10
ATOM     10  C   UNL d   1      32.747  21.715 -20.853  0.00  0.00     0.068 C 
BRANCH  10  11
ATOM     11  C   UNL d   1      32.453  22.416 -20.540  0.00  0.00     0.069 C 
BRANCH  11  12
ATOM     12  C   UNL d   1      32.858  22.783 -19.939  0.00  0.00     0.297 C 
ATOM     13  O   UNL d   1      33.199  23.522 -20.072  0.00  0.00    -0.264 OA
ATOM     14  N   UNL d   1      32.938  22.438 -19.197  0.00  0.00    -0.102 N 
ENDBRANCH  11  12
ENDBRANCH  10  11
ENDBRANCH   8  10
ENDBRANCH   1   7
BRANCH   2  15
ATOM     15  O   UNL d   1      33.239  19.475 -22.624  0.00  0.00    -0.304 OA
BRANCH  15  16
ATOM     16  C   UNL d   1      33.124  18.703 -22.921  0.00  0.00     0.123 C 
ATOM     17  C   UNL d   1      33.156  18.071 -22.383  0.00  0.00     0.029 C 
ENDBRANCH  15  16
ENDBRANCH   2  15
TORSDOF 6
ENDMDL
