MODEL 1
REMARK VINA RESULT:      49.6      0.000      0.000
REMARK  4 active torsions:
REMARK  status: ('A' for Active; 'I' for Inactive)
REMARK    1  A    between atoms: N_3  and  C_1 
REMARK    2  A    between atoms: C_4  and  C_2 
REMARK       I    between atoms: C_6  and  N_3 
REMARK    3  A    between atoms: C_18  and  C_6 
REMARK    4  A    between atoms: C_17  and  C_18 
ROOT
ATOM      1  N   UNL d   1     -56.217-100.172 -44.428  0.00  0.00    -0.201 NA
ATOM      2  C   UNL d   1     -55.942 -99.401 -44.510  0.00  0.00     0.280 C 
ATOM      3  O   UNL d   1     -55.145 -99.216 -44.377  0.00  0.00    -0.265 OA
ENDROOT
BRANCH   2   4
ATOM      4  C   UNL d   1     -56.473 -98.796 -44.729  0.00  0.00     0.063 C 
BRANCH   4   5
ATOM      5  C   UNL d   1     -57.295 -98.891 -44.617  0.00  0.00     0.007 A 
ATOM      6  C   UNL d   1     -57.806 -98.945 -45.270  0.00  0.00     0.026 A 
ATOM      7  C   UNL d   1     -58.623 -99.039 -45.149  0.00  0.00     0.119 A 
ATOM      8  O   UNL d   1     -59.256 -99.108 -45.683  0.00  0.00    -0.300 OA
ATOM      9  C   UNL d   1     -58.925 -99.079 -44.388  0.00  0.00     0.119 A 
ATOM     10  C   UNL d   1     -59.958 -99.192 -45.231  0.00  0.00     0.304 A 
ATOM     11  O   UNL d   1     -59.739 -99.172 -44.443  0.00  0.00    -0.300 OA
ATOM     12  C   UNL d   1     -58.417 -99.025 -43.736  0.00  0.00     0.026 A 
ATOM     13  C   UNL d   1     -57.608 -98.932 -43.857  0.00  0.00     0.002 A 
ENDBRANCH   4   5
ENDBRANCH   2   4
BRANCH   1  14
ATOM     14  C   UNL d   1     -55.697-100.772 -44.212  0.00  0.00     0.119 A 
ATOM     15  C   UNL d   1     -55.641-101.513 -44.557  0.00  0.00     0.084 A 
ATOM     16  C   UNL d   1     -55.055-101.933 -44.173  0.00  0.00     0.014 A 
ATOM     17  C   UNL d   1     -54.733-101.454 -43.577  0.00  0.00     0.037 A 
ATOM     18  S   UNL d   1     -55.140-100.728 -43.607  0.00  0.00    -0.067 SA
BRANCH  15  19
ATOM     19  C   UNL d   1     -56.092-101.803 -45.185  0.00  0.00     0.299 C 
ATOM     20  O   UNL d   1     -55.854-101.710 -45.968  0.00  0.00    -0.264 OA
ATOM     21  N   UNL d   1     -56.798-102.194 -45.020  0.00  0.00    -0.102 N 
ENDBRANCH  15  19
ENDBRANCH   1  14
TORSDOF 4
ENDMDL
