MODEL 1
REMARK VINA RESULT:      -4.8      0.000      0.000
REMARK  6 active torsions:
REMARK  status: ('A' for Active; 'I' for Inactive)
REMARK    1  A    between atoms: S_12  and  C_1 
REMARK    2  A    between atoms: C_2  and  S_11 
REMARK    3  A    between atoms: S_11  and  C_15 
REMARK    4  A    between atoms: C_16  and  S_12 
REMARK    5  A    between atoms: C_13  and  C_16 
REMARK    6  A    between atoms: C_15  and  C_13 
ROOT
ATOM      1  C   UNL d   1     -43.453  12.862  21.478  0.00  0.00     0.209 C 
ATOM      2  O   UNL d   1     -43.186  12.152  21.828  0.00  0.00    -0.285 OA
ENDROOT
BRANCH   1   3
ATOM      3  C   UNL d   1     -44.250  13.084  21.559  0.00  0.00     0.080 C 
BRANCH   3   4
ATOM      4  S   UNL d   1     -44.717  12.770  22.167  0.00  0.00    -0.058 SA
BRANCH   4   5
ATOM      5  C   UNL d   1     -45.466  13.077  22.318  0.00  0.00     0.141 A 
ATOM      6  N   UNL d   1     -45.648  13.863  22.520  0.00  0.00    -0.232 NA
ATOM      7  C   UNL d   1     -46.466  13.920  22.620  0.00  0.00     0.088 A 
ATOM      8  C   UNL d   1     -46.952  14.556  22.820  0.00  0.00     0.020 A 
ATOM      9  C   UNL d   1     -46.802  13.169  22.481  0.00  0.00     0.049 A 
ATOM     10  C   UNL d   1     -47.768  14.456  22.884  0.00  0.00     0.002 A 
ATOM     11  C   UNL d   1     -48.103  13.706  22.744  0.00  0.00     0.001 A 
ATOM     12  C   UNL d   1     -47.615  13.067  22.544  0.00  0.00     0.008 A 
ATOM     13  S   UNL d   1     -46.186  12.648  22.294  0.00  0.00    -0.060 SA
ENDBRANCH   4   5
ENDBRANCH   3   4
ENDBRANCH   1   3
BRANCH   1  14
ATOM     14  C   UNL d   1     -42.928  13.335  21.057  0.00  0.00     0.080 C 
BRANCH  14  15
ATOM     15  S   UNL d   1     -42.112  13.264  21.176  0.00  0.00    -0.058 SA
BRANCH  15  16
ATOM     16  C   UNL d   1     -41.589  13.778  20.800  0.00  0.00     0.141 A 
ATOM     17  N   UNL d   1     -41.316  13.714  20.015  0.00  0.00    -0.232 NA
ATOM     18  C   UNL d   1     -40.798  14.353  19.873  0.00  0.00     0.088 A 
ATOM     19  C   UNL d   1     -40.371  14.571  19.209  0.00  0.00     0.020 A 
ATOM     20  C   UNL d   1     -40.751  14.806  20.559  0.00  0.00     0.049 A 
ATOM     21  C   UNL d   1     -39.892  15.242  19.220  0.00  0.00     0.002 A 
ATOM     22  C   UNL d   1     -39.846  15.700  19.918  0.00  0.00     0.001 A 
ATOM     23  C   UNL d   1     -40.276  15.480  20.586  0.00  0.00     0.008 A 
ATOM     24  S   UNL d   1     -41.242  14.451  21.138  0.00  0.00    -0.060 SA
ENDBRANCH  15  16
ENDBRANCH  14  15
ENDBRANCH   1  14
TORSDOF 6
ENDMDL
MODEL 2
REMARK VINA RESULT:      -4.7      0.037      6.061
REMARK  6 active torsions:
REMARK  status: ('A' for Active; 'I' for Inactive)
REMARK    1  A    between atoms: S_12  and  C_1 
REMARK    2  A    between atoms: C_2  and  S_11 
REMARK    3  A    between atoms: S_11  and  C_15 
REMARK    4  A    between atoms: C_16  and  S_12 
REMARK    5  A    between atoms: C_13  and  C_16 
REMARK    6  A    between atoms: C_15  and  C_13 
ROOT
ATOM      1  C   UNL d   1     -43.439  12.863  21.476  0.00  0.00     0.209 C 
ATOM      2  O   UNL d   1     -43.164  12.150  21.812  0.00  0.00    -0.285 OA
ENDROOT
BRANCH   1   3
ATOM      3  C   UNL d   1     -42.906  13.360  21.075  0.00  0.00     0.080 C 
BRANCH   3   4
ATOM      4  S   UNL d   1     -42.089  13.256  21.154  0.00  0.00    -0.058 SA
BRANCH   4   5
ATOM      5  C   UNL d   1     -41.565  13.776  20.790  0.00  0.00     0.141 A 
ATOM      6  N   UNL d   1     -41.303  13.742  20.001  0.00  0.00    -0.232 NA
ATOM      7  C   UNL d   1     -40.783  14.373  19.877  0.00  0.00     0.088 A 
ATOM      8  C   UNL d   1     -40.360  14.612  19.210  0.00  0.00     0.020 A 
ATOM      9  C   UNL d   1     -40.716  14.805  20.587  0.00  0.00     0.049 A 
ATOM     10  C   UNL d   1     -39.871  15.276  19.239  0.00  0.00     0.002 A 
ATOM     11  C   UNL d   1     -39.805  15.707  19.950  0.00  0.00     0.001 A 
ATOM     12  C   UNL d   1     -40.230  15.467  20.620  0.00  0.00     0.008 A 
ATOM     13  S   UNL d   1     -41.199  14.438  21.152  0.00  0.00    -0.060 SA
ENDBRANCH   4   5
ENDBRANCH   3   4
ENDBRANCH   1   3
BRANCH   1  14
ATOM     14  C   UNL d   1     -44.233  13.069  21.544  0.00  0.00     0.080 C 
BRANCH  14  15
ATOM     15  S   UNL d   1     -44.689  12.781  22.172  0.00  0.00    -0.058 SA
BRANCH  15  16
ATOM     16  C   UNL d   1     -45.441  13.083  22.315  0.00  0.00     0.141 A 
ATOM     17  N   UNL d   1     -45.623  13.867  22.535  0.00  0.00    -0.232 NA
ATOM     18  C   UNL d   1     -46.450  13.922  22.620  0.00  0.00     0.088 A 
ATOM     19  C   UNL d   1     -46.936  14.548  22.825  0.00  0.00     0.020 A 
ATOM     20  C   UNL d   1     -46.777  13.184  22.457  0.00  0.00     0.049 A 
ATOM     21  C   UNL d   1     -47.754  14.448  22.869  0.00  0.00     0.002 A 
ATOM     22  C   UNL d   1     -48.083  13.698  22.702  0.00  0.00     0.001 A 
ATOM     23  C   UNL d   1     -47.594  13.068  22.497  0.00  0.00     0.008 A 
ATOM     24  S   UNL d   1     -46.153  12.660  22.267  0.00  0.00    -0.060 SA
ENDBRANCH  15  16
ENDBRANCH  14  15
ENDBRANCH   1  14
TORSDOF 6
ENDMDL
MODEL 3
REMARK VINA RESULT:      -3.8      3.882      7.071
REMARK  6 active torsions:
REMARK  status: ('A' for Active; 'I' for Inactive)
REMARK    1  A    between atoms: S_12  and  C_1 
REMARK    2  A    between atoms: C_2  and  S_11 
REMARK    3  A    between atoms: S_11  and  C_15 
REMARK    4  A    between atoms: C_16  and  S_12 
REMARK    5  A    between atoms: C_13  and  C_16 
REMARK    6  A    between atoms: C_15  and  C_13 
ROOT
ATOM      1  C   UNL d   1     -48.000  11.609  23.304  0.00  0.00     0.209 C 
ATOM      2  O   UNL d   1     -48.400  10.895  23.470  0.00  0.00    -0.285 OA
ENDROOT
BRANCH   1   3
ATOM      3  C   UNL d   1     -47.192  11.590  23.110  0.00  0.00     0.080 C 
BRANCH   3   4
ATOM      4  S   UNL d   1     -46.618  11.485  23.697  0.00  0.00    -0.058 SA
BRANCH   4   5
ATOM      5  C   UNL d   1     -45.831  11.357  23.493  0.00  0.00     0.141 A 
ATOM      6  N   UNL d   1     -45.368  10.698  23.696  0.00  0.00    -0.232 NA
ATOM      7  C   UNL d   1     -44.614  10.804  23.374  0.00  0.00     0.088 A 
ATOM      8  C   UNL d   1     -43.936  10.334  23.397  0.00  0.00     0.020 A 
ATOM      9  C   UNL d   1     -44.601  11.532  22.966  0.00  0.00     0.049 A 
ATOM     10  C   UNL d   1     -43.245  10.578  23.020  0.00  0.00     0.002 A 
ATOM     11  C   UNL d   1     -43.232  11.305  22.612  0.00  0.00     0.001 A 
ATOM     12  C   UNL d   1     -43.913  11.777  22.589  0.00  0.00     0.008 A 
ATOM     13  S   UNL d   1     -45.352  11.874  23.038  0.00  0.00    -0.060 SA
ENDBRANCH   4   5
ENDBRANCH   3   4
ENDBRANCH   1   3
BRANCH   1  14
ATOM     14  C   UNL d   1     -48.408  12.324  23.334  0.00  0.00     0.080 C 
BRANCH  14  15
ATOM     15  S   UNL d   1     -48.849  12.583  22.684  0.00  0.00    -0.058 SA
BRANCH  15  16
ATOM     16  C   UNL d   1     -49.308  13.264  22.735  0.00  0.00     0.141 A 
ATOM     17  N   UNL d   1     -49.332  13.794  23.379  0.00  0.00    -0.232 NA
ATOM     18  C   UNL d   1     -49.871  14.401  23.189  0.00  0.00     0.088 A 
ATOM     19  C   UNL d   1     -50.115  15.063  23.605  0.00  0.00     0.020 A 
ATOM     20  C   UNL d   1     -50.176  14.251  22.438  0.00  0.00     0.049 A 
ATOM     21  C   UNL d   1     -50.666  15.583  23.279  0.00  0.00     0.002 A 
ATOM     22  C   UNL d   1     -50.974  15.429  22.518  0.00  0.00     0.001 A 
ATOM     23  C   UNL d   1     -50.729  14.763  22.099  0.00  0.00     0.008 A 
ATOM     24  S   UNL d   1     -49.828  13.545  22.154  0.00  0.00    -0.060 SA
ENDBRANCH  15  16
ENDBRANCH  14  15
ENDBRANCH   1  14
TORSDOF 6
ENDMDL
MODEL 4
REMARK VINA RESULT:      -3.2      2.985      4.347
REMARK  6 active torsions:
REMARK  status: ('A' for Active; 'I' for Inactive)
REMARK    1  A    between atoms: S_12  and  C_1 
REMARK    2  A    between atoms: C_2  and  S_11 
REMARK    3  A    between atoms: S_11  and  C_15 
REMARK    4  A    between atoms: C_16  and  S_12 
REMARK    5  A    between atoms: C_13  and  C_16 
REMARK    6  A    between atoms: C_15  and  C_13 
ROOT
ATOM      1  C   UNL d   1     -47.632  11.793  23.354  0.00  0.00     0.209 C 
ATOM      2  O   UNL d   1     -48.008  11.132  23.698  0.00  0.00    -0.285 OA
ENDROOT
BRANCH   1   3
ATOM      3  C   UNL d   1     -48.083  12.459  23.145  0.00  0.00     0.080 C 
BRANCH   3   4
ATOM      4  S   UNL d   1     -48.909  12.444  23.197  0.00  0.00    -0.058 SA
BRANCH   4   5
ATOM      5  C   UNL d   1     -49.343  13.141  23.145  0.00  0.00     0.141 A 
ATOM      6  N   UNL d   1     -49.159  13.868  23.505  0.00  0.00    -0.232 NA
ATOM      7  C   UNL d   1     -49.747  14.412  23.303  0.00  0.00     0.088 A 
ATOM      8  C   UNL d   1     -49.850  15.207  23.498  0.00  0.00     0.020 A 
ATOM      9  C   UNL d   1     -50.304  14.029  22.813  0.00  0.00     0.049 A 
ATOM     10  C   UNL d   1     -50.500  15.627  23.214  0.00  0.00     0.002 A 
ATOM     11  C   UNL d   1     -51.056  15.245  22.725  0.00  0.00     0.001 A 
ATOM     12  C   UNL d   1     -50.952  14.446  22.528  0.00  0.00     0.008 A 
ATOM     13  S   UNL d   1     -50.056  13.245  22.715  0.00  0.00    -0.060 SA
ENDBRANCH   4   5
ENDBRANCH   3   4
ENDBRANCH   1   3
BRANCH   1  14
ATOM     14  C   UNL d   1     -46.819  11.781  23.225  0.00  0.00     0.080 C 
BRANCH  14  15
ATOM     15  S   UNL d   1     -46.398  12.489  23.136  0.00  0.00    -0.058 SA
BRANCH  15  16
ATOM     16  C   UNL d   1     -45.658  12.491  22.774  0.00  0.00     0.141 A 
ATOM     17  N   UNL d   1     -45.034  11.960  22.927  0.00  0.00    -0.232 NA
ATOM     18  C   UNL d   1     -44.394  12.170  22.436  0.00  0.00     0.088 A 
ATOM     19  C   UNL d   1     -43.646  11.849  22.348  0.00  0.00     0.020 A 
ATOM     20  C   UNL d   1     -44.617  12.822  21.984  0.00  0.00     0.049 A 
ATOM     21  C   UNL d   1     -43.110  12.173  21.810  0.00  0.00     0.002 A 
ATOM     22  C   UNL d   1     -43.340  12.834  21.353  0.00  0.00     0.001 A 
ATOM     23  C   UNL d   1     -44.093  13.157  21.441  0.00  0.00     0.008 A 
ATOM     24  S   UNL d   1     -45.403  13.024  22.192  0.00  0.00    -0.060 SA
ENDBRANCH  15  16
ENDBRANCH  14  15
ENDBRANCH   1  14
TORSDOF 6
ENDMDL
MODEL 5
REMARK VINA RESULT:      -3.2      4.021      4.880
REMARK  6 active torsions:
REMARK  status: ('A' for Active; 'I' for Inactive)
REMARK    1  A    between atoms: S_12  and  C_1 
REMARK    2  A    between atoms: C_2  and  S_11 
REMARK    3  A    between atoms: S_11  and  C_15 
REMARK    4  A    between atoms: C_16  and  S_12 
REMARK    5  A    between atoms: C_13  and  C_16 
REMARK    6  A    between atoms: C_15  and  C_13 
ROOT
ATOM      1  C   UNL d   1     -46.364  13.493  22.420  0.00  0.00     0.209 C 
ATOM      2  O   UNL d   1     -45.919  14.122  22.097  0.00  0.00    -0.285 OA
ENDROOT
BRANCH   1   3
ATOM      3  C   UNL d   1     -47.158  13.620  22.633  0.00  0.00     0.080 C 
BRANCH   3   4
ATOM      4  S   UNL d   1     -47.586  14.251  22.311  0.00  0.00    -0.058 SA
BRANCH   4   5
ATOM      5  C   UNL d   1     -48.372  14.374  22.526  0.00  0.00     0.141 A 
ATOM      6  N   UNL d   1     -49.018  13.884  22.344  0.00  0.00    -0.232 NA
ATOM      7  C   UNL d   1     -49.697  14.222  22.671  0.00  0.00     0.088 A 
ATOM      8  C   UNL d   1     -50.487  13.982  22.666  0.00  0.00     0.020 A 
ATOM      9  C   UNL d   1     -49.480  14.927  23.061  0.00  0.00     0.049 A 
ATOM     10  C   UNL d   1     -51.064  14.434  23.044  0.00  0.00     0.002 A 
ATOM     11  C   UNL d   1     -50.847  15.138  23.433  0.00  0.00     0.001 A 
ATOM     12  C   UNL d   1     -50.054  15.379  23.438  0.00  0.00     0.008 A 
ATOM     13  S   UNL d   1     -48.662  15.023  22.972  0.00  0.00    -0.060 SA
ENDBRANCH   4   5
ENDBRANCH   3   4
ENDBRANCH   1   3
BRANCH   1  14
ATOM     14  C   UNL d   1     -46.016  12.755  22.524  0.00  0.00     0.080 C 
BRANCH  14  15
ATOM     15  S   UNL d   1     -45.390  12.658  23.057  0.00  0.00    -0.058 SA
BRANCH  15  16
ATOM     16  C   UNL d   1     -45.061  11.914  23.182  0.00  0.00     0.141 A 
ATOM     17  N   UNL d   1     -44.258  11.709  23.090  0.00  0.00    -0.232 NA
ATOM     18  C   UNL d   1     -44.178  10.900  23.275  0.00  0.00     0.088 A 
ATOM     19  C   UNL d   1     -43.526  10.404  23.282  0.00  0.00     0.020 A 
ATOM     20  C   UNL d   1     -44.920  10.606  23.479  0.00  0.00     0.049 A 
ATOM     21  C   UNL d   1     -43.604   9.610  23.492  0.00  0.00     0.002 A 
ATOM     22  C   UNL d   1     -44.359   9.315  23.698  0.00  0.00     0.001 A 
ATOM     23  C   UNL d   1     -45.015   9.814  23.691  0.00  0.00     0.008 A 
ATOM     24  S   UNL d   1     -45.471  11.234  23.422  0.00  0.00    -0.060 SA
ENDBRANCH  15  16
ENDBRANCH  14  15
ENDBRANCH   1  14
TORSDOF 6
ENDMDL
MODEL 6
REMARK VINA RESULT:      -2.7      1.378      2.236
REMARK  6 active torsions:
REMARK  status: ('A' for Active; 'I' for Inactive)
REMARK    1  A    between atoms: S_12  and  C_1 
REMARK    2  A    between atoms: C_2  and  S_11 
REMARK    3  A    between atoms: S_11  and  C_15 
REMARK    4  A    between atoms: C_16  and  S_12 
REMARK    5  A    between atoms: C_13  and  C_16 
REMARK    6  A    between atoms: C_15  and  C_13 
ROOT
ATOM      1  C   UNL d   1     -45.480  12.963  22.444  0.00  0.00     0.209 C 
ATOM      2  O   UNL d   1     -45.367  12.320  22.963  0.00  0.00    -0.285 OA
ENDROOT
BRANCH   1   3
ATOM      3  C   UNL d   1     -46.241  13.284  22.348  0.00  0.00     0.080 C 
BRANCH   3   4
ATOM      4  S   UNL d   1     -46.795  13.251  22.963  0.00  0.00    -0.058 SA
BRANCH   4   5
ATOM      5  C   UNL d   1     -47.517  13.641  22.895  0.00  0.00     0.141 A 
ATOM      6  N   UNL d   1     -47.629  14.457  22.779  0.00  0.00    -0.232 NA
ATOM      7  C   UNL d   1     -48.443  14.601  22.744  0.00  0.00     0.088 A 
ATOM      8  C   UNL d   1     -48.872  15.298  22.638  0.00  0.00     0.020 A 
ATOM      9  C   UNL d   1     -48.844  13.876  22.838  0.00  0.00     0.049 A 
ATOM     10  C   UNL d   1     -49.697  15.283  22.626  0.00  0.00     0.002 A 
ATOM     11  C   UNL d   1     -50.097  14.559  22.720  0.00  0.00     0.001 A 
ATOM     12  C   UNL d   1     -49.665  13.859  22.826  0.00  0.00     0.008 A 
ATOM     13  S   UNL d   1     -48.274  13.283  22.931  0.00  0.00    -0.060 SA
ENDBRANCH   4   5
ENDBRANCH   3   4
ENDBRANCH   1   3
BRANCH   1  14
ATOM     14  C   UNL d   1     -44.839  13.276  22.032  0.00  0.00     0.080 C 
BRANCH  14  15
ATOM     15  S   UNL d   1     -44.256  12.776  21.724  0.00  0.00    -0.058 SA
BRANCH  15  16
ATOM     16  C   UNL d   1     -43.513  13.074  21.528  0.00  0.00     0.141 A 
ATOM     17  N   UNL d   1     -42.790  12.661  21.571  0.00  0.00    -0.232 NA
ATOM     18  C   UNL d   1     -42.186  13.178  21.320  0.00  0.00     0.088 A 
ATOM     19  C   UNL d   1     -41.377  13.076  21.248  0.00  0.00     0.020 A 
ATOM     20  C   UNL d   1     -42.529  13.901  21.124  0.00  0.00     0.049 A 
ATOM     21  C   UNL d   1     -40.898  13.693  20.981  0.00  0.00     0.002 A 
ATOM     22  C   UNL d   1     -41.249  14.425  20.783  0.00  0.00     0.001 A 
ATOM     23  C   UNL d   1     -42.063  14.528  20.855  0.00  0.00     0.008 A 
ATOM     24  S   UNL d   1     -43.354  13.840  21.252  0.00  0.00    -0.060 SA
ENDBRANCH  15  16
ENDBRANCH  14  15
ENDBRANCH   1  14
TORSDOF 6
ENDMDL
MODEL 7
REMARK VINA RESULT:      -2.4      1.751      6.566
REMARK  6 active torsions:
REMARK  status: ('A' for Active; 'I' for Inactive)
REMARK    1  A    between atoms: S_12  and  C_1 
REMARK    2  A    between atoms: C_2  and  S_11 
REMARK    3  A    between atoms: S_11  and  C_15 
REMARK    4  A    between atoms: C_16  and  S_12 
REMARK    5  A    between atoms: C_13  and  C_16 
REMARK    6  A    between atoms: C_15  and  C_13 
ROOT
ATOM      1  C   UNL d   1     -46.182  13.046  22.688  0.00  0.00     0.209 C 
ATOM      2  O   UNL d   1     -46.171  12.376  23.186  0.00  0.00    -0.285 OA
ENDROOT
BRANCH   1   3
ATOM      3  C   UNL d   1     -45.483  13.288  22.310  0.00  0.00     0.080 C 
BRANCH   3   4
ATOM      4  S   UNL d   1     -44.951  12.730  22.007  0.00  0.00    -0.058 SA
BRANCH   4   5
ATOM      5  C   UNL d   1     -44.197  12.960  21.768  0.00  0.00     0.141 A 
ATOM      6  N   UNL d   1     -43.945  13.735  21.604  0.00  0.00    -0.232 NA
ATOM      7  C   UNL d   1     -43.148  13.704  21.384  0.00  0.00     0.088 A 
ATOM      8  C   UNL d   1     -42.617  14.295  21.164  0.00  0.00     0.020 A 
ATOM      9  C   UNL d   1     -42.897  12.909  21.410  0.00  0.00     0.049 A 
ATOM     10  C   UNL d   1     -41.838  14.107  20.969  0.00  0.00     0.002 A 
ATOM     11  C   UNL d   1     -41.588  13.312  20.995  0.00  0.00     0.001 A 
ATOM     12  C   UNL d   1     -42.122  12.719  21.216  0.00  0.00     0.008 A 
ATOM     13  S   UNL d   1     -43.544  12.448  21.647  0.00  0.00    -0.060 SA
ENDBRANCH   4   5
ENDBRANCH   3   4
ENDBRANCH   1   3
BRANCH   1  14
ATOM     14  C   UNL d   1     -46.884  13.462  22.576  0.00  0.00     0.080 C 
BRANCH  14  15
ATOM     15  S   UNL d   1     -47.566  13.255  22.999  0.00  0.00    -0.058 SA
BRANCH  15  16
ATOM     16  C   UNL d   1     -48.291  13.597  22.813  0.00  0.00     0.141 A 
ATOM     17  N   UNL d   1     -48.930  13.221  22.431  0.00  0.00    -0.232 NA
ATOM     18  C   UNL d   1     -49.547  13.776  22.358  0.00  0.00     0.088 A 
ATOM     19  C   UNL d   1     -50.297  13.719  22.034  0.00  0.00     0.020 A 
ATOM     20  C   UNL d   1     -49.296  14.487  22.690  0.00  0.00     0.049 A 
ATOM     21  C   UNL d   1     -50.806  14.368  22.035  0.00  0.00     0.002 A 
ATOM     22  C   UNL d   1     -50.548  15.088  22.372  0.00  0.00     0.001 A 
ATOM     23  C   UNL d   1     -49.794  15.146  22.699  0.00  0.00     0.008 A 
ATOM     24  S   UNL d   1     -48.516  14.379  22.973  0.00  0.00    -0.060 SA
ENDBRANCH  15  16
ENDBRANCH  14  15
ENDBRANCH   1  14
TORSDOF 6
ENDMDL
MODEL 8
REMARK VINA RESULT:      -2.3      2.543      3.964
REMARK  6 active torsions:
REMARK  status: ('A' for Active; 'I' for Inactive)
REMARK    1  A    between atoms: S_12  and  C_1 
REMARK    2  A    between atoms: C_2  and  S_11 
REMARK    3  A    between atoms: S_11  and  C_15 
REMARK    4  A    between atoms: C_16  and  S_12 
REMARK    5  A    between atoms: C_13  and  C_16 
REMARK    6  A    between atoms: C_15  and  C_13 
ROOT
ATOM      1  C   UNL d   1     -46.837  14.395  22.738  0.00  0.00     0.209 C 
ATOM      2  O   UNL d   1     -47.017  15.185  22.535  0.00  0.00    -0.285 OA
ENDROOT
BRANCH   1   3
ATOM      3  C   UNL d   1     -47.437  13.900  23.031  0.00  0.00     0.080 C 
BRANCH   3   4
ATOM      4  S   UNL d   1     -48.234  14.104  22.942  0.00  0.00    -0.058 SA
BRANCH   4   5
ATOM      5  C   UNL d   1     -48.826  13.557  23.112  0.00  0.00     0.141 A 
ATOM      6  N   UNL d   1     -48.722  12.744  23.254  0.00  0.00    -0.232 NA
ATOM      7  C   UNL d   1     -49.465  12.413  23.401  0.00  0.00     0.088 A 
ATOM      8  C   UNL d   1     -49.697  11.640  23.574  0.00  0.00     0.020 A 
ATOM      9  C   UNL d   1     -50.039  13.017  23.351  0.00  0.00     0.049 A 
ATOM     10  C   UNL d   1     -50.492  11.459  23.698  0.00  0.00     0.002 A 
ATOM     11  C   UNL d   1     -51.064  12.063  23.648  0.00  0.00     0.001 A 
ATOM     12  C   UNL d   1     -50.831  12.839  23.474  0.00  0.00     0.008 A 
ATOM     13  S   UNL d   1     -49.645  13.724  23.173  0.00  0.00    -0.060 SA
ENDBRANCH   4   5
ENDBRANCH   3   4
ENDBRANCH   1   3
BRANCH   1  14
ATOM     14  C   UNL d   1     -46.068  14.114  22.648  0.00  0.00     0.080 C 
BRANCH  14  15
ATOM     15  S   UNL d   1     -45.926  13.405  22.244  0.00  0.00    -0.058 SA
BRANCH  15  16
ATOM     16  C   UNL d   1     -45.155  13.156  22.098  0.00  0.00     0.141 A 
ATOM     17  N   UNL d   1     -44.565  13.589  21.698  0.00  0.00    -0.232 NA
ATOM     18  C   UNL d   1     -43.875  13.122  21.679  0.00  0.00     0.088 A 
ATOM     19  C   UNL d   1     -43.132  13.260  21.364  0.00  0.00     0.020 A 
ATOM     20  C   UNL d   1     -44.033  12.410  22.061  0.00  0.00     0.049 A 
ATOM     21  C   UNL d   1     -42.537  12.692  21.424  0.00  0.00     0.002 A 
ATOM     22  C   UNL d   1     -42.701  11.970  21.813  0.00  0.00     0.001 A 
ATOM     23  C   UNL d   1     -43.449  11.831  22.130  0.00  0.00     0.008 A 
ATOM     24  S   UNL d   1     -44.828  12.428  22.323  0.00  0.00    -0.060 SA
ENDBRANCH  15  16
ENDBRANCH  14  15
ENDBRANCH   1  14
TORSDOF 6
ENDMDL
