MODEL 1
REMARK VINA RESULT:      82.9      0.000      0.000
REMARK  4 active torsions:
REMARK  status: ('A' for Active; 'I' for Inactive)
REMARK    1  A    between atoms: C_2  and  C_1 
REMARK       I    between atoms: N_7  and  C_2 
REMARK    2  A    between atoms: C_12  and  N_7 
REMARK    3  A    between atoms: C_13  and  N_7 
REMARK    4  A    between atoms: O_14  and  C_11 
ROOT
ATOM      1  C   UNL d   1      58.434  49.120  50.053  0.00  0.00     0.120 A 
ATOM      2  C   UNL d   1      58.776  48.392  49.866  0.00  0.00     0.305 A 
ATOM      3  O   UNL d   1      59.396  48.102  50.336  0.00  0.00    -0.271 OA
ATOM      4  C   UNL d   1      58.707  49.556  50.701  0.00  0.00     0.012 A 
ATOM      5  C   UNL d   1      59.670  48.534  50.982  0.00  0.00     0.125 A 
ATOM      6  C   UNL d   1      59.322  49.267  51.166  0.00  0.00     0.025 A 
ATOM      7  O   UNL d   1      58.501  47.960  49.219  0.00  0.00    -0.259 OA
ATOM      8  C   UNL d   1      60.281  48.247  51.444  0.00  0.00     0.117 A 
ATOM      9  C   UNL d   1      59.593  49.700  51.810  0.00  0.00     0.002 A 
ATOM     10  C   UNL d   1      60.208  49.412  52.274  0.00  0.00     0.002 A 
ATOM     11  C   UNL d   1      60.556  48.678  52.091  0.00  0.00     0.026 A 
ENDROOT
BRANCH   1  12
ATOM     12  C   UNL d   1      57.816  49.413  49.588  0.00  0.00     0.270 C 
ATOM     13  N   UNL d   1      57.043  49.412  49.887  0.00  0.00    -0.273 N 
ATOM     14  O   UNL d   1      57.967  49.704  48.831  0.00  0.00    -0.266 OA
BRANCH  13  15
ATOM     15  C   UNL d   1      56.894  49.118  50.647  0.00  0.00     0.067 A 
ATOM     16  C   UNL d   1      56.910  48.309  50.781  0.00  0.00     0.018 A 
ATOM     17  C   UNL d   1      56.762  48.019  51.539  0.00  0.00     0.002 A 
ATOM     18  C   UNL d   1      56.596  48.538  52.162  0.00  0.00     0.000 A 
ATOM     19  C   UNL d   1      56.581  49.358  52.020  0.00  0.00     0.002 A 
ATOM     20  C   UNL d   1      56.729  49.650  51.265  0.00  0.00     0.018 A 
ENDBRANCH  13  15
BRANCH  13  21
ATOM     21  C   UNL d   1      56.418  49.703  49.427  0.00  0.00     0.083 C 
ATOM     22  C   UNL d   1      56.074  49.225  48.850  0.00  0.00     0.021 C 
ENDBRANCH  13  21
ENDBRANCH   1  12
BRANCH   8  23
ATOM     23  O   UNL d   1      60.630  47.513  51.261  0.00  0.00    -0.326 OA
ATOM     24  C   UNL d   1      61.423  47.482  51.033  0.00  0.00     0.181 C 
ENDBRANCH   8  23
TORSDOF 4
ENDMDL
MODEL 2
REMARK VINA RESULT:      84.1      2.359      3.763
REMARK  4 active torsions:
REMARK  status: ('A' for Active; 'I' for Inactive)
REMARK    1  A    between atoms: C_2  and  C_1 
REMARK       I    between atoms: N_7  and  C_2 
REMARK    2  A    between atoms: C_12  and  N_7 
REMARK    3  A    between atoms: C_13  and  N_7 
REMARK    4  A    between atoms: O_14  and  C_11 
ROOT
ATOM      1  C   UNL d   1      61.035  47.960  51.269  0.00  0.00     0.120 A 
ATOM      2  C   UNL d   1      61.707  48.142  50.826  0.00  0.00     0.305 A 
ATOM      3  O   UNL d   1      61.979  47.602  50.258  0.00  0.00    -0.271 OA
ATOM      4  C   UNL d   1      60.636  47.244  51.146  0.00  0.00     0.012 A 
ATOM      5  C   UNL d   1      61.585  46.889  50.134  0.00  0.00     0.125 A 
ATOM      6  C   UNL d   1      60.907  46.710  50.583  0.00  0.00     0.025 A 
ATOM      7  O   UNL d   1      62.103  48.856  50.951  0.00  0.00    -0.259 OA
ATOM      8  C   UNL d   1      61.854  46.357  49.574  0.00  0.00     0.117 A 
ATOM      9  C   UNL d   1      60.510  46.000  50.461  0.00  0.00     0.002 A 
ATOM     10  C   UNL d   1      60.781  45.465  49.898  0.00  0.00     0.002 A 
ATOM     11  C   UNL d   1      61.459  45.644  49.449  0.00  0.00     0.026 A 
ENDROOT
BRANCH   1  12
ATOM     12  C   UNL d   1      60.760  48.495  51.836  0.00  0.00     0.270 C 
ATOM     13  N   UNL d   1      60.338  49.167  51.594  0.00  0.00    -0.273 N 
ATOM     14  O   UNL d   1      60.905  48.363  52.637  0.00  0.00    -0.266 OA
BRANCH  13  15
ATOM     15  C   UNL d   1      60.194  49.297  50.789  0.00  0.00     0.067 A 
ATOM     16  C   UNL d   1      59.449  49.148  50.479  0.00  0.00     0.018 A 
ATOM     17  C   UNL d   1      59.308  49.278  49.677  0.00  0.00     0.002 A 
ATOM     18  C   UNL d   1      59.912  49.558  49.185  0.00  0.00     0.000 A 
ATOM     19  C   UNL d   1      60.665  49.708  49.504  0.00  0.00     0.002 A 
ATOM     20  C   UNL d   1      60.809  49.578  50.304  0.00  0.00     0.018 A 
ENDBRANCH  13  15
BRANCH  13  21
ATOM     21  C   UNL d   1      60.060  49.708  52.156  0.00  0.00     0.083 C 
ATOM     22  C   UNL d   1      59.263  49.708  52.368  0.00  0.00     0.021 C 
ENDBRANCH  13  21
ENDBRANCH   1  12
BRANCH   8  23
ATOM     23  O   UNL d   1      62.532  46.536  49.125  0.00  0.00    -0.326 OA
ATOM     24  C   UNL d   1      63.060  45.933  48.922  0.00  0.00     0.181 C 
ENDBRANCH   8  23
TORSDOF 4
ENDMDL
