MODEL 1
REMARK VINA RESULT:      62.2      0.000      0.000
REMARK  2 active torsions:
REMARK  status: ('A' for Active; 'I' for Inactive)
REMARK    1  A    between atoms: C_13  and  C_2 
REMARK    2  A    between atoms: N_12  and  C_8 
ROOT
ATOM      1  N   UNL d   1      13.521  12.805  -3.189  0.00  0.00    -0.301 N 
ATOM      2  C   UNL d   1      14.099  12.547  -1.906  0.00  0.00     0.121 A 
ATOM      3  C   UNL d   1      13.825  13.563  -3.171  0.00  0.00     0.092 A 
ATOM      4  C   UNL d   1      13.691  14.085  -3.809  0.00  0.00     0.134 A 
ATOM      5  C   UNL d   1      14.268  13.818  -2.523  0.00  0.00     0.060 A 
ATOM      6  C   UNL d   1      13.657  12.291  -2.554  0.00  0.00     0.090 A 
ATOM      7  C   UNL d   1      14.401  13.313  -1.900  0.00  0.00     0.204 A 
ATOM      8  C   UNL d   1      13.996  14.853  -3.796  0.00  0.00     0.116 A 
ATOM      9  O   UNL d   1      13.244  13.826  -4.464  0.00  0.00    -0.301 OA
ATOM     10  C   UNL d   1      14.439  15.108  -3.148  0.00  0.00     0.158 A 
ATOM     11  C   UNL d   1      14.568  14.576  -2.512  0.00  0.00     0.036 A 
ATOM     12  C   UNL d   1      13.080  12.550  -3.834  0.00  0.00     0.089 A 
ATOM     13  O   UNL d   1      14.847  13.571  -1.246  0.00  0.00    -0.286 OA
ATOM     14  C   UNL d   1      12.941  13.052  -4.467  0.00  0.00     0.140 A 
ATOM     15  F   UNL d   1      14.754  15.882  -3.121  0.00  0.00    -0.203 F 
ATOM     16  C   UNL d   1      12.772  11.780  -3.850  0.00  0.00     0.021 C 
ENDROOT
BRANCH   8  17
ATOM     17  N   UNL d   1      13.862  15.367  -4.428  0.00  0.00    -0.298 N 
ATOM     18  C   UNL d   1      14.511  15.674  -4.854  0.00  0.00     0.100 A 
ATOM     19  C   UNL d   1      14.360  16.193  -5.491  0.00  0.00     0.100 A 
ATOM     20  N   UNL d   1      13.587  16.397  -5.694  0.00  0.00    -0.299 N 
ATOM     21  C   UNL d   1      12.959  16.072  -5.248  0.00  0.00     0.100 A 
ATOM     22  C   UNL d   1      13.446  16.913  -6.328  0.00  0.00     0.100 C 
ATOM     23  C   UNL d   1      13.089  15.571  -4.632  0.00  0.00     0.100 A 
ENDBRANCH   8  17
BRANCH   2  24
ATOM     24  C   UNL d   1      14.245  12.039  -1.258  0.00  0.00     0.215 C 
ATOM     25  O   UNL d   1      13.622  11.779  -0.769  0.00  0.00    -0.644 OA
ATOM     26  O   UNL d   1      15.010  11.791  -1.097  0.00  0.00    -0.644 OA
ENDBRANCH   2  24
TORSDOF 2
ENDMDL
