MODEL 1
REMARK VINA RESULT:      -9.7      0.000      0.000
REMARK  3 active torsions:
REMARK  status: ('A' for Active; 'I' for Inactive)
REMARK    1  A    between atoms: C_8  and  N_1 
REMARK    2  A    between atoms: C_6  and  C_2 
REMARK    3  A    between atoms: C_14  and  C_8 
ROOT
ATOM      1  N   UNL d   1      53.056  32.362  53.530  0.00  0.00    -0.289 N 
ATOM      2  C   UNL d   1      52.375  32.511  53.078  0.00  0.00     0.154 A 
ATOM      3  N   UNL d   1      52.127  31.798  52.751  0.00  0.00    -0.226 NA
ATOM      4  C   UNL d   1      53.225  31.555  53.479  0.00  0.00     0.083 A 
ATOM      5  C   UNL d   1      52.653  31.205  52.999  0.00  0.00     0.099 A 
ATOM      6  C   UNL d   1      53.829  31.081  53.807  0.00  0.00     0.019 A 
ATOM      7  C   UNL d   1      52.679  30.390  52.846  0.00  0.00     0.021 A 
ATOM      8  C   UNL d   1      53.851  30.272  53.652  0.00  0.00     0.002 A 
ATOM      9  C   UNL d   1      53.277  29.927  53.171  0.00  0.00     0.002 A 
ENDROOT
BRANCH   2  10
ATOM     10  C   UNL d   1      52.016  33.246  52.979  0.00  0.00     0.064 A 
ATOM     11  S   UNL d   1      51.473  33.599  53.299  0.00  0.00    -0.083 SA
ATOM     12  C   UNL d   1      51.295  34.257  53.068  0.00  0.00     0.035 A 
ATOM     13  C   UNL d   1      51.649  34.566  52.527  0.00  0.00     0.008 A 
ATOM     14  C   UNL d   1      52.191  34.214  52.208  0.00  0.00     0.010 A 
ENDBRANCH   2  10
BRANCH   1  15
ATOM     15  C   UNL d   1      53.373  33.029  53.895  0.00  0.00     0.082 C 
BRANCH  15  16
ATOM     16  C   UNL d   1      54.074  32.967  54.322  0.00  0.00     0.018 C 
ATOM     17  C   UNL d   1      54.049  32.824  55.133  0.00  0.00     0.002 C 
ATOM     18  C   UNL d   1      54.801  33.049  53.939  0.00  0.00     0.002 C 
ENDBRANCH  15  16
ENDBRANCH   1  15
TORSDOF 3
ENDMDL
MODEL 2
REMARK VINA RESULT:      -9.5      1.038      3.025
REMARK  3 active torsions:
REMARK  status: ('A' for Active; 'I' for Inactive)
REMARK    1  A    between atoms: C_8  and  N_1 
REMARK    2  A    between atoms: C_6  and  C_2 
REMARK    3  A    between atoms: C_14  and  C_8 
ROOT
ATOM      1  N   UNL d   1      53.238  32.550  53.537  0.00  0.00    -0.289 N 
ATOM      2  C   UNL d   1      52.794  31.947  53.178  0.00  0.00     0.154 A 
ATOM      3  N   UNL d   1      52.164  32.298  52.783  0.00  0.00    -0.226 NA
ATOM      4  C   UNL d   1      52.878  33.272  53.362  0.00  0.00     0.083 A 
ATOM      5  C   UNL d   1      52.214  33.119  52.896  0.00  0.00     0.099 A 
ATOM      6  C   UNL d   1      53.062  34.060  53.563  0.00  0.00     0.019 A 
ATOM      7  C   UNL d   1      51.738  33.744  52.632  0.00  0.00     0.021 A 
ATOM      8  C   UNL d   1      52.586  34.679  53.299  0.00  0.00     0.002 A 
ATOM      9  C   UNL d   1      51.924  34.521  52.834  0.00  0.00     0.002 A 
ENDROOT
BRANCH   2  10
ATOM     10  C   UNL d   1      52.961  31.141  53.214  0.00  0.00     0.064 A 
ATOM     11  S   UNL d   1      53.292  30.666  52.781  0.00  0.00    -0.083 SA
ATOM     12  C   UNL d   1      53.344  29.979  52.986  0.00  0.00     0.035 A 
ATOM     13  C   UNL d   1      53.074  29.759  53.613  0.00  0.00     0.008 A 
ATOM     14  C   UNL d   1      52.744  30.234  54.045  0.00  0.00     0.010 A 
ENDBRANCH   2  10
BRANCH   1  15
ATOM     15  C   UNL d   1      53.894  32.282  53.958  0.00  0.00     0.082 C 
BRANCH  15  16
ATOM     16  C   UNL d   1      54.344  32.815  54.396  0.00  0.00     0.018 C 
ATOM     17  C   UNL d   1      54.996  33.181  54.051  0.00  0.00     0.002 C 
ATOM     18  C   UNL d   1      54.142  32.981  55.179  0.00  0.00     0.002 C 
ENDBRANCH  15  16
ENDBRANCH   1  15
TORSDOF 3
ENDMDL
MODEL 3
REMARK VINA RESULT:      -8.7      0.965      2.433
REMARK  3 active torsions:
REMARK  status: ('A' for Active; 'I' for Inactive)
REMARK    1  A    between atoms: C_8  and  N_1 
REMARK    2  A    between atoms: C_6  and  C_2 
REMARK    3  A    between atoms: C_14  and  C_8 
ROOT
ATOM      1  N   UNL d   1      52.815  33.039  53.596  0.00  0.00    -0.289 N 
ATOM      2  C   UNL d   1      52.423  33.770  53.541  0.00  0.00     0.154 A 
ATOM      3  N   UNL d   1      52.779  34.288  54.072  0.00  0.00    -0.226 NA
ATOM      4  C   UNL d   1      53.412  33.111  54.161  0.00  0.00     0.083 A 
ATOM      5  C   UNL d   1      53.392  33.881  54.457  0.00  0.00     0.099 A 
ATOM      6  C   UNL d   1      53.981  32.575  54.455  0.00  0.00     0.019 A 
ATOM      7  C   UNL d   1      53.933  34.118  55.039  0.00  0.00     0.021 A 
ATOM      8  C   UNL d   1      54.516  32.815  55.034  0.00  0.00     0.002 A 
ATOM      9  C   UNL d   1      54.492  33.586  55.326  0.00  0.00     0.002 A 
ENDROOT
BRANCH   2  10
ATOM     10  C   UNL d   1      51.791  33.939  53.041  0.00  0.00     0.064 A 
ATOM     11  S   UNL d   1      51.722  34.194  52.369  0.00  0.00    -0.083 SA
ATOM     12  C   UNL d   1      51.065  34.279  52.088  0.00  0.00     0.035 A 
ATOM     13  C   UNL d   1      50.479  34.115  52.466  0.00  0.00     0.008 A 
ATOM     14  C   UNL d   1      50.547  33.860  53.138  0.00  0.00     0.010 A 
ENDBRANCH   2  10
BRANCH   1  15
ATOM     15  C   UNL d   1      52.519  32.458  53.092  0.00  0.00     0.082 C 
BRANCH  15  16
ATOM     16  C   UNL d   1      52.817  31.692  53.132  0.00  0.00     0.018 C 
ATOM     17  C   UNL d   1      53.487  31.490  52.697  0.00  0.00     0.002 C 
ATOM     18  C   UNL d   1      52.446  31.127  53.606  0.00  0.00     0.002 C 
ENDBRANCH  15  16
ENDBRANCH   1  15
TORSDOF 3
ENDMDL
MODEL 4
REMARK VINA RESULT:      -8.6      1.103      3.303
REMARK  3 active torsions:
REMARK  status: ('A' for Active; 'I' for Inactive)
REMARK    1  A    between atoms: C_8  and  N_1 
REMARK    2  A    between atoms: C_6  and  C_2 
REMARK    3  A    between atoms: C_14  and  C_8 
ROOT
ATOM      1  N   UNL d   1      53.032  32.580  53.659  0.00  0.00    -0.289 N 
ATOM      2  C   UNL d   1      53.408  31.851  53.791  0.00  0.00     0.154 A 
ATOM      3  N   UNL d   1      54.015  31.974  54.332  0.00  0.00    -0.226 NA
ATOM      4  C   UNL d   1      53.411  33.150  54.120  0.00  0.00     0.083 A 
ATOM      5  C   UNL d   1      54.018  32.778  54.536  0.00  0.00     0.099 A 
ATOM      6  C   UNL d   1      53.287  33.969  54.222  0.00  0.00     0.019 A 
ATOM      7  C   UNL d   1      54.500  33.217  55.050  0.00  0.00     0.021 A 
ATOM      8  C   UNL d   1      53.768  34.401  54.734  0.00  0.00     0.002 A 
ATOM      9  C   UNL d   1      54.374  34.025  55.148  0.00  0.00     0.002 A 
ENDROOT
BRANCH   2  10
ATOM     10  C   UNL d   1      53.203  31.134  53.440  0.00  0.00     0.064 A 
ATOM     11  S   UNL d   1      53.361  30.805  52.816  0.00  0.00    -0.083 SA
ATOM     12  C   UNL d   1      53.079  30.158  52.677  0.00  0.00     0.035 A 
ATOM     13  C   UNL d   1      52.645  29.836  53.148  0.00  0.00     0.008 A 
ATOM     14  C   UNL d   1      52.488  30.165  53.770  0.00  0.00     0.010 A 
ENDBRANCH   2  10
BRANCH   1  15
ATOM     15  C   UNL d   1      52.405  32.546  53.125  0.00  0.00     0.082 C 
BRANCH  15  16
ATOM     16  C   UNL d   1      51.921  33.203  53.019  0.00  0.00     0.018 C 
ATOM     17  C   UNL d   1      52.103  33.755  52.435  0.00  0.00     0.002 C 
ATOM     18  C   UNL d   1      51.257  33.309  53.497  0.00  0.00     0.002 C 
ENDBRANCH  15  16
ENDBRANCH   1  15
TORSDOF 3
ENDMDL
MODEL 5
REMARK VINA RESULT:      -8.6      1.094      2.541
REMARK  3 active torsions:
REMARK  status: ('A' for Active; 'I' for Inactive)
REMARK    1  A    between atoms: C_8  and  N_1 
REMARK    2  A    between atoms: C_6  and  C_2 
REMARK    3  A    between atoms: C_14  and  C_8 
ROOT
ATOM      1  N   UNL d   1      53.254  32.419  53.734  0.00  0.00    -0.289 N 
ATOM      2  C   UNL d   1      53.917  32.305  54.221  0.00  0.00     0.154 A 
ATOM      3  N   UNL d   1      54.111  31.506  54.203  0.00  0.00    -0.226 NA
ATOM      4  C   UNL d   1      53.041  31.687  53.417  0.00  0.00     0.083 A 
ATOM      5  C   UNL d   1      53.568  31.122  53.705  0.00  0.00     0.099 A 
ATOM      6  C   UNL d   1      52.431  31.450  52.899  0.00  0.00     0.019 A 
ATOM      7  C   UNL d   1      53.491  30.327  53.480  0.00  0.00     0.021 A 
ATOM      8  C   UNL d   1      52.358  30.660  52.678  0.00  0.00     0.002 A 
ATOM      9  C   UNL d   1      52.888  30.098  52.968  0.00  0.00     0.002 A 
ENDROOT
BRANCH   2  10
ATOM     10  C   UNL d   1      54.308  32.894  54.645  0.00  0.00     0.064 A 
ATOM     11  S   UNL d   1      54.252  33.170  55.310  0.00  0.00    -0.083 SA
ATOM     12  C   UNL d   1      54.696  33.699  55.512  0.00  0.00     0.035 A 
ATOM     13  C   UNL d   1      55.191  33.956  55.062  0.00  0.00     0.008 A 
ATOM     14  C   UNL d   1      55.247  33.681  54.397  0.00  0.00     0.010 A 
ENDBRANCH   2  10
BRANCH   1  15
ATOM     15  C   UNL d   1      52.992  33.199  53.695  0.00  0.00     0.082 C 
BRANCH  15  16
ATOM     16  C   UNL d   1      52.326  33.386  53.248  0.00  0.00     0.018 C 
ATOM     17  C   UNL d   1      52.413  33.616  52.461  0.00  0.00     0.002 C 
ATOM     18  C   UNL d   1      51.575  33.342  53.585  0.00  0.00     0.002 C 
ENDBRANCH  15  16
ENDBRANCH   1  15
TORSDOF 3
ENDMDL
MODEL 6
REMARK VINA RESULT:      -7.7      1.244      3.201
REMARK  3 active torsions:
REMARK  status: ('A' for Active; 'I' for Inactive)
REMARK    1  A    between atoms: C_8  and  N_1 
REMARK    2  A    between atoms: C_6  and  C_2 
REMARK    3  A    between atoms: C_14  and  C_8 
ROOT
ATOM      1  N   UNL d   1      52.899  33.028  53.726  0.00  0.00    -0.289 N 
ATOM      2  C   UNL d   1      53.257  33.656  54.135  0.00  0.00     0.154 A 
ATOM      3  N   UNL d   1      52.810  34.333  54.002  0.00  0.00    -0.226 NA
ATOM      4  C   UNL d   1      52.230  33.322  53.342  0.00  0.00     0.083 A 
ATOM      5  C   UNL d   1      52.173  34.128  53.510  0.00  0.00     0.099 A 
ATOM      6  C   UNL d   1      51.655  32.965  52.854  0.00  0.00     0.019 A 
ATOM      7  C   UNL d   1      51.549  34.576  53.196  0.00  0.00     0.021 A 
ATOM      8  C   UNL d   1      51.037  33.413  52.544  0.00  0.00     0.002 A 
ATOM      9  C   UNL d   1      50.984  34.219  52.715  0.00  0.00     0.002 A 
ENDROOT
BRANCH   2  10
ATOM     10  C   UNL d   1      53.941  33.604  54.592  0.00  0.00     0.064 A 
ATOM     11  S   UNL d   1      54.084  33.464  55.287  0.00  0.00    -0.083 SA
ATOM     12  C   UNL d   1      54.767  33.461  55.512  0.00  0.00     0.035 A 
ATOM     13  C   UNL d   1      55.306  33.594  55.059  0.00  0.00     0.008 A 
ATOM     14  C   UNL d   1      55.162  33.733  54.366  0.00  0.00     0.010 A 
ENDBRANCH   2  10
BRANCH   1  15
ATOM     15  C   UNL d   1      53.287  32.306  53.807  0.00  0.00     0.082 C 
BRANCH  15  16
ATOM     16  C   UNL d   1      53.043  31.658  53.362  0.00  0.00     0.018 C 
ATOM     17  C   UNL d   1      52.507  31.120  53.682  0.00  0.00     0.002 C 
ATOM     18  C   UNL d   1      53.333  31.547  52.598  0.00  0.00     0.002 C 
ENDBRANCH  15  16
ENDBRANCH   1  15
TORSDOF 3
ENDMDL
