MODEL 1
REMARK VINA RESULT:      -7.0      0.000      0.000
REMARK  4 active torsions:
REMARK  status: ('A' for Active; 'I' for Inactive)
REMARK    1  A    between atoms: C_6  and  C_1 
REMARK       I    between atoms: N_9  and  C_6 
REMARK    2  A    between atoms: C_13  and  N_9 
REMARK    3  A    between atoms: O_12  and  C_14 
REMARK    4  A    between atoms: C_14  and  C_13 
ROOT
ATOM      1  C   UNL d   1     -47.173  13.354  23.027  0.00  0.00     0.084 A 
ATOM      2  C   UNL d   1     -47.687  13.968  22.818  0.00  0.00     0.137 A 
ATOM      3  S   UNL d   1     -48.461  13.695  22.914  0.00  0.00    -0.066 SA
ATOM      4  C   UNL d   1     -47.629  12.708  23.250  0.00  0.00     0.013 A 
ATOM      5  C   UNL d   1     -48.419  12.913  23.182  0.00  0.00     0.031 A 
ATOM      6  N   UNL d   1     -47.466  14.725  22.557  0.00  0.00    -0.141 N 
ATOM      7  C   UNL d   1     -47.423  11.951  23.510  0.00  0.00     0.001 A 
ATOM      8  C   UNL d   1     -49.016  12.373  23.369  0.00  0.00     0.006 A 
ATOM      9  C   UNL d   1     -48.018  11.408  23.698  0.00  0.00     0.000 A 
ATOM     10  C   UNL d   1     -48.810  11.621  23.627  0.00  0.00     0.001 A 
ENDROOT
BRANCH   1  11
ATOM     11  C   UNL d   1     -46.346  13.394  23.011  0.00  0.00     0.281 C 
ATOM     12  O   UNL d   1     -45.936  13.667  23.672  0.00  0.00    -0.265 OA
ATOM     13  N   UNL d   1     -45.929  13.163  22.340  0.00  0.00    -0.204 NA
BRANCH  13  14
ATOM     14  C   UNL d   1     -45.104  13.202  22.324  0.00  0.00     0.128 C 
BRANCH  14  15
ATOM     15  C   UNL d   1     -44.684  12.917  21.675  0.00  0.00     0.137 C 
BRANCH  15  16
ATOM     16  O   UNL d   1     -43.961  12.539  21.781  0.00  0.00    -0.325 OA
ATOM     17  C   UNL d   1     -43.287  12.810  21.390  0.00  0.00     0.182 C 
ENDBRANCH  15  16
ENDBRANCH  14  15
ENDBRANCH  13  14
ENDBRANCH   1  11
TORSDOF 4
ENDMDL
MODEL 2
REMARK VINA RESULT:      -6.8      0.919      1.795
REMARK  4 active torsions:
REMARK  status: ('A' for Active; 'I' for Inactive)
REMARK    1  A    between atoms: C_6  and  C_1 
REMARK       I    between atoms: N_9  and  C_6 
REMARK    2  A    between atoms: C_13  and  N_9 
REMARK    3  A    between atoms: O_12  and  C_14 
REMARK    4  A    between atoms: C_14  and  C_13 
ROOT
ATOM      1  C   UNL d   1     -47.269  13.306  22.973  0.00  0.00     0.084 A 
ATOM      2  C   UNL d   1     -47.738  12.640  23.124  0.00  0.00     0.137 A 
ATOM      3  S   UNL d   1     -48.528  12.861  23.034  0.00  0.00    -0.066 SA
ATOM      4  C   UNL d   1     -47.770  13.931  22.792  0.00  0.00     0.013 A 
ATOM      5  C   UNL d   1     -48.543  13.662  22.829  0.00  0.00     0.031 A 
ATOM      6  N   UNL d   1     -47.463  11.884  23.329  0.00  0.00    -0.141 N 
ATOM      7  C   UNL d   1     -47.619  14.720  22.596  0.00  0.00     0.001 A 
ATOM      8  C   UNL d   1     -49.177  14.169  22.673  0.00  0.00     0.006 A 
ATOM      9  C   UNL d   1     -48.252  15.230  22.440  0.00  0.00     0.000 A 
ATOM     10  C   UNL d   1     -49.026  14.953  22.479  0.00  0.00     0.001 A 
ENDROOT
BRANCH   1  11
ATOM     11  C   UNL d   1     -46.442  13.327  23.001  0.00  0.00     0.281 C 
ATOM     12  O   UNL d   1     -46.062  13.547  23.698  0.00  0.00    -0.265 OA
ATOM     13  N   UNL d   1     -45.995  13.130  22.338  0.00  0.00    -0.204 NA
BRANCH  13  14
ATOM     14  C   UNL d   1     -45.170  13.151  22.367  0.00  0.00     0.128 C 
BRANCH  14  15
ATOM     15  C   UNL d   1     -44.723  12.960  21.701  0.00  0.00     0.137 C 
BRANCH  15  16
ATOM     16  O   UNL d   1     -43.987  12.601  21.783  0.00  0.00    -0.325 OA
ATOM     17  C   UNL d   1     -43.360  12.819  21.294  0.00  0.00     0.182 C 
ENDBRANCH  15  16
ENDBRANCH  14  15
ENDBRANCH  13  14
ENDBRANCH   1  11
TORSDOF 4
ENDMDL
MODEL 3
REMARK VINA RESULT:      -6.5      1.990      2.764
REMARK  4 active torsions:
REMARK  status: ('A' for Active; 'I' for Inactive)
REMARK    1  A    between atoms: C_6  and  C_1 
REMARK       I    between atoms: N_9  and  C_6 
REMARK    2  A    between atoms: C_13  and  N_9 
REMARK    3  A    between atoms: O_12  and  C_14 
REMARK    4  A    between atoms: C_14  and  C_13 
ROOT
ATOM      1  C   UNL d   1     -48.741  13.794  22.272  0.00  0.00     0.084 A 
ATOM      2  C   UNL d   1     -49.125  13.459  21.619  0.00  0.00     0.137 A 
ATOM      3  S   UNL d   1     -49.891  13.768  21.590  0.00  0.00    -0.066 SA
ATOM      4  C   UNL d   1     -49.268  14.304  22.641  0.00  0.00     0.013 A 
ATOM      5  C   UNL d   1     -49.974  14.291  22.226  0.00  0.00     0.031 A 
ATOM      6  N   UNL d   1     -48.800  12.911  21.087  0.00  0.00    -0.141 N 
ATOM      7  C   UNL d   1     -49.194  14.785  23.309  0.00  0.00     0.001 A 
ATOM      8  C   UNL d   1     -50.616  14.752  22.466  0.00  0.00     0.006 A 
ATOM      9  C   UNL d   1     -49.835  15.248  23.552  0.00  0.00     0.000 A 
ATOM     10  C   UNL d   1     -50.542  15.230  23.130  0.00  0.00     0.001 A 
ENDROOT
BRANCH   1  11
ATOM     11  C   UNL d   1     -47.962  13.635  22.503  0.00  0.00     0.281 C 
ATOM     12  O   UNL d   1     -47.360  14.160  22.304  0.00  0.00    -0.265 OA
ATOM     13  N   UNL d   1     -47.784  12.954  22.931  0.00  0.00    -0.204 NA
BRANCH  13  14
ATOM     14  C   UNL d   1     -47.006  12.796  23.162  0.00  0.00     0.128 C 
BRANCH  14  15
ATOM     15  C   UNL d   1     -46.804  12.060  23.473  0.00  0.00     0.137 C 
BRANCH  15  16
ATOM     16  O   UNL d   1     -46.027  11.900  23.693  0.00  0.00    -0.325 OA
ATOM     17  C   UNL d   1     -45.746  11.125  23.697  0.00  0.00     0.182 C 
ENDBRANCH  15  16
ENDBRANCH  14  15
ENDBRANCH  13  14
ENDBRANCH   1  11
TORSDOF 4
ENDMDL
MODEL 4
REMARK VINA RESULT:      -6.4      1.599      2.218
REMARK  4 active torsions:
REMARK  status: ('A' for Active; 'I' for Inactive)
REMARK    1  A    between atoms: C_6  and  C_1 
REMARK       I    between atoms: N_9  and  C_6 
REMARK    2  A    between atoms: C_13  and  N_9 
REMARK    3  A    between atoms: O_12  and  C_14 
REMARK    4  A    between atoms: C_14  and  C_13 
ROOT
ATOM      1  C   UNL d   1     -49.261  13.690  22.737  0.00  0.00     0.084 A 
ATOM      2  C   UNL d   1     -49.623  14.417  22.898  0.00  0.00     0.137 A 
ATOM      3  S   UNL d   1     -50.337  14.264  23.284  0.00  0.00    -0.066 SA
ATOM      4  C   UNL d   1     -49.750  13.095  23.024  0.00  0.00     0.013 A 
ATOM      5  C   UNL d   1     -50.411  13.444  23.360  0.00  0.00     0.031 A 
ATOM      6  N   UNL d   1     -49.323  15.167  22.705  0.00  0.00    -0.141 N 
ATOM      7  C   UNL d   1     -49.678  12.272  23.022  0.00  0.00     0.001 A 
ATOM      8  C   UNL d   1     -51.008  12.984  23.698  0.00  0.00     0.006 A 
ATOM      9  C   UNL d   1     -50.274  11.809  23.360  0.00  0.00     0.000 A 
ATOM     10  C   UNL d   1     -50.935  12.166  23.696  0.00  0.00     0.001 A 
ENDROOT
BRANCH   1  11
ATOM     11  C   UNL d   1     -48.533  13.590  22.355  0.00  0.00     0.281 C 
ATOM     12  O   UNL d   1     -48.511  13.484  21.538  0.00  0.00    -0.265 OA
ATOM     13  N   UNL d   1     -47.831  13.595  22.785  0.00  0.00    -0.204 NA
BRANCH  13  14
ATOM     14  C   UNL d   1     -47.105  13.495  22.402  0.00  0.00     0.128 C 
BRANCH  14  15
ATOM     15  C   UNL d   1     -46.412  13.403  22.839  0.00  0.00     0.137 C 
BRANCH  15  16
ATOM     16  O   UNL d   1     -45.700  13.705  22.558  0.00  0.00    -0.325 OA
ATOM     17  C   UNL d   1     -45.140  13.205  22.217  0.00  0.00     0.182 C 
ENDBRANCH  15  16
ENDBRANCH  14  15
ENDBRANCH  13  14
ENDBRANCH   1  11
TORSDOF 4
ENDMDL
MODEL 5
REMARK VINA RESULT:      -6.2      2.437      4.171
REMARK  4 active torsions:
REMARK  status: ('A' for Active; 'I' for Inactive)
REMARK    1  A    between atoms: C_6  and  C_1 
REMARK       I    between atoms: N_9  and  C_6 
REMARK    2  A    between atoms: C_13  and  N_9 
REMARK    3  A    between atoms: O_12  and  C_14 
REMARK    4  A    between atoms: C_14  and  C_13 
ROOT
ATOM      1  C   UNL d   1     -48.517  13.081  22.581  0.00  0.00     0.084 A 
ATOM      2  C   UNL d   1     -48.641  12.282  22.761  0.00  0.00     0.137 A 
ATOM      3  S   UNL d   1     -47.933  11.975  23.055  0.00  0.00    -0.066 SA
ATOM      4  C   UNL d   1     -47.736  13.261  22.763  0.00  0.00     0.013 A 
ATOM      5  C   UNL d   1     -47.375  12.586  23.054  0.00  0.00     0.031 A 
ATOM      6  N   UNL d   1     -49.352  11.863  22.664  0.00  0.00    -0.141 N 
ATOM      7  C   UNL d   1     -47.303  13.963  22.701  0.00  0.00     0.001 A 
ATOM      8  C   UNL d   1     -46.583  12.595  23.287  0.00  0.00     0.006 A 
ATOM      9  C   UNL d   1     -46.509  13.975  22.933  0.00  0.00     0.000 A 
ATOM     10  C   UNL d   1     -46.153  13.292  23.224  0.00  0.00     0.001 A 
ENDROOT
BRANCH   1  11
ATOM     11  C   UNL d   1     -49.085  13.597  22.272  0.00  0.00     0.281 C 
ATOM     12  O   UNL d   1     -49.151  13.693  21.457  0.00  0.00    -0.265 OA
ATOM     13  N   UNL d   1     -49.585  14.017  22.774  0.00  0.00    -0.204 NA
BRANCH  13  14
ATOM     14  C   UNL d   1     -50.152  14.534  22.465  0.00  0.00     0.128 C 
BRANCH  14  15
ATOM     15  C   UNL d   1     -50.809  14.748  22.913  0.00  0.00     0.137 C 
BRANCH  15  16
ATOM     16  O   UNL d   1     -51.038  15.537  22.964  0.00  0.00    -0.325 OA
ATOM     17  C   UNL d   1     -51.049  15.922  23.693  0.00  0.00     0.182 C 
ENDBRANCH  15  16
ENDBRANCH  14  15
ENDBRANCH  13  14
ENDBRANCH   1  11
TORSDOF 4
ENDMDL
MODEL 6
REMARK VINA RESULT:      -5.9      2.074      3.500
REMARK  4 active torsions:
REMARK  status: ('A' for Active; 'I' for Inactive)
REMARK    1  A    between atoms: C_6  and  C_1 
REMARK       I    between atoms: N_9  and  C_6 
REMARK    2  A    between atoms: C_13  and  N_9 
REMARK    3  A    between atoms: O_12  and  C_14 
REMARK    4  A    between atoms: C_14  and  C_13 
ROOT
ATOM      1  C   UNL d   1     -47.640  13.293  23.072  0.00  0.00     0.084 A 
ATOM      2  C   UNL d   1     -46.997  13.793  22.925  0.00  0.00     0.137 A 
ATOM      3  S   UNL d   1     -46.305  13.361  23.054  0.00  0.00    -0.066 SA
ATOM      4  C   UNL d   1     -47.343  12.558  23.291  0.00  0.00     0.013 A 
ATOM      5  C   UNL d   1     -46.525  12.597  23.281  0.00  0.00     0.031 A 
ATOM      6  N   UNL d   1     -47.039  14.588  22.688  0.00  0.00    -0.141 N 
ATOM      7  C   UNL d   1     -47.718  11.852  23.500  0.00  0.00     0.001 A 
ATOM      8  C   UNL d   1     -46.066  11.938  23.477  0.00  0.00     0.006 A 
ATOM      9  C   UNL d   1     -47.261  11.191  23.698  0.00  0.00     0.000 A 
ATOM     10  C   UNL d   1     -46.439  11.236  23.686  0.00  0.00     0.001 A 
ENDROOT
BRANCH   1  11
ATOM     11  C   UNL d   1     -48.438  13.504  23.008  0.00  0.00     0.281 C 
ATOM     12  O   UNL d   1     -48.829  13.830  23.656  0.00  0.00    -0.265 OA
ATOM     13  N   UNL d   1     -48.844  13.392  22.301  0.00  0.00    -0.204 NA
BRANCH  13  14
ATOM     14  C   UNL d   1     -49.641  13.603  22.237  0.00  0.00     0.128 C 
BRANCH  14  15
ATOM     15  C   UNL d   1     -50.037  13.526  21.518  0.00  0.00     0.137 C 
BRANCH  15  16
ATOM     16  O   UNL d   1     -50.833  13.728  21.459  0.00  0.00    -0.325 OA
ATOM     17  C   UNL d   1     -51.064  14.520  21.475  0.00  0.00     0.182 C 
ENDBRANCH  15  16
ENDBRANCH  14  15
ENDBRANCH  13  14
ENDBRANCH   1  11
TORSDOF 4
ENDMDL
MODEL 7
REMARK VINA RESULT:      -4.9      7.325      9.719
REMARK  4 active torsions:
REMARK  status: ('A' for Active; 'I' for Inactive)
REMARK    1  A    between atoms: C_6  and  C_1 
REMARK       I    between atoms: N_9  and  C_6 
REMARK    2  A    between atoms: C_13  and  N_9 
REMARK    3  A    between atoms: O_12  and  C_14 
REMARK    4  A    between atoms: C_14  and  C_13 
ROOT
ATOM      1  C   UNL d   1     -39.375  14.114  17.489  0.00  0.00     0.084 A 
ATOM      2  C   UNL d   1     -38.878  13.460  17.389  0.00  0.00     0.137 A 
ATOM      3  S   UNL d   1     -38.336  13.642  16.792  0.00  0.00    -0.066 SA
ATOM      4  C   UNL d   1     -39.139  14.694  16.957  0.00  0.00     0.013 A 
ATOM      5  C   UNL d   1     -38.502  14.408  16.528  0.00  0.00     0.031 A 
ATOM      6  N   UNL d   1     -38.916  12.746  17.812  0.00  0.00    -0.141 N 
ATOM      7  C   UNL d   1     -39.426  15.455  16.806  0.00  0.00     0.001 A 
ATOM      8  C   UNL d   1     -38.141  14.869  15.945  0.00  0.00     0.006 A 
ATOM      9  C   UNL d   1     -39.066  15.919  16.224  0.00  0.00     0.000 A 
ATOM     10  C   UNL d   1     -38.427  15.625  15.796  0.00  0.00     0.001 A 
ENDROOT
BRANCH   1  11
ATOM     11  C   UNL d   1     -39.997  14.166  18.032  0.00  0.00     0.281 C 
ATOM     12  O   UNL d   1     -40.744  13.886  17.828  0.00  0.00    -0.265 OA
ATOM     13  N   UNL d   1     -39.876  14.495  18.777  0.00  0.00    -0.204 NA
BRANCH  13  14
ATOM     14  C   UNL d   1     -40.497  14.547  19.320  0.00  0.00     0.128 C 
BRANCH  14  15
ATOM     15  C   UNL d   1     -40.409  14.979  20.016  0.00  0.00     0.137 C 
BRANCH  15  16
ATOM     16  O   UNL d   1     -41.010  14.986  20.579  0.00  0.00    -0.325 OA
ATOM     17  C   UNL d   1     -41.184  15.678  20.994  0.00  0.00     0.182 C 
ENDBRANCH  15  16
ENDBRANCH  14  15
ENDBRANCH  13  14
ENDBRANCH   1  11
TORSDOF 4
ENDMDL
MODEL 8
REMARK VINA RESULT:      -4.5      8.555      9.355
REMARK  4 active torsions:
REMARK  status: ('A' for Active; 'I' for Inactive)
REMARK    1  A    between atoms: C_6  and  C_1 
REMARK       I    between atoms: N_9  and  C_6 
REMARK    2  A    between atoms: C_13  and  N_9 
REMARK    3  A    between atoms: O_12  and  C_14 
REMARK    4  A    between atoms: C_14  and  C_13 
ROOT
ATOM      1  C   UNL d   1     -39.288  14.503  17.563  0.00  0.00     0.084 A 
ATOM      2  C   UNL d   1     -38.757  14.737  16.973  0.00  0.00     0.137 A 
ATOM      3  S   UNL d   1     -39.131  15.307  16.506  0.00  0.00    -0.066 SA
ATOM      4  C   UNL d   1     -39.984  14.928  17.459  0.00  0.00     0.013 A 
ATOM      5  C   UNL d   1     -39.891  15.422  16.812  0.00  0.00     0.031 A 
ATOM      6  N   UNL d   1     -37.985  14.449  16.867  0.00  0.00    -0.141 N 
ATOM      7  C   UNL d   1     -40.698  14.929  17.875  0.00  0.00     0.001 A 
ATOM      8  C   UNL d   1     -40.501  15.922  16.568  0.00  0.00     0.006 A 
ATOM      9  C   UNL d   1     -41.311  15.429  17.634  0.00  0.00     0.000 A 
ATOM     10  C   UNL d   1     -41.211  15.922  16.982  0.00  0.00     0.001 A 
ENDROOT
BRANCH   1  11
ATOM     11  C   UNL d   1     -39.136  13.940  18.151  0.00  0.00     0.281 C 
ATOM     12  O   UNL d   1     -39.347  13.153  18.028  0.00  0.00    -0.265 OA
ATOM     13  N   UNL d   1     -38.776  14.161  18.858  0.00  0.00    -0.204 NA
BRANCH  13  14
ATOM     14  C   UNL d   1     -38.624  13.598  19.444  0.00  0.00     0.128 C 
BRANCH  14  15
ATOM     15  C   UNL d   1     -38.327  13.829  20.177  0.00  0.00     0.137 C 
BRANCH  15  16
ATOM     16  O   UNL d   1     -37.972  13.277  20.674  0.00  0.00    -0.325 OA
ATOM     17  C   UNL d   1     -38.071  13.327  21.492  0.00  0.00     0.182 C 
ENDBRANCH  15  16
ENDBRANCH  14  15
ENDBRANCH  13  14
ENDBRANCH   1  11
TORSDOF 4
ENDMDL
MODEL 9
REMARK VINA RESULT:      -4.3      7.767      8.365
REMARK  4 active torsions:
REMARK  status: ('A' for Active; 'I' for Inactive)
REMARK    1  A    between atoms: C_6  and  C_1 
REMARK       I    between atoms: N_9  and  C_6 
REMARK    2  A    between atoms: C_13  and  N_9 
REMARK    3  A    between atoms: O_12  and  C_14 
REMARK    4  A    between atoms: C_14  and  C_13 
ROOT
ATOM      1  C   UNL d   1     -39.781  14.949  19.643  0.00  0.00     0.084 A 
ATOM      2  C   UNL d   1     -40.449  15.436  19.602  0.00  0.00     0.137 A 
ATOM      3  S   UNL d   1     -40.778  15.353  18.849  0.00  0.00    -0.066 SA
ATOM      4  C   UNL d   1     -39.700  14.570  18.918  0.00  0.00     0.013 A 
ATOM      5  C   UNL d   1     -40.310  14.816  18.429  0.00  0.00     0.031 A 
ATOM      6  N   UNL d   1     -40.739  15.921  20.211  0.00  0.00    -0.141 N 
ATOM      7  C   UNL d   1     -39.144  14.027  18.638  0.00  0.00     0.001 A 
ATOM      8  C   UNL d   1     -40.377  14.528  17.657  0.00  0.00     0.006 A 
ATOM      9  C   UNL d   1     -39.209  13.737  17.866  0.00  0.00     0.000 A 
ATOM     10  C   UNL d   1     -39.824  13.988  17.380  0.00  0.00     0.001 A 
ENDROOT
BRANCH   1  11
ATOM     11  C   UNL d   1     -39.287  14.865  20.302  0.00  0.00     0.281 C 
ATOM     12  O   UNL d   1     -38.618  15.340  20.376  0.00  0.00    -0.265 OA
ATOM     13  N   UNL d   1     -39.459  14.310  20.885  0.00  0.00    -0.204 NA
BRANCH  13  14
ATOM     14  C   UNL d   1     -38.966  14.226  21.543  0.00  0.00     0.128 C 
BRANCH  14  15
ATOM     15  C   UNL d   1     -39.117  13.645  22.108  0.00  0.00     0.137 C 
BRANCH  15  16
ATOM     16  O   UNL d   1     -38.589  13.519  22.727  0.00  0.00    -0.325 OA
ATOM     17  C   UNL d   1     -38.846  13.171  23.429  0.00  0.00     0.182 C 
ENDBRANCH  15  16
ENDBRANCH  14  15
ENDBRANCH  13  14
ENDBRANCH   1  11
TORSDOF 4
ENDMDL
