MODEL 1
REMARK VINA RESULT:      59.5      0.000      0.000
REMARK  5 active torsions:
REMARK  status: ('A' for Active; 'I' for Inactive)
REMARK    1  A    between atoms: C_3  and  S_1 
REMARK    2  A    between atoms: C_7  and  S_1 
REMARK    3  A    between atoms: C_2  and  C_3 
REMARK    4  A    between atoms: C_9  and  C_3 
REMARK    5  A    between atoms: N_8  and  C_4 
ROOT
ATOM      1  C   UNL d   1      14.432  13.914  -2.159  0.00  0.00     0.128 A 
ATOM      2  C   UNL d   1      14.738  13.941  -1.401  0.00  0.00     0.166 A 
ATOM      3  N   UNL d   1      14.389  14.601  -2.620  0.00  0.00    -0.240 NA
ATOM      4  N   UNL d   1      15.009  14.664  -1.090  0.00  0.00    -0.225 NA
ATOM      5  C   UNL d   1      14.658  15.312  -2.308  0.00  0.00     0.099 A 
ATOM      6  C   UNL d   1      14.965  15.343  -1.551  0.00  0.00     0.101 A 
ATOM      7  C   UNL d   1      15.233  16.066  -1.247  0.00  0.00     0.021 A 
ATOM      8  C   UNL d   1      14.615  15.991  -2.769  0.00  0.00     0.021 A 
ATOM      9  C   UNL d   1      15.193  16.746  -1.701  0.00  0.00     0.002 A 
ATOM     10  C   UNL d   1      14.883  16.706  -2.461  0.00  0.00     0.002 A 
ENDROOT
BRANCH   1  11
ATOM     11  C   UNL d   1      14.163  13.203  -2.471  0.00  0.00     0.129 C 
BRANCH  11  12
ATOM     12  S   UNL d   1      13.533  13.230  -3.110  0.00  0.00     0.213 S 
ATOM     13  O   UNL d   1      12.803  13.702  -2.942  0.00  0.00    -0.217 OA
ATOM     14  O   UNL d   1      13.243  13.691  -2.479  0.00  0.00    -0.217 OA
BRANCH  12  15
ATOM     15  C   UNL d   1      13.486  12.889  -3.864  0.00  0.00     0.088 A 
ATOM     16  C   UNL d   1      13.099  12.157  -3.956  0.00  0.00     0.011 A 
ATOM     17  C   UNL d   1      13.048  11.809  -4.708  0.00  0.00     0.001 A 
ATOM     18  C   UNL d   1      12.769  11.779  -3.306  0.00  0.00     0.001 C 
ATOM     19  C   UNL d   1      13.384  12.195  -5.363  0.00  0.00     0.000 A 
ATOM     20  C   UNL d   1      13.769  12.926  -5.263  0.00  0.00     0.001 A 
ATOM     21  C   UNL d   1      13.817  13.266  -4.513  0.00  0.00     0.011 A 
ATOM     22  C   UNL d   1      14.100  13.304  -5.913  0.00  0.00     0.000 C 
ENDBRANCH  12  15
ENDBRANCH  11  12
BRANCH  11  23
ATOM     23  C   UNL d   1      14.393  12.393  -2.280  0.00  0.00     0.135 C 
ATOM     24  N   UNL d   1      14.763  11.785  -2.822  0.00  0.00    -0.146 N 
ENDBRANCH  11  23
ENDBRANCH   1  11
BRANCH   2  25
ATOM     25  N   UNL d   1      14.780  13.249  -0.939  0.00  0.00    -0.284 N 
ATOM     26  C   UNL d   1      15.475  12.789  -0.939  0.00  0.00     0.108 A 
ATOM     27  C   UNL d   1      15.510  12.102  -0.478  0.00  0.00     0.142 A 
ATOM     28  O   UNL d   1      14.863  11.866  -0.016  0.00  0.00    -0.300 OA
ATOM     29  C   UNL d   1      14.168  12.327  -0.016  0.00  0.00     0.142 A 
ATOM     30  C   UNL d   1      14.119  13.024  -0.478  0.00  0.00     0.108 A 
ENDBRANCH   2  25
TORSDOF 5
ENDMDL
