MODEL 1
REMARK VINA RESULT:      18.6      0.000      0.000
REMARK  2 active torsions:
REMARK  status: ('A' for Active; 'I' for Inactive)
REMARK    1  A    between atoms: O_3  and  C_1 
REMARK       I    between atoms: N_6  and  C_1 
REMARK    2  A    between atoms: C_5  and  O_3 
ROOT
ATOM      1  C   UNL d   1     -58.442 -98.756 -44.860  0.00  0.00     0.105 A 
ATOM      2  C   UNL d   1     -59.175 -98.757 -44.487  0.00  0.00     0.030 A 
ATOM      3  C   UNL d   1     -57.739 -98.756 -44.404  0.00  0.00     0.122 A 
ATOM      4  N   UNL d   1     -58.395 -98.757 -45.690  0.00  0.00    -0.242 NA
ATOM      5  C   UNL d   1     -59.219 -98.757 -43.662  0.00  0.00     0.059 A 
ATOM      6  C   UNL d   1     -57.784 -98.755 -43.585  0.00  0.00     0.027 A 
ATOM      7  C   UNL d   1     -58.516 -98.756 -43.206  0.00  0.00     0.013 A 
ATOM      8 CL   UNL d   1     -59.957 -98.757 -43.281  0.00  0.00    -0.082 Cl
ATOM      9  C   UNL d   1     -59.867 -98.758 -44.936  0.00  0.00     0.004 A 
ATOM     10  C   UNL d   1     -59.087 -98.758 -46.139  0.00  0.00     0.099 A 
ATOM     11  C   UNL d   1     -59.826 -98.758 -45.758  0.00  0.00     0.021 A 
ENDROOT
BRANCH   3  12
ATOM     12  O   UNL d   1     -56.994 -98.755 -44.781  0.00  0.00    -0.257 OA
BRANCH  12  13
ATOM     13  C   UNL d   1     -56.291 -98.799 -44.331  0.00  0.00     0.378 C 
ATOM     14  N   UNL d   1     -55.561 -98.824 -44.697  0.00  0.00    -0.249 N 
ATOM     15  C   UNL d   1     -54.870 -98.867 -44.248  0.00  0.00     0.104 C 
ATOM     16  C   UNL d   1     -55.512 -98.807 -45.522  0.00  0.00     0.104 C 
ATOM     17  O   UNL d   1     -56.341 -98.816 -43.496  0.00  0.00    -0.237 OA
ENDBRANCH  12  13
ENDBRANCH   3  12
TORSDOF 2
ENDMDL
