MODEL 1
REMARK VINA RESULT:      64.7      0.000      0.000
REMARK  4 active torsions:
REMARK  status: ('A' for Active; 'I' for Inactive)
REMARK    1  A    between atoms: N_8  and  S_1 
REMARK    2  A    between atoms: C_12  and  S_1 
REMARK    3  A    between atoms: C_5  and  C_9 
REMARK    4  A    between atoms: C_15  and  N_8 
ROOT
ATOM      1  C   UNL d   1     -48.328  28.944  35.001  0.00  0.00     0.021 A 
ATOM      2  C   UNL d   1     -47.555  30.142  34.989  0.00  0.00     0.094 A 
ATOM      3  C   UNL d   1     -48.032  29.596  34.598  0.00  0.00     0.021 A 
ATOM      4  C   UNL d   1     -48.153  28.822  35.801  0.00  0.00     0.002 A 
ATOM      5  C   UNL d   1     -47.671  29.371  36.198  0.00  0.00     0.002 A 
ATOM      6  C   UNL d   1     -47.368  30.034  35.797  0.00  0.00     0.020 A 
ENDROOT
BRANCH   2   7
ATOM      7  N   UNL d   1     -47.260  30.794  34.586  0.00  0.00    -0.158 NA
BRANCH   7   8
ATOM      8  S   UNL d   1     -47.402  31.552  34.875  0.00  0.00     0.285 S 
ATOM      9  O   UNL d   1     -47.297  31.495  35.692  0.00  0.00    -0.198 OA
ATOM     10  O   UNL d   1     -47.502  32.218  35.356  0.00  0.00    -0.198 OA
BRANCH   8  11
ATOM     11  C   UNL d   1     -47.601  32.158  34.350  0.00  0.00     0.105 A 
ATOM     12  C   UNL d   1     -47.035  32.463  33.839  0.00  0.00     0.013 A 
ATOM     13  C   UNL d   1     -47.235  33.065  33.318  0.00  0.00     0.001 A 
ATOM     14  C   UNL d   1     -48.010  33.366  33.307  0.00  0.00     0.000 A 
ATOM     15  C   UNL d   1     -48.573  33.050  33.828  0.00  0.00     0.001 A 
ATOM     16  C   UNL d   1     -48.370  32.453  34.343  0.00  0.00     0.013 A 
ENDBRANCH   8  11
ENDBRANCH   7   8
ENDBRANCH   2   7
BRANCH   1  17
ATOM     17  C   UNL d   1     -48.807  28.396  34.609  0.00  0.00     0.118 A 
ATOM     18  N   UNL d   1     -48.609  27.620  34.406  0.00  0.00    -0.059 NA
ATOM     19  C   UNL d   1     -49.252  27.283  34.024  0.00  0.00     0.735 A 
ATOM     20  N   UNL d   1     -49.364  26.525  33.703  0.00  0.00    -0.059 NA
ATOM     21  N   UNL d   1     -49.853  27.843  33.987  0.00  0.00    -0.136 N 
ATOM     22  C   UNL d   1     -50.081  26.335  33.346  0.00  0.00     0.119 A 
ATOM     23  C   UNL d   1     -50.685  26.893  33.306  0.00  0.00     0.041 A 
ATOM     24  C   UNL d   1     -50.576  27.643  33.623  0.00  0.00     0.100 A 
ATOM     25  C   UNL d   1     -49.582  28.533  34.347  0.00  0.00     0.118 A 
ENDBRANCH   1  17
TORSDOF 4
ENDMDL
MODEL 2
REMARK VINA RESULT:      67.0      2.395      5.415
REMARK  4 active torsions:
REMARK  status: ('A' for Active; 'I' for Inactive)
REMARK    1  A    between atoms: N_8  and  S_1 
REMARK    2  A    between atoms: C_12  and  S_1 
REMARK    3  A    between atoms: C_5  and  C_9 
REMARK    4  A    between atoms: C_15  and  N_8 
ROOT
ATOM      1  C   UNL d   1     -48.864  28.344  35.037  0.00  0.00     0.021 A 
ATOM      2  C   UNL d   1     -49.508  27.332  34.265  0.00  0.00     0.094 A 
ATOM      3  C   UNL d   1     -49.123  28.060  34.311  0.00  0.00     0.021 A 
ATOM      4  C   UNL d   1     -48.982  27.910  35.731  0.00  0.00     0.002 A 
ATOM      5  C   UNL d   1     -49.369  27.176  35.689  0.00  0.00     0.002 A 
ATOM      6  C   UNL d   1     -49.635  26.881  34.957  0.00  0.00     0.020 A 
ENDROOT
BRANCH   2   7
ATOM      7  N   UNL d   1     -49.767  27.049  33.539  0.00  0.00    -0.158 NA
BRANCH   7   8
ATOM      8  S   UNL d   1     -50.566  26.884  33.426  0.00  0.00     0.285 S 
ATOM      9  O   UNL d   1     -50.932  27.621  33.361  0.00  0.00    -0.198 OA
ATOM     10  O   UNL d   1     -51.384  26.935  33.307  0.00  0.00    -0.198 OA
BRANCH   8  11
ATOM     11  C   UNL d   1     -50.820  26.098  33.403  0.00  0.00     0.105 A 
ATOM     12  C   UNL d   1     -50.273  25.490  33.334  0.00  0.00     0.013 A 
ATOM     13  C   UNL d   1     -50.528  24.710  33.311  0.00  0.00     0.001 A 
ATOM     14  C   UNL d   1     -51.340  24.536  33.359  0.00  0.00     0.000 A 
ATOM     15  C   UNL d   1     -51.883  25.158  33.429  0.00  0.00     0.001 A 
ATOM     16  C   UNL d   1     -51.626  25.931  33.451  0.00  0.00     0.013 A 
ENDBRANCH   8  11
ENDBRANCH   7   8
ENDBRANCH   2   7
BRANCH   1  17
ATOM     17  C   UNL d   1     -48.478  29.074  35.083  0.00  0.00     0.118 A 
ATOM     18  N   UNL d   1     -47.959  29.323  35.674  0.00  0.00    -0.059 NA
ATOM     19  C   UNL d   1     -47.710  30.085  35.494  0.00  0.00     0.735 A 
ATOM     20  N   UNL d   1     -47.193  30.601  35.888  0.00  0.00    -0.059 NA
ATOM     21  N   UNL d   1     -48.072  30.314  34.791  0.00  0.00    -0.136 N 
ATOM     22  C   UNL d   1     -47.043  31.347  35.573  0.00  0.00     0.119 A 
ATOM     23  C   UNL d   1     -47.403  31.581  34.870  0.00  0.00     0.041 A 
ATOM     24  C   UNL d   1     -47.915  31.070  34.479  0.00  0.00     0.100 A 
ATOM     25  C   UNL d   1     -48.548  29.692  34.534  0.00  0.00     0.118 A 
ENDBRANCH   1  17
TORSDOF 4
ENDMDL
MODEL 3
REMARK VINA RESULT:      67.2      1.981      5.135
REMARK  4 active torsions:
REMARK  status: ('A' for Active; 'I' for Inactive)
REMARK    1  A    between atoms: N_8  and  S_1 
REMARK    2  A    between atoms: C_12  and  S_1 
REMARK    3  A    between atoms: C_5  and  C_9 
REMARK    4  A    between atoms: C_15  and  N_8 
ROOT
ATOM      1  C   UNL d   1     -48.330  29.545  34.787  0.00  0.00     0.021 A 
ATOM      2  C   UNL d   1     -49.149  28.418  34.481  0.00  0.00     0.094 A 
ATOM      3  C   UNL d   1     -48.950  29.208  34.364  0.00  0.00     0.021 A 
ATOM      4  C   UNL d   1     -47.898  29.100  35.335  0.00  0.00     0.002 A 
ATOM      5  C   UNL d   1     -48.097  28.303  35.456  0.00  0.00     0.002 A 
ATOM      6  C   UNL d   1     -48.723  27.954  35.031  0.00  0.00     0.020 A 
ENDROOT
BRANCH   2   7
ATOM      7  N   UNL d   1     -49.768  28.083  34.058  0.00  0.00    -0.158 NA
BRANCH   7   8
ATOM      8  S   UNL d   1     -49.676  27.336  33.722  0.00  0.00     0.285 S 
ATOM      9  O   UNL d   1     -48.864  27.251  33.602  0.00  0.00    -0.198 OA
ATOM     10  O   UNL d   1     -49.373  26.642  33.387  0.00  0.00    -0.198 OA
BRANCH   8  11
ATOM     11  C   UNL d   1     -50.341  26.867  33.583  0.00  0.00     0.105 A 
ATOM     12  C   UNL d   1     -51.080  27.215  33.497  0.00  0.00     0.013 A 
ATOM     13  C   UNL d   1     -51.740  26.746  33.359  0.00  0.00     0.001 A 
ATOM     14  C   UNL d   1     -51.660  25.919  33.307  0.00  0.00     0.000 A 
ATOM     15  C   UNL d   1     -50.909  25.580  33.396  0.00  0.00     0.001 A 
ATOM     16  C   UNL d   1     -50.257  26.049  33.532  0.00  0.00     0.013 A 
ENDBRANCH   8  11
ENDBRANCH   7   8
ENDBRANCH   2   7
BRANCH   1  17
ATOM     17  C   UNL d   1     -48.130  30.338  34.668  0.00  0.00     0.118 A 
ATOM     18  N   UNL d   1     -47.538  30.763  35.057  0.00  0.00    -0.059 NA
ATOM     19  C   UNL d   1     -47.537  31.529  34.764  0.00  0.00     0.735 A 
ATOM     20  N   UNL d   1     -47.065  32.187  34.950  0.00  0.00    -0.059 NA
ATOM     21  N   UNL d   1     -48.126  31.588  34.192  0.00  0.00    -0.136 N 
ATOM     22  C   UNL d   1     -47.191  32.902  34.560  0.00  0.00     0.119 A 
ATOM     23  C   UNL d   1     -47.779  32.965  33.987  0.00  0.00     0.041 A 
ATOM     24  C   UNL d   1     -48.245  32.314  33.803  0.00  0.00     0.100 A 
ATOM     25  C   UNL d   1     -48.495  30.853  34.131  0.00  0.00     0.118 A 
ENDBRANCH   1  17
TORSDOF 4
ENDMDL
MODEL 4
REMARK VINA RESULT:      67.2      2.514      4.269
REMARK  4 active torsions:
REMARK  status: ('A' for Active; 'I' for Inactive)
REMARK    1  A    between atoms: N_8  and  S_1 
REMARK    2  A    between atoms: C_12  and  S_1 
REMARK    3  A    between atoms: C_5  and  C_9 
REMARK    4  A    between atoms: C_15  and  N_8 
ROOT
ATOM      1  C   UNL d   1     -50.403  25.647  33.603  0.00  0.00     0.021 A 
ATOM      2  C   UNL d   1     -49.798  26.875  33.999  0.00  0.00     0.094 A 
ATOM      3  C   UNL d   1     -50.463  26.393  33.943  0.00  0.00     0.021 A 
ATOM      4  C   UNL d   1     -49.681  25.368  33.313  0.00  0.00     0.002 A 
ATOM      5  C   UNL d   1     -49.008  25.851  33.368  0.00  0.00     0.002 A 
ATOM      6  C   UNL d   1     -49.059  26.608  33.711  0.00  0.00     0.020 A 
ENDROOT
BRANCH   2   7
ATOM      7  N   UNL d   1     -49.858  27.621  34.339  0.00  0.00    -0.158 NA
BRANCH   7   8
ATOM      8  S   UNL d   1     -49.330  28.214  34.120  0.00  0.00     0.285 S 
ATOM      9  O   UNL d   1     -49.438  28.308  33.306  0.00  0.00    -0.198 OA
ATOM     10  O   UNL d   1     -48.885  28.773  33.702  0.00  0.00    -0.198 OA
BRANCH   8  11
ATOM     11  C   UNL d   1     -48.848  28.563  34.692  0.00  0.00     0.105 A 
ATOM     12  C   UNL d   1     -48.282  28.114  35.083  0.00  0.00     0.013 A 
ATOM     13  C   UNL d   1     -47.804  28.463  35.652  0.00  0.00     0.001 A 
ATOM     14  C   UNL d   1     -47.892  29.270  35.832  0.00  0.00     0.000 A 
ATOM     15  C   UNL d   1     -48.466  29.713  35.430  0.00  0.00     0.001 A 
ATOM     16  C   UNL d   1     -48.939  29.363  34.867  0.00  0.00     0.013 A 
ENDBRANCH   8  11
ENDBRANCH   7   8
ENDBRANCH   2   7
BRANCH   1  17
ATOM     17  C   UNL d   1     -51.071  25.163  33.546  0.00  0.00     0.118 A 
ATOM     18  N   UNL d   1     -51.861  25.400  33.593  0.00  0.00    -0.059 NA
ATOM     19  C   UNL d   1     -52.335  24.736  33.507  0.00  0.00     0.735 A 
ATOM     20  N   UNL d   1     -53.161  24.647  33.509  0.00  0.00    -0.059 NA
ATOM     21  N   UNL d   1     -51.846  24.081  33.407  0.00  0.00    -0.136 N 
ATOM     22  C   UNL d   1     -53.490  23.898  33.409  0.00  0.00     0.119 A 
ATOM     23  C   UNL d   1     -53.004  23.241  33.309  0.00  0.00     0.041 A 
ATOM     24  C   UNL d   1     -52.187  23.328  33.307  0.00  0.00     0.100 A 
ATOM     25  C   UNL d   1     -51.064  24.342  33.431  0.00  0.00     0.118 A 
ENDBRANCH   1  17
TORSDOF 4
ENDMDL
