MODEL 1
REMARK VINA RESULT:      16.2      0.000      0.000
REMARK  10 active torsions:
REMARK  status: ('A' for Active; 'I' for Inactive)
REMARK    1  A    between atoms: C_2  and  S_1 
REMARK    2  A    between atoms: N_3  and  S_1 
REMARK    3  A    between atoms: C_19  and  N_3 
REMARK    4  A    between atoms: C_4  and  C_8 
REMARK       I    between atoms: N_14  and  C_4 
REMARK    5  A    between atoms: O_27  and  C_7 
REMARK    6  A    between atoms: O_28  and  C_11 
REMARK    7  A    between atoms: C_29  and  N_14 
REMARK    8  A    between atoms: C_22  and  C_19 
REMARK    9  A    between atoms: C_21  and  C_30 
REMARK   10  A    between atoms: C_30  and  C_29 
ROOT
ATOM      1  C   UNL d   1     -41.287-122.684 -51.275  0.00  0.00     0.058 A 
ATOM      2  C   UNL d   1     -41.369-122.025 -51.757  0.00  0.00     0.005 A 
ATOM      3  C   UNL d   1     -41.272-123.442 -51.617  0.00  0.00     0.005 A 
ATOM      4  C   UNL d   1     -41.421-122.871 -52.915  0.00  0.00     0.020 A 
ATOM      5  C   UNL d   1     -41.436-122.120 -52.583  0.00  0.00     0.002 A 
ATOM      6  C   UNL d   1     -41.340-123.530 -52.438  0.00  0.00     0.002 A 
ENDROOT
BRANCH   1   7
ATOM      7  C   UNL d   1     -41.220-122.599 -50.463  0.00  0.00     0.279 C 
ATOM      8  O   UNL d   1     -41.179-121.840 -50.131  0.00  0.00    -0.265 OA
ATOM      9  N   UNL d   1     -41.192-123.262 -49.979  0.00  0.00    -0.206 NA
BRANCH   9  10
ATOM     10  C   UNL d   1     -41.125-123.172 -49.161  0.00  0.00     0.102 C 
BRANCH  10  11
ATOM     11  C   UNL d   1     -41.342-123.789 -48.673  0.00  0.00     0.021 C 
BRANCH  11  12
ATOM     12  C   UNL d   1     -41.993-123.711 -48.193  0.00  0.00     0.004 A 
ATOM     13  C   UNL d   1     -42.742-123.581 -48.515  0.00  0.00     0.026 A 
ATOM     14  C   UNL d   1     -43.391-123.504 -48.026  0.00  0.00     0.116 A 
ATOM     15  C   UNL d   1     -43.298-123.558 -47.199  0.00  0.00     0.116 A 
ATOM     16  C   UNL d   1     -42.562-123.687 -46.878  0.00  0.00     0.026 A 
ATOM     17  C   UNL d   1     -41.904-123.764 -47.375  0.00  0.00     0.002 A 
BRANCH  14  18
ATOM     18  O   UNL d   1     -44.138-123.374 -48.351  0.00  0.00    -0.326 OA
ATOM     19  C   UNL d   1     -44.524-123.816 -48.998  0.00  0.00     0.181 C 
ENDBRANCH  14  18
BRANCH  15  20
ATOM     20  O   UNL d   1     -43.931-123.485 -46.699  0.00  0.00    -0.326 OA
ATOM     21  C   UNL d   1     -44.607-123.111 -46.946  0.00  0.00     0.181 C 
ENDBRANCH  15  20
ENDBRANCH  11  12
ENDBRANCH  10  11
ENDBRANCH   9  10
ENDBRANCH   1   7
BRANCH   4  22
ATOM     22  C   UNL d   1     -41.489-122.959 -53.736  0.00  0.00     0.112 C 
BRANCH  22  23
ATOM     23  N   UNL d   1     -42.152-122.679 -54.116  0.00  0.00    -0.157 NA
BRANCH  23  24
ATOM     24  S   UNL d   1     -42.076-122.276 -54.842  0.00  0.00     0.285 S 
ATOM     25  O   UNL d   1     -41.257-122.266 -54.747  0.00  0.00    -0.198 OA
ATOM     26  O   UNL d   1     -42.897-122.289 -54.931  0.00  0.00    -0.198 OA
BRANCH  24  27
ATOM     27  C   UNL d   1     -42.011-121.880 -55.556  0.00  0.00     0.105 A 
ATOM     28  C   UNL d   1     -42.155-122.267 -56.259  0.00  0.00     0.012 A 
ATOM     29  C   UNL d   1     -42.088-121.863 -56.979  0.00  0.00     0.001 A 
ATOM     30  C   UNL d   1     -42.369-123.070 -56.244  0.00  0.00     0.001 C 
ATOM     31  C   UNL d   1     -41.875-121.063 -56.989  0.00  0.00     0.000 A 
ATOM     32  C   UNL d   1     -41.729-120.668 -56.275  0.00  0.00     0.001 A 
ATOM     33  C   UNL d   1     -41.796-121.076 -55.554  0.00  0.00     0.013 A 
ATOM     34  C   UNL d   1     -41.517-119.875 -56.279  0.00  0.00     0.000 C 
ENDBRANCH  24  27
ENDBRANCH  23  24
ENDBRANCH  22  23
ENDBRANCH   4  22
TORSDOF 10
ENDMDL
MODEL 2
REMARK VINA RESULT:      18.9      0.975      1.474
REMARK  10 active torsions:
REMARK  status: ('A' for Active; 'I' for Inactive)
REMARK    1  A    between atoms: C_2  and  S_1 
REMARK    2  A    between atoms: N_3  and  S_1 
REMARK    3  A    between atoms: C_19  and  N_3 
REMARK    4  A    between atoms: C_4  and  C_8 
REMARK       I    between atoms: N_14  and  C_4 
REMARK    5  A    between atoms: O_27  and  C_7 
REMARK    6  A    between atoms: O_28  and  C_11 
REMARK    7  A    between atoms: C_29  and  N_14 
REMARK    8  A    between atoms: C_22  and  C_19 
REMARK    9  A    between atoms: C_21  and  C_30 
REMARK   10  A    between atoms: C_30  and  C_29 
ROOT
ATOM      1  C   UNL d   1     -41.382-122.701 -52.139  0.00  0.00     0.058 A 
ATOM      2  C   UNL d   1     -41.485-121.950 -52.452  0.00  0.00     0.005 A 
ATOM      3  C   UNL d   1     -41.200-123.334 -52.647  0.00  0.00     0.005 A 
ATOM      4  C   UNL d   1     -41.228-122.456 -53.770  0.00  0.00     0.020 A 
ATOM      5  C   UNL d   1     -41.407-121.827 -53.273  0.00  0.00     0.002 A 
ATOM      6  C   UNL d   1     -41.124-123.207 -53.462  0.00  0.00     0.002 A 
ENDROOT
BRANCH   1   7
ATOM      7  C   UNL d   1     -41.457-122.830 -51.334  0.00  0.00     0.279 C 
ATOM      8  O   UNL d   1     -41.829-123.518 -51.060  0.00  0.00    -0.265 OA
ATOM      9  N   UNL d   1     -41.164-122.279 -50.798  0.00  0.00    -0.206 NA
BRANCH   9  10
ATOM     10  C   UNL d   1     -41.242-122.413 -49.988  0.00  0.00     0.102 C 
BRANCH  10  11
ATOM     11  C   UNL d   1     -41.568-123.115 -49.730  0.00  0.00     0.021 C 
BRANCH  11  12
ATOM     12  C   UNL d   1     -42.051-123.118 -49.075  0.00  0.00     0.004 A 
ATOM     13  C   UNL d   1     -41.760-122.891 -48.336  0.00  0.00     0.026 A 
ATOM     14  C   UNL d   1     -42.251-122.897 -47.684  0.00  0.00     0.116 A 
ATOM     15  C   UNL d   1     -43.047-123.131 -47.763  0.00  0.00     0.116 A 
ATOM     16  C   UNL d   1     -43.336-123.355 -48.490  0.00  0.00     0.026 A 
ATOM     17  C   UNL d   1     -42.838-123.349 -49.151  0.00  0.00     0.002 A 
BRANCH  14  18
ATOM     18  O   UNL d   1     -41.957-122.669 -46.947  0.00  0.00    -0.326 OA
ATOM     19  C   UNL d   1     -41.127-122.678 -46.676  0.00  0.00     0.181 C 
ENDBRANCH  14  18
BRANCH  15  20
ATOM     20  O   UNL d   1     -43.547-123.142 -47.126  0.00  0.00    -0.326 OA
ATOM     21  C   UNL d   1     -43.960-123.815 -46.940  0.00  0.00     0.181 C 
ENDBRANCH  15  20
ENDBRANCH  11  12
ENDBRANCH  10  11
ENDBRANCH   9  10
ENDBRANCH   1   7
BRANCH   4  22
ATOM     22  C   UNL d   1     -41.151-122.329 -54.585  0.00  0.00     0.112 C 
BRANCH  22  23
ATOM     23  N   UNL d   1     -41.745-122.571 -55.086  0.00  0.00    -0.157 NA
BRANCH  23  24
ATOM     24  S   UNL d   1     -41.951-122.103 -55.745  0.00  0.00     0.285 S 
ATOM     25  O   UNL d   1     -42.748-122.249 -55.595  0.00  0.00    -0.198 OA
ATOM     26  O   UNL d   1     -41.151-121.960 -55.889  0.00  0.00    -0.198 OA
BRANCH  24  27
ATOM     27  C   UNL d   1     -42.144-121.641 -56.393  0.00  0.00     0.105 A 
ATOM     28  C   UNL d   1     -42.846-121.759 -56.791  0.00  0.00     0.012 A 
ATOM     29  C   UNL d   1     -43.038-121.290 -57.446  0.00  0.00     0.001 A 
ATOM     30  C   UNL d   1     -43.365-122.354 -56.531  0.00  0.00     0.001 C 
ATOM     31  C   UNL d   1     -42.517-120.699 -57.702  0.00  0.00     0.000 A 
ATOM     32  C   UNL d   1     -41.803-120.578 -57.298  0.00  0.00     0.001 A 
ATOM     33  C   UNL d   1     -41.613-121.050 -56.641  0.00  0.00     0.013 A 
ATOM     34  C   UNL d   1     -41.283-119.993 -57.547  0.00  0.00     0.000 C 
ENDBRANCH  24  27
ENDBRANCH  23  24
ENDBRANCH  22  23
ENDBRANCH   4  22
TORSDOF 10
ENDMDL
