MODEL 1
REMARK VINA RESULT:      -7.5      0.000      0.000
REMARK  3 active torsions:
REMARK  status: ('A' for Active; 'I' for Inactive)
REMARK    1  A    between atoms: N_6  and  C_1 
REMARK    2  A    between atoms: C_14  and  N_4 
REMARK    3  A    between atoms: C_7  and  N_6 
ROOT
ATOM      1  C   UNL d   1     -47.899  13.632  22.124  0.00  0.00     0.157 A 
ATOM      2  C   UNL d   1     -48.324  14.110  22.647  0.00  0.00     0.298 A 
ATOM      3  N   UNL d   1     -49.142  13.460  21.877  0.00  0.00    -0.238 N 
ATOM      4  N   UNL d   1     -49.092  14.012  22.504  0.00  0.00    -0.209 N 
ATOM      5  C   UNL d   1     -48.386  13.269  21.693  0.00  0.00     0.104 A 
ATOM      6  O   UNL d   1     -47.996  14.611  23.228  0.00  0.00    -0.263 OA
ATOM      7  C   UNL d   1     -49.818  13.148  21.495  0.00  0.00     0.120 C 
ATOM      8  C   UNL d   1     -48.188  12.753  21.116  0.00  0.00     0.022 C 
ENDROOT
BRANCH   1   9
ATOM      9  N   UNL d   1     -47.082  13.554  22.070  0.00  0.00    -0.239 NA
BRANCH   9  10
ATOM     10  C   UNL d   1     -46.710  12.959  22.467  0.00  0.00     0.082 A 
ATOM     11  C   UNL d   1     -45.884  12.810  22.367  0.00  0.00     0.021 A 
ATOM     12  C   UNL d   1     -45.500  12.208  22.767  0.00  0.00     0.040 A 
ATOM     13  C   UNL d   1     -45.461  13.286  21.851  0.00  0.00     0.002 A 
ATOM     14  C   UNL d   1     -44.696  12.072  22.661  0.00  0.00     0.003 A 
ATOM     15  C   UNL d   1     -45.923  11.732  23.282  0.00  0.00     0.196 A 
ATOM     16  C   UNL d   1     -44.285  12.561  22.137  0.00  0.00     0.000 A 
ATOM     17  C   UNL d   1     -44.658  13.161  21.736  0.00  0.00     0.000 A 
ATOM     18  C   UNL d   1     -46.730  11.859  23.397  0.00  0.00     0.044 A 
ATOM     19  O   UNL d   1     -45.515  11.105  23.698  0.00  0.00    -0.287 OA
ATOM     20  C   UNL d   1     -47.128  12.490  22.976  0.00  0.00     0.022 A 
ENDBRANCH   9  10
ENDBRANCH   1   9
BRANCH   4  21
ATOM     21  C   UNL d   1     -49.708  14.383  22.898  0.00  0.00     0.085 A 
ATOM     22  C   UNL d   1     -49.740  15.224  22.917  0.00  0.00     0.019 A 
ATOM     23  C   UNL d   1     -50.360  15.610  23.313  0.00  0.00     0.002 A 
ATOM     24  C   UNL d   1     -50.959  15.179  23.697  0.00  0.00     0.000 A 
ATOM     25  C   UNL d   1     -50.936  14.343  23.684  0.00  0.00     0.002 A 
ATOM     26  C   UNL d   1     -50.312  13.963  23.285  0.00  0.00     0.019 A 
ENDBRANCH   4  21
TORSDOF 3
ENDMDL
MODEL 2
REMARK VINA RESULT:      -7.3      1.167      4.579
REMARK  3 active torsions:
REMARK  status: ('A' for Active; 'I' for Inactive)
REMARK    1  A    between atoms: N_6  and  C_1 
REMARK    2  A    between atoms: C_14  and  N_4 
REMARK    3  A    between atoms: C_7  and  N_6 
ROOT
ATOM      1  C   UNL d   1     -47.570  13.912  22.934  0.00  0.00     0.157 A 
ATOM      2  C   UNL d   1     -47.553  13.150  23.252  0.00  0.00     0.298 A 
ATOM      3  N   UNL d   1     -46.445  13.392  22.622  0.00  0.00    -0.238 N 
ATOM      4  N   UNL d   1     -46.863  12.820  23.066  0.00  0.00    -0.209 N 
ATOM      5  C   UNL d   1     -46.927  14.030  22.578  0.00  0.00     0.104 A 
ATOM      6  O   UNL d   1     -48.161  12.791  23.695  0.00  0.00    -0.263 OA
ATOM      7  C   UNL d   1     -45.682  13.347  22.280  0.00  0.00     0.120 C 
ATOM      8  C   UNL d   1     -46.734  14.705  22.197  0.00  0.00     0.022 C 
ENDROOT
BRANCH   1   9
ATOM      9  N   UNL d   1     -48.179  14.462  22.987  0.00  0.00    -0.239 NA
BRANCH   9  10
ATOM     10  C   UNL d   1     -48.862  14.344  22.576  0.00  0.00     0.082 A 
ATOM     11  C   UNL d   1     -49.585  14.719  22.803  0.00  0.00     0.021 A 
ATOM     12  C   UNL d   1     -50.283  14.603  22.390  0.00  0.00     0.040 A 
ATOM     13  C   UNL d   1     -49.580  15.212  23.457  0.00  0.00     0.002 A 
ATOM     14  C   UNL d   1     -50.980  14.974  22.620  0.00  0.00     0.003 A 
ATOM     15  C   UNL d   1     -50.287  14.110  21.736  0.00  0.00     0.196 A 
ATOM     16  C   UNL d   1     -50.957  15.468  23.282  0.00  0.00     0.000 A 
ATOM     17  C   UNL d   1     -50.270  15.589  23.697  0.00  0.00     0.000 A 
ATOM     18  C   UNL d   1     -49.594  13.733  21.496  0.00  0.00     0.044 A 
ATOM     19  O   UNL d   1     -51.020  13.993  21.309  0.00  0.00    -0.287 OA
ATOM     20  C   UNL d   1     -48.866  13.857  21.931  0.00  0.00     0.022 A 
ENDBRANCH   9  10
ENDBRANCH   1   9
BRANCH   4  21
ATOM     21  C   UNL d   1     -46.617  12.065  23.273  0.00  0.00     0.085 A 
ATOM     22  C   UNL d   1     -47.191  11.461  23.392  0.00  0.00     0.019 A 
ATOM     23  C   UNL d   1     -46.953  10.693  23.602  0.00  0.00     0.002 A 
ATOM     24  C   UNL d   1     -46.149  10.504  23.698  0.00  0.00     0.000 A 
ATOM     25  C   UNL d   1     -45.571  11.097  23.582  0.00  0.00     0.002 A 
ATOM     26  C   UNL d   1     -45.817  11.864  23.372  0.00  0.00     0.019 A 
ENDBRANCH   4  21
TORSDOF 3
ENDMDL
MODEL 3
REMARK VINA RESULT:      -6.7      7.662      9.661
REMARK  3 active torsions:
REMARK  status: ('A' for Active; 'I' for Inactive)
REMARK    1  A    between atoms: N_6  and  C_1 
REMARK    2  A    between atoms: C_14  and  N_4 
REMARK    3  A    between atoms: C_7  and  N_6 
ROOT
ATOM      1  C   UNL d   1     -39.853  14.901  19.092  0.00  0.00     0.157 A 
ATOM      2  C   UNL d   1     -39.363  15.086  19.730  0.00  0.00     0.298 A 
ATOM      3  N   UNL d   1     -40.506  14.654  20.163  0.00  0.00    -0.238 N 
ATOM      4  N   UNL d   1     -39.755  14.938  20.396  0.00  0.00    -0.209 N 
ATOM      5  C   UNL d   1     -40.502  14.655  19.362  0.00  0.00     0.104 A 
ATOM      6  O   UNL d   1     -38.584  15.381  19.679  0.00  0.00    -0.263 OA
ATOM      7  C   UNL d   1     -41.153  14.409  20.636  0.00  0.00     0.120 C 
ATOM      8  C   UNL d   1     -41.122  14.421  18.916  0.00  0.00     0.022 C 
ENDROOT
BRANCH   1   9
ATOM      9  N   UNL d   1     -39.678  14.968  18.292  0.00  0.00    -0.239 NA
BRANCH   9  10
ATOM     10  C   UNL d   1     -39.260  14.385  17.924  0.00  0.00     0.082 A 
ATOM     11  C   UNL d   1     -38.889  14.513  17.175  0.00  0.00     0.021 A 
ATOM     12  C   UNL d   1     -38.462  13.925  16.796  0.00  0.00     0.040 A 
ATOM     13  C   UNL d   1     -38.962  15.249  16.824  0.00  0.00     0.002 A 
ATOM     14  C   UNL d   1     -38.106  14.061  16.067  0.00  0.00     0.003 A 
ATOM     15  C   UNL d   1     -38.389  13.190  17.148  0.00  0.00     0.196 A 
ATOM     16  C   UNL d   1     -38.190  14.809  15.727  0.00  0.00     0.000 A 
ATOM     17  C   UNL d   1     -38.611  15.398  16.096  0.00  0.00     0.000 A 
ATOM     18  C   UNL d   1     -38.742  13.042  17.878  0.00  0.00     0.044 A 
ATOM     19  O   UNL d   1     -37.941  12.580  16.746  0.00  0.00    -0.287 OA
ATOM     20  C   UNL d   1     -39.187  13.659  18.271  0.00  0.00     0.022 A 
ENDBRANCH   9  10
ENDBRANCH   1   9
BRANCH   4  21
ATOM     21  C   UNL d   1     -39.472  15.044  21.159  0.00  0.00     0.085 A 
ATOM     22  C   UNL d   1     -39.539  15.800  21.523  0.00  0.00     0.019 A 
ATOM     23  C   UNL d   1     -39.255  15.920  22.294  0.00  0.00     0.002 A 
ATOM     24  C   UNL d   1     -38.902  15.300  22.722  0.00  0.00     0.000 A 
ATOM     25  C   UNL d   1     -38.830  14.546  22.370  0.00  0.00     0.002 A 
ATOM     26  C   UNL d   1     -39.116  14.434  21.596  0.00  0.00     0.019 A 
ENDBRANCH   4  21
TORSDOF 3
ENDMDL
MODEL 4
REMARK VINA RESULT:      -6.4      8.301      9.780
REMARK  3 active torsions:
REMARK  status: ('A' for Active; 'I' for Inactive)
REMARK    1  A    between atoms: N_6  and  C_1 
REMARK    2  A    between atoms: C_14  and  N_4 
REMARK    3  A    between atoms: C_7  and  N_6 
ROOT
ATOM      1  C   UNL d   1     -39.537  15.482  19.218  0.00  0.00     0.157 A 
ATOM      2  C   UNL d   1     -39.001  15.141  18.691  0.00  0.00     0.298 A 
ATOM      3  N   UNL d   1     -40.130  15.361  18.092  0.00  0.00    -0.238 N 
ATOM      4  N   UNL d   1     -39.355  15.062  17.993  0.00  0.00    -0.209 N 
ATOM      5  C   UNL d   1     -40.177  15.599  18.855  0.00  0.00     0.104 A 
ATOM      6  O   UNL d   1     -38.216  14.919  18.867  0.00  0.00    -0.263 OA
ATOM      7  C   UNL d   1     -40.754  15.417  17.536  0.00  0.00     0.120 C 
ATOM      8  C   UNL d   1     -40.832  15.922  19.179  0.00  0.00     0.022 C 
ENDROOT
BRANCH   1   9
ATOM      9  N   UNL d   1     -39.411  15.667  20.009  0.00  0.00    -0.239 NA
BRANCH   9  10
ATOM     10  C   UNL d   1     -39.459  15.089  20.568  0.00  0.00     0.082 A 
ATOM     11  C   UNL d   1     -39.059  15.157  21.310  0.00  0.00     0.021 A 
ATOM     12  C   UNL d   1     -39.104  14.574  21.883  0.00  0.00     0.040 A 
ATOM     13  C   UNL d   1     -38.616  15.831  21.454  0.00  0.00     0.002 A 
ATOM     14  C   UNL d   1     -38.711  14.651  22.601  0.00  0.00     0.003 A 
ATOM     15  C   UNL d   1     -39.548  13.901  21.739  0.00  0.00     0.196 A 
ATOM     16  C   UNL d   1     -38.268  15.337  22.729  0.00  0.00     0.000 A 
ATOM     17  C   UNL d   1     -38.218  15.921  22.167  0.00  0.00     0.000 A 
ATOM     18  C   UNL d   1     -39.947  13.812  21.022  0.00  0.00     0.044 A 
ATOM     19  O   UNL d   1     -39.590  13.295  22.343  0.00  0.00    -0.287 OA
ATOM     20  C   UNL d   1     -39.897  14.425  20.427  0.00  0.00     0.022 A 
ENDBRANCH   9  10
ENDBRANCH   1   9
BRANCH   4  21
ATOM     21  C   UNL d   1     -39.020  14.748  17.313  0.00  0.00     0.085 A 
ATOM     22  C   UNL d   1     -38.664  15.263  16.751  0.00  0.00     0.019 A 
ATOM     23  C   UNL d   1     -38.322  14.956  16.059  0.00  0.00     0.002 A 
ATOM     24  C   UNL d   1     -38.324  14.138  15.907  0.00  0.00     0.000 A 
ATOM     25  C   UNL d   1     -38.675  13.618  16.458  0.00  0.00     0.002 A 
ATOM     26  C   UNL d   1     -39.016  13.933  17.149  0.00  0.00     0.019 A 
ENDBRANCH   4  21
TORSDOF 3
ENDMDL
MODEL 5
REMARK VINA RESULT:      -6.4      1.565      4.507
REMARK  3 active torsions:
REMARK  status: ('A' for Active; 'I' for Inactive)
REMARK    1  A    between atoms: N_6  and  C_1 
REMARK    2  A    between atoms: C_14  and  N_4 
REMARK    3  A    between atoms: C_7  and  N_6 
ROOT
ATOM      1  C   UNL d   1     -47.386  13.563  22.366  0.00  0.00     0.157 A 
ATOM      2  C   UNL d   1     -46.785  13.073  22.084  0.00  0.00     0.298 A 
ATOM      3  N   UNL d   1     -46.288  13.968  22.880  0.00  0.00    -0.238 N 
ATOM      4  N   UNL d   1     -46.103  13.313  22.395  0.00  0.00    -0.209 N 
ATOM      5  C   UNL d   1     -47.080  14.069  22.819  0.00  0.00     0.104 A 
ATOM      6  O   UNL d   1     -46.882  12.431  21.560  0.00  0.00    -0.263 OA
ATOM      7  C   UNL d   1     -45.781  14.445  23.347  0.00  0.00     0.120 C 
ATOM      8  C   UNL d   1     -47.484  14.643  23.201  0.00  0.00     0.022 C 
ENDROOT
BRANCH   1   9
ATOM      9  N   UNL d   1     -48.188  13.522  22.191  0.00  0.00    -0.239 NA
BRANCH   9  10
ATOM     10  C   UNL d   1     -48.650  12.974  22.559  0.00  0.00     0.082 A 
ATOM     11  C   UNL d   1     -49.466  12.879  22.361  0.00  0.00     0.021 A 
ATOM     12  C   UNL d   1     -49.942  12.324  22.731  0.00  0.00     0.040 A 
ATOM     13  C   UNL d   1     -49.786  13.360  21.780  0.00  0.00     0.002 A 
ATOM     14  C   UNL d   1     -50.735  12.241  22.530  0.00  0.00     0.003 A 
ATOM     15  C   UNL d   1     -49.622  11.843  23.312  0.00  0.00     0.196 A 
ATOM     16  C   UNL d   1     -51.040  12.734  21.942  0.00  0.00     0.000 A 
ATOM     17  C   UNL d   1     -50.577  13.287  21.570  0.00  0.00     0.000 A 
ATOM     18  C   UNL d   1     -48.828  11.918  23.522  0.00  0.00     0.044 A 
ATOM     19  O   UNL d   1     -50.125  11.265  23.695  0.00  0.00    -0.287 OA
ATOM     20  C   UNL d   1     -48.335  12.499  23.132  0.00  0.00     0.022 A 
ENDBRANCH   9  10
ENDBRANCH   1   9
BRANCH   4  21
ATOM     21  C   UNL d   1     -45.365  12.978  22.261  0.00  0.00     0.085 A 
ATOM     22  C   UNL d   1     -45.106  12.342  22.748  0.00  0.00     0.019 A 
ATOM     23  C   UNL d   1     -44.361  11.996  22.621  0.00  0.00     0.002 A 
ATOM     24  C   UNL d   1     -43.859  12.266  22.016  0.00  0.00     0.000 A 
ATOM     25  C   UNL d   1     -44.108  12.897  21.527  0.00  0.00     0.002 A 
ATOM     26  C   UNL d   1     -44.855  13.239  21.660  0.00  0.00     0.019 A 
ENDBRANCH   4  21
TORSDOF 3
ENDMDL
MODEL 6
REMARK VINA RESULT:      -6.3      7.999      9.629
REMARK  3 active torsions:
REMARK  status: ('A' for Active; 'I' for Inactive)
REMARK    1  A    between atoms: N_6  and  C_1 
REMARK    2  A    between atoms: C_14  and  N_4 
REMARK    3  A    between atoms: C_7  and  N_6 
ROOT
ATOM      1  C   UNL d   1     -39.530  14.812  19.984  0.00  0.00     0.157 A 
ATOM      2  C   UNL d   1     -38.976  14.693  19.383  0.00  0.00     0.298 A 
ATOM      3  N   UNL d   1     -40.160  14.374  18.960  0.00  0.00    -0.238 N 
ATOM      4  N   UNL d   1     -39.352  14.423  18.747  0.00  0.00    -0.209 N 
ATOM      5  C   UNL d   1     -40.201  14.623  19.720  0.00  0.00     0.104 A 
ATOM      6  O   UNL d   1     -38.155  14.835  19.440  0.00  0.00    -0.263 OA
ATOM      7  C   UNL d   1     -40.816  14.123  18.505  0.00  0.00     0.120 C 
ATOM      8  C   UNL d   1     -40.881  14.662  20.137  0.00  0.00     0.022 C 
ENDROOT
BRANCH   1   9
ATOM      9  N   UNL d   1     -39.391  15.089  20.745  0.00  0.00    -0.239 NA
BRANCH   9  10
ATOM     10  C   UNL d   1     -39.129  14.581  21.313  0.00  0.00     0.082 A 
ATOM     11  C   UNL d   1     -38.956  14.846  22.097  0.00  0.00     0.021 A 
ATOM     12  C   UNL d   1     -38.690  14.336  22.680  0.00  0.00     0.040 A 
ATOM     13  C   UNL d   1     -39.061  15.639  22.273  0.00  0.00     0.002 A 
ATOM     14  C   UNL d   1     -38.525  14.606  23.439  0.00  0.00     0.003 A 
ATOM     15  C   UNL d   1     -38.586  13.543  22.504  0.00  0.00     0.196 A 
ATOM     16  C   UNL d   1     -38.636  15.409  23.599  0.00  0.00     0.000 A 
ATOM     17  C   UNL d   1     -38.900  15.922  23.027  0.00  0.00     0.000 A 
ATOM     18  C   UNL d   1     -38.748  13.261  21.746  0.00  0.00     0.044 A 
ATOM     19  O   UNL d   1     -38.307  13.015  23.118  0.00  0.00    -0.287 OA
ATOM     20  C   UNL d   1     -39.026  13.799  21.140  0.00  0.00     0.022 A 
ENDBRANCH   9  10
ENDBRANCH   1   9
BRANCH   4  21
ATOM     21  C   UNL d   1     -39.010  14.232  18.027  0.00  0.00     0.085 A 
ATOM     22  C   UNL d   1     -38.896  14.835  17.450  0.00  0.00     0.019 A 
ATOM     23  C   UNL d   1     -38.550  14.652  16.717  0.00  0.00     0.002 A 
ATOM     24  C   UNL d   1     -38.310  13.877  16.537  0.00  0.00     0.000 A 
ATOM     25  C   UNL d   1     -38.418  13.271  17.103  0.00  0.00     0.002 A 
ATOM     26  C   UNL d   1     -38.765  13.461  17.835  0.00  0.00     0.019 A 
ENDBRANCH   4  21
TORSDOF 3
ENDMDL
MODEL 7
REMARK VINA RESULT:      -6.2      8.893      9.973
REMARK  3 active torsions:
REMARK  status: ('A' for Active; 'I' for Inactive)
REMARK    1  A    between atoms: N_6  and  C_1 
REMARK    2  A    between atoms: C_14  and  N_4 
REMARK    3  A    between atoms: C_7  and  N_6 
ROOT
ATOM      1  C   UNL d   1     -38.425  14.531  19.638  0.00  0.00     0.157 A 
ATOM      2  C   UNL d   1     -38.538  15.111  20.215  0.00  0.00     0.298 A 
ATOM      3  N   UNL d   1     -38.342  13.959  20.779  0.00  0.00    -0.238 N 
ATOM      4  N   UNL d   1     -38.489  14.770  20.923  0.00  0.00    -0.209 N 
ATOM      5  C   UNL d   1     -38.314  13.880  19.983  0.00  0.00     0.104 A 
ATOM      6  O   UNL d   1     -38.680  15.921  20.073  0.00  0.00    -0.263 OA
ATOM      7  C   UNL d   1     -38.239  13.332  21.325  0.00  0.00     0.120 C 
ATOM      8  C   UNL d   1     -38.184  13.184  19.612  0.00  0.00     0.022 C 
ENDROOT
BRANCH   1   9
ATOM      9  N   UNL d   1     -38.428  14.629  18.822  0.00  0.00    -0.239 NA
BRANCH   9  10
ATOM     10  C   UNL d   1     -39.130  14.672  18.428  0.00  0.00     0.082 A 
ATOM     11  C   UNL d   1     -39.189  15.039  17.669  0.00  0.00     0.021 A 
ATOM     12  C   UNL d   1     -39.898  15.086  17.262  0.00  0.00     0.040 A 
ATOM     13  C   UNL d   1     -38.511  15.356  17.335  0.00  0.00     0.002 A 
ATOM     14  C   UNL d   1     -39.943  15.446  16.524  0.00  0.00     0.003 A 
ATOM     15  C   UNL d   1     -40.576  14.769  17.596  0.00  0.00     0.196 A 
ATOM     16  C   UNL d   1     -39.250  15.760  16.203  0.00  0.00     0.000 A 
ATOM     17  C   UNL d   1     -38.542  15.718  16.598  0.00  0.00     0.000 A 
ATOM     18  C   UNL d   1     -40.543  14.405  18.336  0.00  0.00     0.044 A 
ATOM     19  O   UNL d   1     -41.314  14.821  17.166  0.00  0.00    -0.287 OA
ATOM     20  C   UNL d   1     -39.798  14.359  18.757  0.00  0.00     0.022 A 
ENDBRANCH   9  10
ENDBRANCH   1   9
BRANCH   4  21
ATOM     21  C   UNL d   1     -38.568  15.147  21.648  0.00  0.00     0.085 A 
ATOM     22  C   UNL d   1     -39.314  15.139  22.038  0.00  0.00     0.019 A 
ATOM     23  C   UNL d   1     -39.406  15.517  22.772  0.00  0.00     0.002 A 
ATOM     24  C   UNL d   1     -38.768  15.909  23.136  0.00  0.00     0.000 A 
ATOM     25  C   UNL d   1     -38.024  15.922  22.756  0.00  0.00     0.002 A 
ATOM     26  C   UNL d   1     -37.940  15.541  22.021  0.00  0.00     0.019 A 
ENDBRANCH   4  21
TORSDOF 3
ENDMDL
MODEL 8
REMARK VINA RESULT:      -6.2      1.483      2.400
REMARK  3 active torsions:
REMARK  status: ('A' for Active; 'I' for Inactive)
REMARK    1  A    between atoms: N_6  and  C_1 
REMARK    2  A    between atoms: C_14  and  N_4 
REMARK    3  A    between atoms: C_7  and  N_6 
ROOT
ATOM      1  C   UNL d   1     -46.996  12.773  23.161  0.00  0.00     0.157 A 
ATOM      2  C   UNL d   1     -47.633  12.409  22.782  0.00  0.00     0.298 A 
ATOM      3  N   UNL d   1     -47.851  13.684  22.886  0.00  0.00    -0.238 N 
ATOM      4  N   UNL d   1     -48.167  12.961  22.608  0.00  0.00    -0.209 N 
ATOM      5  C   UNL d   1     -47.141  13.502  23.210  0.00  0.00     0.104 A 
ATOM      6  O   UNL d   1     -47.701  11.595  22.613  0.00  0.00    -0.263 OA
ATOM      7  C   UNL d   1     -48.176  14.455  22.853  0.00  0.00     0.120 C 
ATOM      8  C   UNL d   1     -46.655  14.042  23.542  0.00  0.00     0.022 C 
ENDROOT
BRANCH   1   9
ATOM      9  N   UNL d   1     -46.311  12.416  23.442  0.00  0.00    -0.239 NA
BRANCH   9  10
ATOM     10  C   UNL d   1     -45.648  12.407  22.985  0.00  0.00     0.082 A 
ATOM     11  C   UNL d   1     -45.069  11.795  23.057  0.00  0.00     0.021 A 
ATOM     12  C   UNL d   1     -44.393  11.780  22.596  0.00  0.00     0.040 A 
ATOM     13  C   UNL d   1     -45.195  11.202  23.608  0.00  0.00     0.002 A 
ATOM     14  C   UNL d   1     -43.837  11.179  22.675  0.00  0.00     0.003 A 
ATOM     15  C   UNL d   1     -44.267  12.373  22.045  0.00  0.00     0.196 A 
ATOM     16  C   UNL d   1     -43.980  10.589  23.235  0.00  0.00     0.000 A 
ATOM     17  C   UNL d   1     -44.648  10.596  23.697  0.00  0.00     0.000 A 
ATOM     18  C   UNL d   1     -44.817  12.981  21.957  0.00  0.00     0.044 A 
ATOM     19  O   UNL d   1     -43.557  12.351  21.566  0.00  0.00    -0.287 OA
ATOM     20  C   UNL d   1     -45.523  12.992  22.442  0.00  0.00     0.022 A 
ENDBRANCH   9  10
ENDBRANCH   1   9
BRANCH   4  21
ATOM     21  C   UNL d   1     -48.885  12.837  22.230  0.00  0.00     0.085 A 
ATOM     22  C   UNL d   1     -49.526  12.502  22.660  0.00  0.00     0.019 A 
ATOM     23  C   UNL d   1     -50.257  12.373  22.287  0.00  0.00     0.002 A 
ATOM     24  C   UNL d   1     -50.372  12.570  21.487  0.00  0.00     0.000 A 
ATOM     25  C   UNL d   1     -49.741  12.904  21.052  0.00  0.00     0.002 A 
ATOM     26  C   UNL d   1     -49.012  13.030  21.432  0.00  0.00     0.019 A 
ENDBRANCH   4  21
TORSDOF 3
ENDMDL
