MODEL 1
REMARK VINA RESULT:      -6.7      0.000      0.000
REMARK  6 active torsions:
REMARK  status: ('A' for Active; 'I' for Inactive)
REMARK    1  A    between atoms: N_2  and  S_1 
REMARK    2  A    between atoms: C_4  and  S_1 
REMARK    3  A    between atoms: C_3  and  N_2 
REMARK    4  A    between atoms: N_7  and  C_3 
REMARK    5  A    between atoms: C_14  and  N_7 
REMARK    6  A    between atoms: C_15  and  C_13 
ROOT
ATOM      1  S   UNL d   1     -47.765  12.864  23.097  0.00  0.00     0.287 S 
ATOM      2  O   UNL d   1     -48.350  12.324  23.345  0.00  0.00    -0.198 OA
ATOM      3  O   UNL d   1     -47.186  13.399  22.852  0.00  0.00    -0.198 OA
ENDROOT
BRANCH   1   4
ATOM      4  N   UNL d   1     -48.352  13.431  22.949  0.00  0.00    -0.128 NA
BRANCH   4   5
ATOM      5  C   UNL d   1     -48.751  13.909  22.410  0.00  0.00     0.232 C 
ATOM      6  S   UNL d   1     -49.115  13.574  21.750  0.00  0.00    -0.036 SA
BRANCH   5   7
ATOM      7  N   UNL d   1     -48.787  14.723  22.533  0.00  0.00    -0.217 NA
BRANCH   7   8
ATOM      8  C   UNL d   1     -49.495  15.066  22.781  0.00  0.00     0.084 A 
ATOM      9  C   UNL d   1     -49.500  15.556  23.444  0.00  0.00     0.019 A 
ATOM     10  C   UNL d   1     -50.205  15.900  23.694  0.00  0.00     0.002 A 
ATOM     11  C   UNL d   1     -50.901  15.756  23.284  0.00  0.00     0.000 A 
ATOM     12  C   UNL d   1     -50.897  15.267  22.622  0.00  0.00     0.002 A 
ATOM     13  C   UNL d   1     -50.196  14.921  22.370  0.00  0.00     0.019 A 
ENDBRANCH   7   8
ENDBRANCH   5   7
ENDBRANCH   4   5
ENDBRANCH   1   4
BRANCH   1  14
ATOM     14  C   UNL d   1     -47.175  12.294  23.246  0.00  0.00     0.105 A 
ATOM     15  C   UNL d   1     -47.396  11.523  23.440  0.00  0.00     0.013 A 
ATOM     16  C   UNL d   1     -46.812  10.947  23.591  0.00  0.00     0.001 A 
ATOM     17  C   UNL d   1     -46.005  11.152  23.545  0.00  0.00     0.000 A 
ATOM     18  C   UNL d   1     -45.791  11.929  23.350  0.00  0.00     0.001 A 
ATOM     19  C   UNL d   1     -46.368  12.498  23.201  0.00  0.00     0.013 A 
BRANCH  17  20
ATOM     20  C   UNL d   1     -45.425  10.585  23.693  0.00  0.00     0.000 C 
ATOM     21  C   UNL d   1     -44.660  10.429  23.407  0.00  0.00     0.000 C 
ENDBRANCH  17  20
ENDBRANCH   1  14
TORSDOF 6
ENDMDL
MODEL 2
REMARK VINA RESULT:      -5.4      1.483      4.956
REMARK  6 active torsions:
REMARK  status: ('A' for Active; 'I' for Inactive)
REMARK    1  A    between atoms: N_2  and  S_1 
REMARK    2  A    between atoms: C_4  and  S_1 
REMARK    3  A    between atoms: C_3  and  N_2 
REMARK    4  A    between atoms: N_7  and  C_3 
REMARK    5  A    between atoms: C_14  and  N_7 
REMARK    6  A    between atoms: C_15  and  C_13 
ROOT
ATOM      1  S   UNL d   1     -47.837  13.674  22.681  0.00  0.00     0.287 S 
ATOM      2  O   UNL d   1     -48.152  13.274  22.020  0.00  0.00    -0.198 OA
ATOM      3  O   UNL d   1     -47.526  14.071  23.334  0.00  0.00    -0.198 OA
ENDROOT
BRANCH   1   4
ATOM      4  N   UNL d   1     -47.111  13.290  22.568  0.00  0.00    -0.128 NA
BRANCH   4   5
ATOM      5  C   UNL d   1     -46.423  12.973  22.890  0.00  0.00     0.232 C 
ATOM      6  S   UNL d   1     -46.444  12.246  23.279  0.00  0.00    -0.036 SA
BRANCH   5   7
ATOM      7  N   UNL d   1     -45.712  13.385  22.822  0.00  0.00    -0.217 NA
BRANCH   7   8
ATOM      8  C   UNL d   1     -45.063  13.021  22.467  0.00  0.00     0.084 A 
ATOM      9  C   UNL d   1     -44.687  13.390  21.833  0.00  0.00     0.019 A 
ATOM     10  C   UNL d   1     -44.039  13.030  21.475  0.00  0.00     0.002 A 
ATOM     11  C   UNL d   1     -43.768  12.305  21.750  0.00  0.00     0.000 A 
ATOM     12  C   UNL d   1     -44.143  11.937  22.383  0.00  0.00     0.002 A 
ATOM     13  C   UNL d   1     -44.790  12.293  22.742  0.00  0.00     0.019 A 
ENDBRANCH   7   8
ENDBRANCH   5   7
ENDBRANCH   4   5
ENDBRANCH   1   4
BRANCH   1  14
ATOM     14  C   UNL d   1     -48.568  14.061  22.794  0.00  0.00     0.105 A 
ATOM     15  C   UNL d   1     -49.230  13.620  23.011  0.00  0.00     0.013 A 
ATOM     16  C   UNL d   1     -49.964  14.000  23.126  0.00  0.00     0.001 A 
ATOM     17  C   UNL d   1     -50.026  14.824  23.020  0.00  0.00     0.000 A 
ATOM     18  C   UNL d   1     -49.356  15.261  22.801  0.00  0.00     0.001 A 
ATOM     19  C   UNL d   1     -48.630  14.885  22.688  0.00  0.00     0.013 A 
BRANCH  17  20
ATOM     20  C   UNL d   1     -50.751  15.203  23.133  0.00  0.00     0.000 C 
ATOM     21  C   UNL d   1     -51.064  15.731  23.693  0.00  0.00     0.000 C 
ENDBRANCH  17  20
ENDBRANCH   1  14
TORSDOF 6
ENDMDL
MODEL 3
REMARK VINA RESULT:      -4.8      9.386     10.641
REMARK  6 active torsions:
REMARK  status: ('A' for Active; 'I' for Inactive)
REMARK    1  A    between atoms: N_2  and  S_1 
REMARK    2  A    between atoms: C_4  and  S_1 
REMARK    3  A    between atoms: C_3  and  N_2 
REMARK    4  A    between atoms: N_7  and  C_3 
REMARK    5  A    between atoms: C_14  and  N_7 
REMARK    6  A    between atoms: C_15  and  C_13 
ROOT
ATOM      1  S   UNL d   1     -38.844  14.143  19.817  0.00  0.00     0.287 S 
ATOM      2  O   UNL d   1     -38.017  14.250  19.818  0.00  0.00    -0.198 OA
ATOM      3  O   UNL d   1     -39.663  14.038  19.817  0.00  0.00    -0.198 OA
ENDROOT
BRANCH   1   4
ATOM      4  N   UNL d   1     -38.855  14.231  18.992  0.00  0.00    -0.128 NA
BRANCH   4   5
ATOM      5  C   UNL d   1     -39.010  14.701  18.335  0.00  0.00     0.232 C 
ATOM      6  S   UNL d   1     -38.833  15.507  18.351  0.00  0.00    -0.036 SA
BRANCH   5   7
ATOM      7  N   UNL d   1     -39.342  14.365  17.660  0.00  0.00    -0.217 NA
BRANCH   7   8
ATOM      8  C   UNL d   1     -38.887  14.293  16.975  0.00  0.00     0.084 A 
ATOM      9  C   UNL d   1     -38.578  13.559  16.768  0.00  0.00     0.019 A 
ATOM     10  C   UNL d   1     -38.124  13.484  16.085  0.00  0.00     0.002 A 
ATOM     11  C   UNL d   1     -37.980  14.139  15.612  0.00  0.00     0.000 A 
ATOM     12  C   UNL d   1     -38.290  14.873  15.819  0.00  0.00     0.002 A 
ATOM     13  C   UNL d   1     -38.743  14.952  16.500  0.00  0.00     0.019 A 
ENDBRANCH   7   8
ENDBRANCH   5   7
ENDBRANCH   4   5
ENDBRANCH   1   4
BRANCH   1  14
ATOM     14  C   UNL d   1     -38.833  14.055  20.646  0.00  0.00     0.105 A 
ATOM     15  C   UNL d   1     -38.256  13.581  20.996  0.00  0.00     0.013 A 
ATOM     16  C   UNL d   1     -38.238  13.488  21.824  0.00  0.00     0.001 A 
ATOM     17  C   UNL d   1     -38.804  13.876  22.298  0.00  0.00     0.000 A 
ATOM     18  C   UNL d   1     -39.381  14.351  21.940  0.00  0.00     0.001 A 
ATOM     19  C   UNL d   1     -39.399  14.443  21.120  0.00  0.00     0.013 A 
BRANCH  17  20
ATOM     20  C   UNL d   1     -38.790  13.787  23.118  0.00  0.00     0.000 C 
ATOM     21  C   UNL d   1     -38.690  13.150  23.645  0.00  0.00     0.000 C 
ENDBRANCH  17  20
ENDBRANCH   1  14
TORSDOF 6
ENDMDL
