MODEL 1
REMARK VINA RESULT:      -9.2      0.000      0.000
REMARK  6 active torsions:
REMARK  status: ('A' for Active; 'I' for Inactive)
REMARK    1  A    between atoms: C_6  and  N_1 
REMARK    2  A    between atoms: S_7  and  C_2 
REMARK    3  A    between atoms: C_12  and  S_7 
REMARK    4  A    between atoms: C_8  and  O_9 
REMARK    5  A    between atoms: O_9  and  C_13 
REMARK    6  A    between atoms: C_13  and  C_12 
ROOT
ATOM      1  N   UNL d   1      52.636  34.866  53.899  0.00  0.00    -0.186 N 
ATOM      2  C   UNL d   1      53.119  34.307  54.236  0.00  0.00     0.219 A 
ATOM      3  N   UNL d   1      53.623  34.703  54.785  0.00  0.00    -0.101 NA
ATOM      4  N   UNL d   1      53.447  35.489  54.779  0.00  0.00    -0.022 NA
ATOM      5  N   UNL d   1      52.838  35.611  54.237  0.00  0.00    -0.038 NA
ENDROOT
BRANCH   2   6
ATOM      6  S   UNL d   1      53.119  33.471  54.067  0.00  0.00    -0.044 SA
BRANCH   6   7
ATOM      7  C   UNL d   1      53.723  32.996  54.369  0.00  0.00     0.065 C 
BRANCH   7   8
ATOM      8  C   UNL d   1      53.626  32.164  54.398  0.00  0.00     0.130 C 
BRANCH   8   9
ATOM      9  O   UNL d   1      53.812  31.710  53.741  0.00  0.00    -0.305 OA
BRANCH   9  10
ATOM     10  C   UNL d   1      53.502  30.943  53.641  0.00  0.00     0.100 A 
ATOM     11  C   UNL d   1      53.001  30.790  52.990  0.00  0.00     0.025 A 
ATOM     12  C   UNL d   1      52.686  30.036  52.875  0.00  0.00     0.002 A 
ATOM     13  C   UNL d   1      52.863  29.432  53.402  0.00  0.00     0.000 A 
ATOM     14  C   UNL d   1      53.355  29.574  54.045  0.00  0.00     0.002 A 
ATOM     15  C   UNL d   1      53.680  30.333  54.172  0.00  0.00     0.025 A 
ENDBRANCH   9  10
ENDBRANCH   8   9
ENDBRANCH   7   8
ENDBRANCH   6   7
ENDBRANCH   2   6
BRANCH   1  16
ATOM     16  C   UNL d   1      52.069  34.633  53.324  0.00  0.00     0.087 A 
ATOM     17  C   UNL d   1      51.265  34.468  53.573  0.00  0.00     0.019 A 
ATOM     18  C   UNL d   1      50.722  34.242  52.994  0.00  0.00     0.002 A 
ATOM     19  C   UNL d   1      50.948  34.174  52.187  0.00  0.00     0.000 A 
ATOM     20  C   UNL d   1      51.722  34.336  51.970  0.00  0.00     0.002 A 
ATOM     21  C   UNL d   1      52.278  34.564  52.534  0.00  0.00     0.019 A 
ENDBRANCH   1  16
TORSDOF 6
ENDMDL
MODEL 2
REMARK VINA RESULT:      -8.9      2.249      4.533
REMARK  6 active torsions:
REMARK  status: ('A' for Active; 'I' for Inactive)
REMARK    1  A    between atoms: C_6  and  N_1 
REMARK    2  A    between atoms: S_7  and  C_2 
REMARK    3  A    between atoms: C_12  and  S_7 
REMARK    4  A    between atoms: C_8  and  O_9 
REMARK    5  A    between atoms: O_9  and  C_13 
REMARK    6  A    between atoms: C_13  and  C_12 
ROOT
ATOM      1  N   UNL d   1      53.564  31.793  53.492  0.00  0.00    -0.186 N 
ATOM      2  C   UNL d   1      52.882  32.027  53.119  0.00  0.00     0.219 A 
ATOM      3  N   UNL d   1      52.594  31.369  52.676  0.00  0.00    -0.101 NA
ATOM      4  N   UNL d   1      53.095  30.747  52.780  0.00  0.00    -0.022 NA
ATOM      5  N   UNL d   1      53.703  30.988  53.282  0.00  0.00    -0.038 NA
ENDROOT
BRANCH   2   6
ATOM      6  S   UNL d   1      52.519  32.798  53.165  0.00  0.00    -0.044 SA
BRANCH   6   7
ATOM      7  C   UNL d   1      51.875  32.973  52.679  0.00  0.00     0.065 C 
BRANCH   7   8
ATOM      8  C   UNL d   1      51.374  33.619  52.865  0.00  0.00     0.130 C 
BRANCH   8   9
ATOM      9  O   UNL d   1      51.040  34.061  52.261  0.00  0.00    -0.305 OA
BRANCH   9  10
ATOM     10  C   UNL d   1      50.289  34.414  52.345  0.00  0.00     0.100 A 
ATOM     11  C   UNL d   1      49.760  34.397  51.699  0.00  0.00     0.025 A 
ATOM     12  C   UNL d   1      49.012  34.741  51.764  0.00  0.00     0.002 A 
ATOM     13  C   UNL d   1      48.786  35.101  52.465  0.00  0.00     0.000 A 
ATOM     14  C   UNL d   1      49.300  35.122  53.106  0.00  0.00     0.002 A 
ATOM     15  C   UNL d   1      50.060  34.777  53.052  0.00  0.00     0.025 A 
ENDBRANCH   9  10
ENDBRANCH   8   9
ENDBRANCH   7   8
ENDBRANCH   6   7
ENDBRANCH   2   6
BRANCH   1  16
ATOM     16  C   UNL d   1      53.980  32.337  53.978  0.00  0.00     0.087 A 
ATOM     17  C   UNL d   1      54.607  32.811  53.634  0.00  0.00     0.019 A 
ATOM     18  C   UNL d   1      55.004  33.339  54.128  0.00  0.00     0.002 A 
ATOM     19  C   UNL d   1      54.802  33.413  54.940  0.00  0.00     0.000 A 
ATOM     20  C   UNL d   1      54.199  32.951  55.250  0.00  0.00     0.002 A 
ATOM     21  C   UNL d   1      53.791  32.417  54.772  0.00  0.00     0.019 A 
ENDBRANCH   1  16
TORSDOF 6
ENDMDL
MODEL 3
REMARK VINA RESULT:      -7.9      1.503      4.054
REMARK  6 active torsions:
REMARK  status: ('A' for Active; 'I' for Inactive)
REMARK    1  A    between atoms: C_6  and  N_1 
REMARK    2  A    between atoms: S_7  and  C_2 
REMARK    3  A    between atoms: C_12  and  S_7 
REMARK    4  A    between atoms: C_8  and  O_9 
REMARK    5  A    between atoms: O_9  and  C_13 
REMARK    6  A    between atoms: C_13  and  C_12 
ROOT
ATOM      1  N   UNL d   1      53.734  33.987  54.530  0.00  0.00    -0.186 N 
ATOM      2  C   UNL d   1      53.109  34.421  54.247  0.00  0.00     0.219 A 
ATOM      3  N   UNL d   1      53.111  35.163  54.648  0.00  0.00    -0.101 NA
ATOM      4  N   UNL d   1      53.729  35.178  55.166  0.00  0.00    -0.022 NA
ATOM      5  N   UNL d   1      54.128  34.458  55.108  0.00  0.00    -0.038 NA
ENDROOT
BRANCH   2   6
ATOM      6  S   UNL d   1      52.550  34.174  53.652  0.00  0.00    -0.044 SA
BRANCH   6   7
ATOM      7  C   UNL d   1      51.886  34.640  53.502  0.00  0.00     0.065 C 
BRANCH   7   8
ATOM      8  C   UNL d   1      51.369  34.441  52.872  0.00  0.00     0.130 C 
BRANCH   8   9
ATOM      9  O   UNL d   1      50.578  34.293  53.027  0.00  0.00    -0.305 OA
BRANCH   9  10
ATOM     10  C   UNL d   1      49.987  34.452  52.460  0.00  0.00     0.100 A 
ATOM     11  C   UNL d   1      49.333  34.924  52.679  0.00  0.00     0.025 A 
ATOM     12  C   UNL d   1      48.739  35.092  52.131  0.00  0.00     0.002 A 
ATOM     13  C   UNL d   1      48.788  34.794  51.368  0.00  0.00     0.000 A 
ATOM     14  C   UNL d   1      49.428  34.329  51.145  0.00  0.00     0.002 A 
ATOM     15  C   UNL d   1      50.036  34.152  51.691  0.00  0.00     0.025 A 
ENDBRANCH   9  10
ENDBRANCH   8   9
ENDBRANCH   7   8
ENDBRANCH   6   7
ENDBRANCH   2   6
BRANCH   1  16
ATOM     16  C   UNL d   1      53.874  33.215  54.230  0.00  0.00     0.087 A 
ATOM     17  C   UNL d   1      53.552  32.539  54.650  0.00  0.00     0.019 A 
ATOM     18  C   UNL d   1      53.699  31.789  54.340  0.00  0.00     0.002 A 
ATOM     19  C   UNL d   1      54.150  31.688  53.638  0.00  0.00     0.000 A 
ATOM     20  C   UNL d   1      54.449  32.347  53.252  0.00  0.00     0.002 A 
ATOM     21  C   UNL d   1      54.312  33.105  53.546  0.00  0.00     0.019 A 
ENDBRANCH   1  16
TORSDOF 6
ENDMDL
MODEL 4
REMARK VINA RESULT:      -7.9      1.170      2.357
REMARK  6 active torsions:
REMARK  status: ('A' for Active; 'I' for Inactive)
REMARK    1  A    between atoms: C_6  and  N_1 
REMARK    2  A    between atoms: S_7  and  C_2 
REMARK    3  A    between atoms: C_12  and  S_7 
REMARK    4  A    between atoms: C_8  and  O_9 
REMARK    5  A    between atoms: O_9  and  C_13 
REMARK    6  A    between atoms: C_13  and  C_12 
ROOT
ATOM      1  N   UNL d   1      53.149  34.490  54.058  0.00  0.00    -0.186 N 
ATOM      2  C   UNL d   1      52.722  34.019  53.553  0.00  0.00     0.219 A 
ATOM      3  N   UNL d   1      52.116  34.496  53.210  0.00  0.00    -0.101 NA
ATOM      4  N   UNL d   1      52.177  35.244  53.504  0.00  0.00    -0.022 NA
ATOM      5  N   UNL d   1      52.811  35.262  54.031  0.00  0.00    -0.038 NA
ENDROOT
BRANCH   2   6
ATOM      6  S   UNL d   1      52.857  33.192  53.395  0.00  0.00    -0.044 SA
BRANCH   6   7
ATOM      7  C   UNL d   1      52.363  32.792  52.869  0.00  0.00     0.065 C 
BRANCH   7   8
ATOM      8  C   UNL d   1      52.239  31.968  52.956  0.00  0.00     0.130 C 
BRANCH   8   9
ATOM      9  O   UNL d   1      52.809  31.441  52.693  0.00  0.00    -0.305 OA
BRANCH   9  10
ATOM     10  C   UNL d   1      52.923  30.702  53.064  0.00  0.00     0.100 A 
ATOM     11  C   UNL d   1      53.665  30.531  53.406  0.00  0.00     0.025 A 
ATOM     12  C   UNL d   1      53.795  29.805  53.777  0.00  0.00     0.002 A 
ATOM     13  C   UNL d   1      53.194  29.248  53.810  0.00  0.00     0.000 A 
ATOM     14  C   UNL d   1      52.460  29.408  53.476  0.00  0.00     0.002 A 
ATOM     15  C   UNL d   1      52.317  30.140  53.098  0.00  0.00     0.025 A 
ENDBRANCH   9  10
ENDBRANCH   8   9
ENDBRANCH   7   8
ENDBRANCH   6   7
ENDBRANCH   2   6
BRANCH   1  16
ATOM     16  C   UNL d   1      53.795  34.163  54.484  0.00  0.00     0.087 A 
ATOM     17  C   UNL d   1      53.659  33.834  55.264  0.00  0.00     0.019 A 
ATOM     18  C   UNL d   1      54.306  33.518  55.667  0.00  0.00     0.002 A 
ATOM     19  C   UNL d   1      55.074  33.518  55.325  0.00  0.00     0.000 A 
ATOM     20  C   UNL d   1      55.184  33.838  54.579  0.00  0.00     0.002 A 
ATOM     21  C   UNL d   1      54.549  34.158  54.161  0.00  0.00     0.019 A 
ENDBRANCH   1  16
TORSDOF 6
ENDMDL
