MODEL 1
REMARK VINA RESULT:      -3.1      0.000      0.000
REMARK  3 active torsions:
REMARK  status: ('A' for Active; 'I' for Inactive)
REMARK    1  A    between atoms: C_8  and  C_1 
REMARK    2  A    between atoms: C_9  and  C_8 
REMARK    3  A    between atoms: O_16  and  C_13 
ROOT
ATOM      1  C   UNL d   1      32.788  22.199 -20.641  0.00  0.00     0.013 A 
ATOM      2  C   UNL d   1      32.489  23.330 -19.805  0.00  0.00     0.105 A 
ATOM      3  O   UNL d   1      32.120  23.694 -20.436  0.00  0.00    -0.273 OA
ATOM      4  C   UNL d   1      32.830  22.572 -19.903  0.00  0.00     0.023 A 
ATOM      5  C   UNL d   1      32.080  23.318 -21.171  0.00  0.00     0.300 A 
ATOM      6  C   UNL d   1      32.414  22.573 -21.271  0.00  0.00     0.069 A 
ATOM      7  C   UNL d   1      32.530  23.697 -19.080  0.00  0.00     0.049 A 
ATOM      8  C   UNL d   1      33.201  22.204 -19.273  0.00  0.00     0.004 A 
ATOM      9  O   UNL d   1      31.698  23.701 -21.813  0.00  0.00    -0.259 OA
ATOM     10  C   UNL d   1      32.908  23.324 -18.438  0.00  0.00     0.096 A 
ATOM     11  C   UNL d   1      33.241  22.582 -18.535  0.00  0.00     0.024 A 
ENDROOT
BRANCH   1  12
ATOM     12  C   UNL d   1      33.125  21.453 -20.733  0.00  0.00     0.070 C 
BRANCH  12  13
ATOM     13  C   UNL d   1      32.864  20.965 -21.348  0.00  0.00     0.211 C 
ATOM     14  O   UNL d   1      32.222  20.447 -21.221  0.00  0.00    -0.644 OA
ATOM     15  O   UNL d   1      33.233  20.986 -22.085  0.00  0.00    -0.644 OA
ENDBRANCH  12  13
ENDBRANCH   1  12
BRANCH  10  16
ATOM     16  O   UNL d   1      32.945  23.702 -17.707  0.00  0.00    -0.328 OA
ATOM     17  C   UNL d   1      32.557  23.376 -17.051  0.00  0.00     0.181 C 
ENDBRANCH  10  16
TORSDOF 3
ENDMDL
MODEL 2
REMARK VINA RESULT:      -2.9      6.169      7.642
REMARK  3 active torsions:
REMARK  status: ('A' for Active; 'I' for Inactive)
REMARK    1  A    between atoms: C_8  and  C_1 
REMARK    2  A    between atoms: C_9  and  C_8 
REMARK    3  A    between atoms: O_16  and  C_13 
ROOT
ATOM      1  C   UNL d   1      31.848  17.343 -24.120  0.00  0.00     0.013 A 
ATOM      2  C   UNL d   1      31.007  16.261 -23.684  0.00  0.00     0.105 A 
ATOM      3  O   UNL d   1      31.655  15.899 -23.344  0.00  0.00    -0.273 OA
ATOM      4  C   UNL d   1      31.099  16.993 -24.079  0.00  0.00     0.023 A 
ATOM      5  C   UNL d   1      32.401  16.252 -23.387  0.00  0.00     0.300 A 
ATOM      6  C   UNL d   1      32.496  16.972 -23.775  0.00  0.00     0.069 A 
ATOM      7  C   UNL d   1      30.270  15.918 -23.645  0.00  0.00     0.049 A 
ATOM      8  C   UNL d   1      30.451  17.360 -24.422  0.00  0.00     0.004 A 
ATOM      9  O   UNL d   1      33.061  15.871 -23.034  0.00  0.00    -0.259 OA
ATOM     10  C   UNL d   1      29.611  16.289 -23.992  0.00  0.00     0.096 A 
ATOM     11  C   UNL d   1      29.702  17.005 -24.379  0.00  0.00     0.024 A 
ENDROOT
BRANCH   1  12
ATOM     12  C   UNL d   1      31.934  18.064 -24.510  0.00  0.00     0.070 C 
BRANCH  12  13
ATOM     13  C   UNL d   1      32.667  18.448 -24.493  0.00  0.00     0.211 C 
ATOM     14  O   UNL d   1      33.224  18.303 -25.097  0.00  0.00    -0.644 OA
ATOM     15  O   UNL d   1      32.851  18.972 -23.884  0.00  0.00    -0.644 OA
ENDBRANCH  12  13
ENDBRANCH   1  12
BRANCH  10  16
ATOM     16  O   UNL d   1      28.868  15.934 -23.947  0.00  0.00    -0.328 OA
ATOM     17  C   UNL d   1      28.256  16.307 -23.532  0.00  0.00     0.181 C 
ENDBRANCH  10  16
TORSDOF 3
ENDMDL
MODEL 3
REMARK VINA RESULT:      -2.7      5.871      7.508
REMARK  3 active torsions:
REMARK  status: ('A' for Active; 'I' for Inactive)
REMARK    1  A    between atoms: C_8  and  C_1 
REMARK    2  A    between atoms: C_9  and  C_8 
REMARK    3  A    between atoms: O_16  and  C_13 
ROOT
ATOM      1  C   UNL d   1      30.426  16.882 -24.448  0.00  0.00     0.013 A 
ATOM      2  C   UNL d   1      31.753  17.131 -23.955  0.00  0.00     0.105 A 
ATOM      3  O   UNL d   1      31.667  16.517 -23.423  0.00  0.00    -0.273 OA
ATOM      4  C   UNL d   1      31.127  17.321 -24.477  0.00  0.00     0.023 A 
ATOM      5  C   UNL d   1      30.966  16.082 -23.398  0.00  0.00     0.300 A 
ATOM      6  C   UNL d   1      30.347  16.265 -23.910  0.00  0.00     0.069 A 
ATOM      7  C   UNL d   1      32.442  17.563 -23.983  0.00  0.00     0.049 A 
ATOM      8  C   UNL d   1      31.210  17.936 -25.011  0.00  0.00     0.004 A 
ATOM      9  O   UNL d   1      30.887  15.453 -22.848  0.00  0.00    -0.259 OA
ATOM     10  C   UNL d   1      32.528  18.189 -24.526  0.00  0.00     0.096 A 
ATOM     11  C   UNL d   1      31.915  18.373 -25.036  0.00  0.00     0.024 A 
ENDROOT
BRANCH   1  12
ATOM     12  C   UNL d   1      29.812  17.072 -24.964  0.00  0.00     0.070 C 
BRANCH  12  13
ATOM     13  C   UNL d   1      29.044  16.820 -24.789  0.00  0.00     0.211 C 
ATOM     14  O   UNL d   1      28.766  16.096 -25.097  0.00  0.00    -0.644 OA
ATOM     15  O   UNL d   1      28.551  17.278 -24.311  0.00  0.00    -0.644 OA
ENDBRANCH  12  13
ENDBRANCH   1  12
BRANCH  10  16
ATOM     16  O   UNL d   1      33.230  18.621 -24.548  0.00  0.00    -0.328 OA
ATOM     17  C   UNL d   1      33.227  19.426 -24.351  0.00  0.00     0.181 C 
ENDBRANCH  10  16
TORSDOF 3
ENDMDL
MODEL 4
REMARK VINA RESULT:      -2.3      2.571      4.250
REMARK  3 active torsions:
REMARK  status: ('A' for Active; 'I' for Inactive)
REMARK    1  A    between atoms: C_8  and  C_1 
REMARK    2  A    between atoms: C_9  and  C_8 
REMARK    3  A    between atoms: O_16  and  C_13 
ROOT
ATOM      1  C   UNL d   1      32.950  18.937 -23.190  0.00  0.00     0.013 A 
ATOM      2  C   UNL d   1      33.169  20.335 -22.936  0.00  0.00     0.105 A 
ATOM      3  O   UNL d   1      33.239  20.467 -23.739  0.00  0.00    -0.273 OA
ATOM      4  C   UNL d   1      33.022  19.562 -22.652  0.00  0.00     0.023 A 
ATOM      5  C   UNL d   1      33.167  19.840 -24.273  0.00  0.00     0.300 A 
ATOM      6  C   UNL d   1      33.022  19.078 -23.997  0.00  0.00     0.069 A 
ATOM      7  C   UNL d   1      33.240  20.950 -22.407  0.00  0.00     0.049 A 
ATOM      8  C   UNL d   1      32.950  19.427 -21.847  0.00  0.00     0.004 A 
ATOM      9  O   UNL d   1      33.241  19.986 -25.096  0.00  0.00    -0.259 OA
ATOM     10  C   UNL d   1      33.167  20.814 -21.589  0.00  0.00     0.096 A 
ATOM     11  C   UNL d   1      33.024  20.056 -21.312  0.00  0.00     0.024 A 
ENDROOT
BRANCH   1  12
ATOM     12  C   UNL d   1      32.805  18.178 -22.906  0.00  0.00     0.070 C 
BRANCH  12  13
ATOM     13  C   UNL d   1      32.477  17.612 -23.413  0.00  0.00     0.211 C 
ATOM     14  O   UNL d   1      32.974  17.071 -23.807  0.00  0.00    -0.644 OA
ATOM     15  O   UNL d   1      31.661  17.579 -23.532  0.00  0.00    -0.644 OA
ENDBRANCH  12  13
ENDBRANCH   1  12
BRANCH  10  16
ATOM     16  O   UNL d   1      33.241  21.441 -21.059  0.00  0.00    -0.328 OA
ATOM     17  C   UNL d   1      32.643  21.587 -20.504  0.00  0.00     0.181 C 
ENDBRANCH  10  16
TORSDOF 3
ENDMDL
MODEL 5
REMARK VINA RESULT:      -1.9      2.017      4.337
REMARK  3 active torsions:
REMARK  status: ('A' for Active; 'I' for Inactive)
REMARK    1  A    between atoms: C_8  and  C_1 
REMARK    2  A    between atoms: C_9  and  C_8 
REMARK    3  A    between atoms: O_16  and  C_13 
ROOT
ATOM      1  C   UNL d   1      32.975  21.689 -21.760  0.00  0.00     0.013 A 
ATOM      2  C   UNL d   1      33.175  20.267 -21.846  0.00  0.00     0.105 A 
ATOM      3  O   UNL d   1      33.239  20.231 -21.032  0.00  0.00    -0.273 OA
ATOM      4  C   UNL d   1      33.041  21.004 -22.220  0.00  0.00     0.023 A 
ATOM      5  C   UNL d   1      33.173  20.916 -20.577  0.00  0.00     0.300 A 
ATOM      6  C   UNL d   1      33.041  21.643 -20.941  0.00  0.00     0.069 A 
ATOM      7  C   UNL d   1      33.240  19.594 -22.299  0.00  0.00     0.049 A 
ATOM      8  C   UNL d   1      32.976  21.045 -23.036  0.00  0.00     0.004 A 
ATOM      9  O   UNL d   1      33.240  20.868 -19.741  0.00  0.00    -0.259 OA
ATOM     10  C   UNL d   1      33.174  19.634 -23.128  0.00  0.00     0.096 A 
ATOM     11  C   UNL d   1      33.043  20.356 -23.493  0.00  0.00     0.024 A 
ENDROOT
BRANCH   1  12
ATOM     12  C   UNL d   1      32.843  22.412 -22.132  0.00  0.00     0.070 C 
BRANCH  12  13
ATOM     13  C   UNL d   1      32.641  23.071 -21.675  0.00  0.00     0.211 C 
ATOM     14  O   UNL d   1      31.850  23.182 -21.436  0.00  0.00    -0.644 OA
ATOM     15  O   UNL d   1      33.216  23.619 -21.453  0.00  0.00    -0.644 OA
ENDBRANCH  12  13
ENDBRANCH   1  12
BRANCH  10  16
ATOM     16  O   UNL d   1      33.241  18.948 -23.579  0.00  0.00    -0.328 OA
ATOM     17  C   UNL d   1      32.618  18.714 -24.073  0.00  0.00     0.181 C 
ENDBRANCH  10  16
TORSDOF 3
ENDMDL
MODEL 6
REMARK VINA RESULT:      -1.5      1.733      2.953
REMARK  3 active torsions:
REMARK  status: ('A' for Active; 'I' for Inactive)
REMARK    1  A    between atoms: C_8  and  C_1 
REMARK    2  A    between atoms: C_9  and  C_8 
REMARK    3  A    between atoms: O_16  and  C_13 
ROOT
ATOM      1  C   UNL d   1      33.235  20.293 -22.701  0.00  0.00     0.013 A 
ATOM      2  C   UNL d   1      33.217  21.659 -22.252  0.00  0.00     0.105 A 
ATOM      3  O   UNL d   1      33.223  21.911 -23.028  0.00  0.00    -0.273 OA
ATOM      4  C   UNL d   1      33.223  20.840 -22.080  0.00  0.00     0.023 A 
ATOM      5  C   UNL d   1      33.235  21.362 -23.646  0.00  0.00     0.300 A 
ATOM      6  C   UNL d   1      33.241  20.556 -23.481  0.00  0.00     0.069 A 
ATOM      7  C   UNL d   1      33.205  22.196 -21.640  0.00  0.00     0.049 A 
ATOM      8  C   UNL d   1      33.217  20.583 -21.302  0.00  0.00     0.004 A 
ATOM      9  O   UNL d   1      33.240  21.632 -24.440  0.00  0.00    -0.259 OA
ATOM     10  C   UNL d   1      33.199  21.937 -20.849  0.00  0.00     0.096 A 
ATOM     11  C   UNL d   1      33.205  21.134 -20.682  0.00  0.00     0.024 A 
ENDROOT
BRANCH   1  12
ATOM     12  C   UNL d   1      33.241  19.488 -22.527  0.00  0.00     0.070 C 
BRANCH  12  13
ATOM     13  C   UNL d   1      32.821  18.966 -23.014  0.00  0.00     0.211 C 
ATOM     14  O   UNL d   1      33.210  18.588 -23.648  0.00  0.00    -0.644 OA
ATOM     15  O   UNL d   1      32.022  18.817 -22.878  0.00  0.00    -0.644 OA
ENDBRANCH  12  13
ENDBRANCH   1  12
BRANCH  10  16
ATOM     16  O   UNL d   1      33.187  22.487 -20.235  0.00  0.00    -0.328 OA
ATOM     17  C   UNL d   1      32.524  22.542 -19.741  0.00  0.00     0.181 C 
ENDBRANCH  10  16
TORSDOF 3
ENDMDL
MODEL 7
REMARK VINA RESULT:      -1.1      3.089      4.265
REMARK  3 active torsions:
REMARK  status: ('A' for Active; 'I' for Inactive)
REMARK    1  A    between atoms: C_8  and  C_1 
REMARK    2  A    between atoms: C_9  and  C_8 
REMARK    3  A    between atoms: O_16  and  C_13 
ROOT
ATOM      1  C   UNL d   1      33.235  19.810 -23.147  0.00  0.00     0.013 A 
ATOM      2  C   UNL d   1      33.237  21.048 -22.416  0.00  0.00     0.105 A 
ATOM      3  O   UNL d   1      33.238  20.630 -21.714  0.00  0.00    -0.273 OA
ATOM      4  C   UNL d   1      33.235  20.638 -23.145  0.00  0.00     0.023 A 
ATOM      5  C   UNL d   1      33.238  19.804 -21.720  0.00  0.00     0.300 A 
ATOM      6  C   UNL d   1      33.236  19.396 -22.436  0.00  0.00     0.069 A 
ATOM      7  C   UNL d   1      33.237  21.862 -22.414  0.00  0.00     0.049 A 
ATOM      8  C   UNL d   1      33.234  21.054 -23.851  0.00  0.00     0.004 A 
ATOM      9  O   UNL d   1      33.240  19.384 -20.994  0.00  0.00    -0.259 OA
ATOM     10  C   UNL d   1      33.236  22.286 -23.131  0.00  0.00     0.096 A 
ATOM     11  C   UNL d   1      33.234  21.883 -23.844  0.00  0.00     0.024 A 
ENDROOT
BRANCH   1  12
ATOM     12  C   UNL d   1      33.233  19.410 -23.867  0.00  0.00     0.070 C 
BRANCH  12  13
ATOM     13  C   UNL d   1      32.813  18.700 -23.934  0.00  0.00     0.211 C 
ATOM     14  O   UNL d   1      32.037  18.706 -24.240  0.00  0.00    -0.644 OA
ATOM     15  O   UNL d   1      33.155  17.987 -23.701  0.00  0.00    -0.644 OA
ENDBRANCH  12  13
ENDBRANCH   1  12
BRANCH  10  16
ATOM     16  O   UNL d   1      33.236  23.111 -23.121  0.00  0.00    -0.328 OA
ATOM     17  C   UNL d   1      32.621  23.530 -23.486  0.00  0.00     0.181 C 
ENDBRANCH  10  16
TORSDOF 3
ENDMDL
