MODEL 1
REMARK VINA RESULT:      15.8      0.000      0.000
REMARK  1 active torsions:
REMARK  status: ('A' for Active; 'I' for Inactive)
REMARK    1  A    between atoms: C_7  and  C_6 
ROOT
ATOM      1  C   UNL d   1      44.865 -15.017  37.098  0.00  0.00     0.045 A 
ATOM      2  C   UNL d   1      44.685 -15.703  36.675  0.00  0.00     0.196 A 
ATOM      3  C   UNL d   1      44.164 -14.660  37.349  0.00  0.00     0.003 A 
ATOM      4  C   UNL d   1      43.860 -15.769  36.665  0.00  0.00     0.039 A 
ATOM      5  C   UNL d   1      43.542 -15.133  37.076  0.00  0.00     0.003 A 
ATOM      6  C   UNL d   1      45.596 -14.664  37.291  0.00  0.00     0.068 A 
ATOM      7  O   UNL d   1      45.219 -16.220  36.330  0.00  0.00    -0.287 OA
ATOM      8  C   UNL d   1      44.186 -13.965  37.783  0.00  0.00     0.000 A 
ATOM      9  C   UNL d   1      43.357 -16.334  36.330  0.00  0.00     0.003 A 
ATOM     10  C   UNL d   1      42.721 -15.061  37.153  0.00  0.00     0.000 A 
ATOM     11  C   UNL d   1      45.616 -13.966  37.728  0.00  0.00     0.006 A 
ATOM     12  C   UNL d   1      44.902 -13.618  37.974  0.00  0.00     0.000 A 
ATOM     13  C   UNL d   1      42.543 -16.260  36.408  0.00  0.00     0.000 A 
ATOM     14  C   UNL d   1      42.226 -15.623  36.820  0.00  0.00     0.000 A 
ENDROOT
BRANCH   6  15
ATOM     15  C   UNL d   1      46.297 -15.021  37.040  0.00  0.00     0.211 C 
ATOM     16  O   UNL d   1      46.645 -14.776  36.332  0.00  0.00    -0.644 OA
ATOM     17  O   UNL d   1      46.644 -15.612  37.490  0.00  0.00    -0.644 OA
ENDBRANCH   6  15
TORSDOF 1
ENDMDL
MODEL 2
REMARK VINA RESULT:      16.1      7.325      7.873
REMARK  1 active torsions:
REMARK  status: ('A' for Active; 'I' for Inactive)
REMARK    1  A    between atoms: C_7  and  C_6 
ROOT
ATOM      1  C   UNL d   1      46.178 -18.802  43.372  0.00  0.00     0.045 A 
ATOM      2  C   UNL d   1      45.945 -18.114  42.981  0.00  0.00     0.196 A 
ATOM      3  C   UNL d   1      46.277 -18.638  44.175  0.00  0.00     0.003 A 
ATOM      4  C   UNL d   1      45.899 -17.516  43.551  0.00  0.00     0.039 A 
ATOM      5  C   UNL d   1      46.102 -17.836  44.281  0.00  0.00     0.003 A 
ATOM      6  C   UNL d   1      46.316 -19.576  43.093  0.00  0.00     0.068 A 
ATOM      7  O   UNL d   1      45.787 -18.036  42.180  0.00  0.00    -0.287 OA
ATOM      8  C   UNL d   1      46.509 -19.229  44.693  0.00  0.00     0.000 A 
ATOM      9  C   UNL d   1      45.697 -16.716  43.495  0.00  0.00     0.003 A 
ATOM     10  C   UNL d   1      46.103 -17.356  44.954  0.00  0.00     0.000 A 
ATOM     11  C   UNL d   1      46.550 -20.170  43.615  0.00  0.00     0.006 A 
ATOM     12  C   UNL d   1      46.645 -19.988  44.421  0.00  0.00     0.000 A 
ATOM     13  C   UNL d   1      45.699 -16.243  44.165  0.00  0.00     0.000 A 
ATOM     14  C   UNL d   1      45.902 -16.563  44.895  0.00  0.00     0.000 A 
ENDROOT
BRANCH   6  15
ATOM     15  C   UNL d   1      46.217 -19.741  42.291  0.00  0.00     0.211 C 
ATOM     16  O   UNL d   1      46.645 -19.308  41.732  0.00  0.00    -0.644 OA
ATOM     17  O   UNL d   1      45.698 -20.329  42.050  0.00  0.00    -0.644 OA
ENDBRANCH   6  15
TORSDOF 1
ENDMDL
