MODEL 1
REMARK VINA RESULT:      -5.1      0.000      0.000
REMARK  4 active torsions:
REMARK  status: ('A' for Active; 'I' for Inactive)
REMARK       I    between atoms: N_2  and  C_1 
REMARK    1  A    between atoms: C_4  and  C_1 
REMARK    2  A    between atoms: C_14  and  N_3 
REMARK    3  A    between atoms: C_5  and  C_6 
REMARK    4  A    between atoms: C_17  and  C_14 
ROOT
ATOM      1  C   UNL d   1     -41.442-121.702 -50.873  0.00  0.00     0.265 C 
ATOM      2  N   UNL d   1     -41.424-122.062 -51.606  0.00  0.00    -0.269 N 
ATOM      3  N   UNL d   1     -41.386-122.778 -53.085  0.00  0.00    -0.300 N 
ATOM      4  O   UNL d   1     -41.197-120.921 -50.797  0.00  0.00    -0.267 OA
ATOM      5  C   UNL d   1     -41.667-122.839 -51.693  0.00  0.00     0.102 A 
ATOM      6  C   UNL d   1     -41.158-121.634 -52.271  0.00  0.00     0.102 A 
ATOM      7  C   UNL d   1     -41.140-121.996 -53.005  0.00  0.00     0.100 A 
ATOM      8  C   UNL d   1     -41.645-123.194 -52.438  0.00  0.00     0.100 A 
ENDROOT
BRANCH   1   9
ATOM      9  C   UNL d   1     -41.709-122.129 -50.208  0.00  0.00     0.057 A 
ATOM     10  C   UNL d   1     -41.181-122.566 -49.767  0.00  0.00     0.004 A 
ATOM     11  C   UNL d   1     -41.448-122.993 -49.103  0.00  0.00    -0.004 A 
ATOM     12  C   UNL d   1     -42.235-122.973 -48.896  0.00  0.00    -0.023 A 
ATOM     13  C   UNL d   1     -42.772-122.533 -49.338  0.00  0.00    -0.004 A 
ATOM     14  C   UNL d   1     -42.506-122.105 -50.003  0.00  0.00     0.004 A 
BRANCH  12  15
ATOM     15  C   UNL d   1     -42.498-123.394 -48.241  0.00  0.00     0.019 C 
ATOM     16  C   UNL d   1     -43.111-123.711 -48.691  0.00  0.00     0.004 C 
ATOM     17  C   UNL d   1     -42.763-123.818 -47.582  0.00  0.00     0.004 C 
ATOM     18  C   UNL d   1     -41.878-123.073 -47.785  0.00  0.00     0.004 C 
ENDBRANCH  12  15
ENDBRANCH   1   9
BRANCH   3  19
ATOM     19  C   UNL d   1     -41.371-123.146 -53.818  0.00  0.00     0.080 C 
BRANCH  19  20
ATOM     20  C   UNL d   1     -41.664-122.763 -54.482  0.00  0.00     0.018 A 
ATOM     21  C   UNL d   1     -41.153-122.334 -54.996  0.00  0.00     0.002 A 
ATOM     22  C   UNL d   1     -41.462-121.956 -55.657  0.00  0.00     0.000 A 
ATOM     23  C   UNL d   1     -42.280-121.996 -55.822  0.00  0.00     0.000 A 
ATOM     24  C   UNL d   1     -42.782-122.421 -55.313  0.00  0.00     0.000 A 
ATOM     25  C   UNL d   1     -42.474-122.803 -54.646  0.00  0.00     0.002 A 
ENDBRANCH  19  20
ENDBRANCH   3  19
TORSDOF 4
ENDMDL
