MODEL 1
REMARK VINA RESULT:     -10.7      0.000      0.000
REMARK  5 active torsions:
REMARK  status: ('A' for Active; 'I' for Inactive)
REMARK    1  A    between atoms: C_6  and  C_1 
REMARK    2  A    between atoms: C_9  and  C_5 
REMARK       I    between atoms: N_13  and  C_6 
REMARK    3  A    between atoms: C_7  and  C_15 
REMARK    4  A    between atoms: N_10  and  N_13 
REMARK    5  A    between atoms: C_15  and  N_10 
ROOT
ATOM      1  C   UNL d   1      49.608  34.479  52.114  0.00  0.00     0.316 C 
ATOM      2  N   UNL d   1      49.059  35.151  52.545  0.00  0.00    -0.104 NA
ATOM      3  O   UNL d   1      49.278  34.105  51.461  0.00  0.00    -0.262 OA
ENDROOT
BRANCH   1   4
ATOM      4  C   UNL d   1      50.361  34.269  52.358  0.00  0.00     0.164 A 
ATOM      5  C   UNL d   1      50.460  33.857  53.061  0.00  0.00     0.047 A 
ATOM      6  C   UNL d   1      51.858  33.840  52.861  0.00  0.00     0.105 A 
ATOM      7  N   UNL d   1      51.759  34.252  52.157  0.00  0.00    -0.148 NA
ATOM      8  N   UNL d   1      51.008  34.467  51.904  0.00  0.00    -0.143 NA
BRANCH   6   9
ATOM      9  C   UNL d   1      52.498  33.543  53.275  0.00  0.00     0.019 A 
ATOM     10  C   UNL d   1      52.852  34.002  53.851  0.00  0.00     0.002 A 
ATOM     11  C   UNL d   1      53.495  33.707  54.270  0.00  0.00     0.000 A 
ATOM     12  C   UNL d   1      53.851  34.162  54.847  0.00  0.00     0.000 A 
ATOM     13  C   UNL d   1      53.778  32.950  54.104  0.00  0.00     0.000 A 
ATOM     14  C   UNL d   1      54.488  33.869  55.261  0.00  0.00     0.000 A 
ATOM     15  C   UNL d   1      54.777  33.115  55.103  0.00  0.00     0.000 A 
ATOM     16  C   UNL d   1      54.423  32.657  54.526  0.00  0.00     0.000 A 
ATOM     17  C   UNL d   1      53.419  32.506  53.531  0.00  0.00     0.000 A 
ATOM     18  C   UNL d   1      52.778  32.802  53.116  0.00  0.00     0.002 A 
ENDBRANCH   6   9
ENDBRANCH   1   4
BRANCH   2  19
ATOM     19  N   UNL d   1      48.137  35.493  52.347  0.00  0.00    -0.143 NA
BRANCH  19  20
ATOM     20  C   UNL d   1      47.856  36.219  52.706  0.00  0.00     0.126 C 
BRANCH  20  21
ATOM     21  C   UNL d   1      47.010  36.333  52.846  0.00  0.00     0.060 A 
ATOM     22  C   UNL d   1      46.715  36.458  53.644  0.00  0.00     0.005 A 
ATOM     23  C   UNL d   1      45.869  36.572  53.783  0.00  0.00     0.000 A 
ATOM     24  C   UNL d   1      47.267  36.470  54.314  0.00  0.00     0.000 A 
ATOM     25  C   UNL d   1      45.571  36.698  54.591  0.00  0.00     0.000 A 
ATOM     26  C   UNL d   1      45.310  36.562  53.121  0.00  0.00     0.003 A 
ATOM     27  C   UNL d   1      46.124  36.709  55.256  0.00  0.00     0.000 A 
ATOM     28  C   UNL d   1      46.969  36.596  55.121  0.00  0.00     0.000 A 
ATOM     29  C   UNL d   1      45.616  36.436  52.321  0.00  0.00     0.042 A 
ATOM     30  C   UNL d   1      46.462  36.322  52.182  0.00  0.00     0.197 A 
ATOM     31  O   UNL d   1      46.756  36.198  51.387  0.00  0.00    -0.286 OA
ENDBRANCH  20  21
ENDBRANCH  19  20
ENDBRANCH   2  19
TORSDOF 5
ENDMDL
MODEL 2
REMARK VINA RESULT:     -10.5      1.248      7.213
REMARK  5 active torsions:
REMARK  status: ('A' for Active; 'I' for Inactive)
REMARK    1  A    between atoms: C_6  and  C_1 
REMARK    2  A    between atoms: C_9  and  C_5 
REMARK       I    between atoms: N_13  and  C_6 
REMARK    3  A    between atoms: C_7  and  C_15 
REMARK    4  A    between atoms: N_10  and  N_13 
REMARK    5  A    between atoms: C_15  and  N_10 
ROOT
ATOM      1  C   UNL d   1      50.327  34.448  52.230  0.00  0.00     0.316 C 
ATOM      2  N   UNL d   1      50.850  34.039  52.936  0.00  0.00    -0.104 NA
ATOM      3  O   UNL d   1      50.646  34.411  51.475  0.00  0.00    -0.262 OA
ENDROOT
BRANCH   1   4
ATOM      4  C   UNL d   1      49.605  34.818  52.343  0.00  0.00     0.164 A 
ATOM      5  C   UNL d   1      49.035  34.783  51.753  0.00  0.00     0.047 A 
ATOM      6  C   UNL d   1      48.157  35.550  52.549  0.00  0.00     0.105 A 
ATOM      7  N   UNL d   1      48.727  35.585  53.139  0.00  0.00    -0.148 NA
ATOM      8  N   UNL d   1      49.454  35.218  53.036  0.00  0.00    -0.143 NA
BRANCH   6   9
ATOM      9  C   UNL d   1      47.396  35.839  52.458  0.00  0.00     0.019 A 
ATOM     10  C   UNL d   1      46.943  35.585  51.827  0.00  0.00     0.002 A 
ATOM     11  C   UNL d   1      46.179  35.873  51.732  0.00  0.00     0.000 A 
ATOM     12  C   UNL d   1      45.723  35.622  51.103  0.00  0.00     0.000 A 
ATOM     13  C   UNL d   1      45.876  36.415  52.274  0.00  0.00     0.000 A 
ATOM     14  C   UNL d   1      44.966  35.907  51.008  0.00  0.00     0.000 A 
ATOM     15  C   UNL d   1      44.655  36.448  51.545  0.00  0.00     0.000 A 
ATOM     16  C   UNL d   1      45.109  36.701  52.176  0.00  0.00     0.000 A 
ATOM     17  C   UNL d   1      46.334  36.659  52.895  0.00  0.00     0.000 A 
ATOM     18  C   UNL d   1      47.095  36.370  52.987  0.00  0.00     0.002 A 
ENDBRANCH   6   9
ENDBRANCH   1   4
BRANCH   2  19
ATOM     19  N   UNL d   1      51.733  33.564  52.927  0.00  0.00    -0.143 NA
BRANCH  19  20
ATOM     20  C   UNL d   1      52.018  33.161  53.629  0.00  0.00     0.126 C 
BRANCH  20  21
ATOM     21  C   UNL d   1      52.822  32.846  53.651  0.00  0.00     0.060 A 
ATOM     22  C   UNL d   1      53.421  33.216  54.146  0.00  0.00     0.005 A 
ATOM     23  C   UNL d   1      54.225  32.901  54.168  0.00  0.00     0.000 A 
ATOM     24  C   UNL d   1      53.217  33.909  54.627  0.00  0.00     0.000 A 
ATOM     25  C   UNL d   1      54.829  33.276  54.668  0.00  0.00     0.000 A 
ATOM     26  C   UNL d   1      54.438  32.210  53.691  0.00  0.00     0.003 A 
ATOM     27  C   UNL d   1      54.623  33.967  55.147  0.00  0.00     0.000 A 
ATOM     28  C   UNL d   1      53.821  34.284  55.128  0.00  0.00     0.000 A 
ATOM     29  C   UNL d   1      53.830  31.843  53.196  0.00  0.00     0.042 A 
ATOM     30  C   UNL d   1      53.025  32.158  53.174  0.00  0.00     0.197 A 
ATOM     31  O   UNL d   1      52.430  31.790  52.681  0.00  0.00    -0.286 OA
ENDBRANCH  20  21
ENDBRANCH  19  20
ENDBRANCH   2  19
TORSDOF 5
ENDMDL
MODEL 3
REMARK VINA RESULT:     -10.0      1.334      7.341
REMARK  5 active torsions:
REMARK  status: ('A' for Active; 'I' for Inactive)
REMARK    1  A    between atoms: C_6  and  C_1 
REMARK    2  A    between atoms: C_9  and  C_5 
REMARK       I    between atoms: N_13  and  C_6 
REMARK    3  A    between atoms: C_7  and  C_15 
REMARK    4  A    between atoms: N_10  and  N_13 
REMARK    5  A    between atoms: C_15  and  N_10 
ROOT
ATOM      1  C   UNL d   1      50.314  34.461  52.231  0.00  0.00     0.316 C 
ATOM      2  N   UNL d   1      50.868  34.139  52.959  0.00  0.00    -0.104 NA
ATOM      3  O   UNL d   1      50.607  34.343  51.473  0.00  0.00    -0.262 OA
ENDROOT
BRANCH   1   4
ATOM      4  C   UNL d   1      49.590  34.832  52.328  0.00  0.00     0.164 A 
ATOM      5  C   UNL d   1      49.027  34.785  51.733  0.00  0.00     0.047 A 
ATOM      6  C   UNL d   1      48.140  35.568  52.504  0.00  0.00     0.105 A 
ATOM      7  N   UNL d   1      48.703  35.615  53.099  0.00  0.00    -0.148 NA
ATOM      8  N   UNL d   1      49.431  35.246  53.012  0.00  0.00    -0.143 NA
BRANCH   6   9
ATOM      9  C   UNL d   1      47.380  35.854  52.398  0.00  0.00     0.019 A 
ATOM     10  C   UNL d   1      46.939  35.596  51.761  0.00  0.00     0.002 A 
ATOM     11  C   UNL d   1      46.175  35.882  51.651  0.00  0.00     0.000 A 
ATOM     12  C   UNL d   1      45.730  35.627  51.015  0.00  0.00     0.000 A 
ATOM     13  C   UNL d   1      45.861  36.426  52.186  0.00  0.00     0.000 A 
ATOM     14  C   UNL d   1      44.975  35.909  50.907  0.00  0.00     0.000 A 
ATOM     15  C   UNL d   1      44.653  36.452  51.436  0.00  0.00     0.000 A 
ATOM     16  C   UNL d   1      45.096  36.709  52.073  0.00  0.00     0.000 A 
ATOM     17  C   UNL d   1      46.308  36.673  52.813  0.00  0.00     0.000 A 
ATOM     18  C   UNL d   1      47.069  36.387  52.919  0.00  0.00     0.002 A 
ENDBRANCH   6   9
ENDBRANCH   1   4
BRANCH   2  19
ATOM     19  N   UNL d   1      51.757  33.676  52.970  0.00  0.00    -0.143 NA
BRANCH  19  20
ATOM     20  C   UNL d   1      51.981  33.180  53.634  0.00  0.00     0.126 C 
BRANCH  20  21
ATOM     21  C   UNL d   1      52.793  32.893  53.704  0.00  0.00     0.060 A 
ATOM     22  C   UNL d   1      52.986  32.080  53.502  0.00  0.00     0.005 A 
ATOM     23  C   UNL d   1      53.798  31.794  53.572  0.00  0.00     0.000 A 
ATOM     24  C   UNL d   1      52.363  31.543  53.224  0.00  0.00     0.000 A 
ATOM     25  C   UNL d   1      53.992  30.971  53.367  0.00  0.00     0.000 A 
ATOM     26  C   UNL d   1      54.427  32.321  53.848  0.00  0.00     0.003 A 
ATOM     27  C   UNL d   1      53.369  30.438  53.091  0.00  0.00     0.000 A 
ATOM     28  C   UNL d   1      52.557  30.720  53.019  0.00  0.00     0.000 A 
ATOM     29  C   UNL d   1      54.225  33.139  54.051  0.00  0.00     0.042 A 
ATOM     30  C   UNL d   1      53.412  33.426  53.980  0.00  0.00     0.197 A 
ATOM     31  O   UNL d   1      53.220  34.235  54.182  0.00  0.00    -0.286 OA
ENDBRANCH  20  21
ENDBRANCH  19  20
ENDBRANCH   2  19
TORSDOF 5
ENDMDL
MODEL 4
REMARK VINA RESULT:      -9.6      0.845      1.791
REMARK  5 active torsions:
REMARK  status: ('A' for Active; 'I' for Inactive)
REMARK    1  A    between atoms: C_6  and  C_1 
REMARK    2  A    between atoms: C_9  and  C_5 
REMARK       I    between atoms: N_13  and  C_6 
REMARK    3  A    between atoms: C_7  and  C_15 
REMARK    4  A    between atoms: N_10  and  N_13 
REMARK    5  A    between atoms: C_15  and  N_10 
ROOT
ATOM      1  C   UNL d   1      49.492  34.554  52.104  0.00  0.00     0.316 C 
ATOM      2  N   UNL d   1      48.820  35.150  52.468  0.00  0.00    -0.104 NA
ATOM      3  O   UNL d   1      49.269  34.114  51.447  0.00  0.00    -0.262 OA
ENDROOT
BRANCH   1   4
ATOM      4  C   UNL d   1      50.249  34.468  52.405  0.00  0.00     0.164 A 
ATOM      5  C   UNL d   1      50.362  34.454  53.218  0.00  0.00     0.047 A 
ATOM      6  C   UNL d   1      51.753  34.297  53.026  0.00  0.00     0.105 A 
ATOM      7  N   UNL d   1      51.639  34.311  52.213  0.00  0.00    -0.148 NA
ATOM      8  N   UNL d   1      50.885  34.397  51.901  0.00  0.00    -0.143 NA
BRANCH   6   9
ATOM      9  C   UNL d   1      52.400  34.223  53.522  0.00  0.00     0.019 A 
ATOM     10  C   UNL d   1      52.670  33.478  53.722  0.00  0.00     0.002 A 
ATOM     11  C   UNL d   1      53.320  33.399  54.219  0.00  0.00     0.000 A 
ATOM     12  C   UNL d   1      53.593  32.657  54.422  0.00  0.00     0.000 A 
ATOM     13  C   UNL d   1      53.694  34.073  54.512  0.00  0.00     0.000 A 
ATOM     14  C   UNL d   1      54.236  32.579  54.914  0.00  0.00     0.000 A 
ATOM     15  C   UNL d   1      54.616  33.246  55.211  0.00  0.00     0.000 A 
ATOM     16  C   UNL d   1      54.346  33.991  55.011  0.00  0.00     0.000 A 
ATOM     17  C   UNL d   1      53.418  34.805  54.307  0.00  0.00     0.000 A 
ATOM     18  C   UNL d   1      52.770  34.880  53.811  0.00  0.00     0.002 A 
ENDBRANCH   6   9
ENDBRANCH   1   4
BRANCH   2  19
ATOM     19  N   UNL d   1      47.875  35.342  52.195  0.00  0.00    -0.143 NA
BRANCH  19  20
ATOM     20  C   UNL d   1      47.483  36.060  52.457  0.00  0.00     0.126 C 
BRANCH  20  21
ATOM     21  C   UNL d   1      46.676  36.024  52.763  0.00  0.00     0.060 A 
ATOM     22  C   UNL d   1      46.010  35.941  52.225  0.00  0.00     0.005 A 
ATOM     23  C   UNL d   1      45.203  35.906  52.531  0.00  0.00     0.000 A 
ATOM     24  C   UNL d   1      46.148  35.893  51.369  0.00  0.00     0.000 A 
ATOM     25  C   UNL d   1      44.530  35.822  51.986  0.00  0.00     0.000 A 
ATOM     26  C   UNL d   1      45.055  35.954  53.384  0.00  0.00     0.003 A 
ATOM     27  C   UNL d   1      44.671  35.774  51.134  0.00  0.00     0.000 A 
ATOM     28  C   UNL d   1      45.475  35.809  50.824  0.00  0.00     0.000 A 
ATOM     29  C   UNL d   1      45.730  36.037  53.919  0.00  0.00     0.042 A 
ATOM     30  C   UNL d   1      46.539  36.073  53.612  0.00  0.00     0.197 A 
ATOM     31  O   UNL d   1      47.201  36.155  54.148  0.00  0.00    -0.286 OA
ENDBRANCH  20  21
ENDBRANCH  19  20
ENDBRANCH   2  19
TORSDOF 5
ENDMDL
MODEL 5
REMARK VINA RESULT:      -8.4      1.434      2.102
REMARK  5 active torsions:
REMARK  status: ('A' for Active; 'I' for Inactive)
REMARK    1  A    between atoms: C_6  and  C_1 
REMARK    2  A    between atoms: C_9  and  C_5 
REMARK       I    between atoms: N_13  and  C_6 
REMARK    3  A    between atoms: C_7  and  C_15 
REMARK    4  A    between atoms: N_10  and  N_13 
REMARK    5  A    between atoms: C_15  and  N_10 
ROOT
ATOM      1  C   UNL d   1      50.721  34.768  52.981  0.00  0.00     0.316 C 
ATOM      2  N   UNL d   1      49.838  34.616  52.611  0.00  0.00    -0.104 NA
ATOM      3  O   UNL d   1      50.883  35.533  53.230  0.00  0.00    -0.262 OA
ENDROOT
BRANCH   1   4
ATOM      4  C   UNL d   1      51.298  34.191  53.056  0.00  0.00     0.164 A 
ATOM      5  C   UNL d   1      51.078  33.412  53.193  0.00  0.00     0.047 A 
ATOM      6  C   UNL d   1      52.436  33.026  53.208  0.00  0.00     0.105 A 
ATOM      7  N   UNL d   1      52.657  33.805  53.071  0.00  0.00    -0.148 NA
ATOM      8  N   UNL d   1      52.086  34.390  52.994  0.00  0.00    -0.143 NA
BRANCH   6   9
ATOM      9  C   UNL d   1      52.835  32.319  53.311  0.00  0.00     0.019 A 
ATOM     10  C   UNL d   1      52.451  31.614  53.156  0.00  0.00     0.002 A 
ATOM     11  C   UNL d   1      52.848  30.901  53.258  0.00  0.00     0.000 A 
ATOM     12  C   UNL d   1      52.469  30.196  53.104  0.00  0.00     0.000 A 
ATOM     13  C   UNL d   1      53.632  30.904  53.517  0.00  0.00     0.000 A 
ATOM     14  C   UNL d   1      52.862  29.490  53.205  0.00  0.00     0.000 A 
ATOM     15  C   UNL d   1      53.644  29.483  53.464  0.00  0.00     0.000 A 
ATOM     16  C   UNL d   1      54.027  30.187  53.619  0.00  0.00     0.000 A 
ATOM     17  C   UNL d   1      54.001  31.608  53.668  0.00  0.00     0.000 A 
ATOM     18  C   UNL d   1      53.602  32.316  53.565  0.00  0.00     0.002 A 
ENDBRANCH   6   9
ENDBRANCH   1   4
BRANCH   2  19
ATOM     19  N   UNL d   1      49.057  35.228  52.468  0.00  0.00    -0.143 NA
BRANCH  19  20
ATOM     20  C   UNL d   1      48.263  34.977  52.677  0.00  0.00     0.126 C 
BRANCH  20  21
ATOM     21  C   UNL d   1      47.579  35.397  52.358  0.00  0.00     0.060 A 
ATOM     22  C   UNL d   1      47.054  35.832  52.882  0.00  0.00     0.005 A 
ATOM     23  C   UNL d   1      46.369  36.253  52.564  0.00  0.00     0.000 A 
ATOM     24  C   UNL d   1      47.211  35.850  53.736  0.00  0.00     0.000 A 
ATOM     25  C   UNL d   1      45.839  36.693  53.095  0.00  0.00     0.000 A 
ATOM     26  C   UNL d   1      46.204  36.241  51.714  0.00  0.00     0.003 A 
ATOM     27  C   UNL d   1      45.998  36.709  53.945  0.00  0.00     0.000 A 
ATOM     28  C   UNL d   1      46.680  36.290  54.267  0.00  0.00     0.000 A 
ATOM     29  C   UNL d   1      46.737  35.801  51.193  0.00  0.00     0.042 A 
ATOM     30  C   UNL d   1      47.422  35.380  51.512  0.00  0.00     0.197 A 
ATOM     31  O   UNL d   1      47.945  34.947  50.990  0.00  0.00    -0.286 OA
ENDBRANCH  20  21
ENDBRANCH  19  20
ENDBRANCH   2  19
TORSDOF 5
ENDMDL
