MODEL 1
REMARK VINA RESULT:      25.8      0.000      0.000
REMARK  5 active torsions:
REMARK  status: ('A' for Active; 'I' for Inactive)
REMARK    1  A    between atoms: C_7  and  N_1 
REMARK    2  A    between atoms: C_14  and  N_5 
REMARK    3  A    between atoms: C_8  and  C_7 
REMARK    4  A    between atoms: C_16  and  C_14 
REMARK    5  A    between atoms: O_15  and  C_16 
ROOT
ATOM      1  N   UNL d   1     -55.508 -99.626 -44.376  0.00  0.00    -0.273 N 
ATOM      2  C   UNL d   1     -55.424 -99.291 -45.140  0.00  0.00     0.153 A 
ATOM      3  S   UNL d   1     -56.038 -98.864 -45.467  0.00  0.00    -0.039 SA
ATOM      4  C   UNL d   1     -56.204 -99.527 -43.954  0.00  0.00     0.168 A 
ATOM      5  N   UNL d   1     -56.826 -99.093 -44.287  0.00  0.00    -0.280 N 
ATOM      6  C   UNL d   1     -56.742 -98.758 -45.051  0.00  0.00     0.120 A 
ATOM      7  S   UNL d   1     -54.712 -99.397 -45.564  0.00  0.00    -0.052 SA
ENDROOT
BRANCH   1   8
ATOM      8  C   UNL d   1     -54.877-100.058 -44.055  0.00  0.00     0.107 C 
BRANCH   8   9
ATOM      9  C   UNL d   1     -54.892-100.885 -44.042  0.00  0.00     0.118 A 
ATOM     10  O   UNL d   1     -55.093-101.375 -44.680  0.00  0.00    -0.304 OA
ATOM     11  C   UNL d   1     -55.033-102.156 -44.418  0.00  0.00     0.123 A 
ATOM     12  C   UNL d   1     -54.800-102.150 -43.637  0.00  0.00     0.029 A 
ATOM     13  C   UNL d   1     -54.712-101.364 -43.402  0.00  0.00     0.028 A 
ENDBRANCH   8   9
ENDBRANCH   1   8
BRANCH   5  14
ATOM     14  C   UNL d   1     -57.529 -98.985 -43.876  0.00  0.00     0.108 C 
BRANCH  14  15
ATOM     15  C   UNL d   1     -58.251 -99.057 -44.270  0.00  0.00     0.135 C 
BRANCH  15  16
ATOM     16  O   UNL d   1     -58.943 -99.163 -43.836  0.00  0.00    -0.325 OA
ATOM     17  C   UNL d   1     -59.666 -99.152 -44.219  0.00  0.00     0.182 C 
ENDBRANCH  15  16
ENDBRANCH  14  15
ENDBRANCH   5  14
TORSDOF 5
ENDMDL
