MODEL 1
REMARK VINA RESULT:      -8.4      0.000      0.000
REMARK  4 active torsions:
REMARK  status: ('A' for Active; 'I' for Inactive)
REMARK    1  A    between atoms: O_2  and  P_1 
REMARK    2  A    between atoms: C_6  and  P_1 
REMARK    3  A    between atoms: C_3  and  O_2 
REMARK    4  A    between atoms: C_10  and  C_4 
ROOT
ATOM      1  C   UNL d   1     -47.593  12.919  22.796  0.00  0.00     0.103 A 
ATOM      2  C   UNL d   1     -46.804  12.821  23.023  0.00  0.00     0.023 A 
ATOM      3  C   UNL d   1     -46.567  12.189  23.463  0.00  0.00     0.002 A 
ATOM      4  C   UNL d   1     -48.142  12.349  23.032  0.00  0.00     0.025 A 
ATOM      5  C   UNL d   1     -47.121  11.619  23.698  0.00  0.00     0.000 A 
ATOM      6  C   UNL d   1     -47.906  11.717  23.472  0.00  0.00     0.002 A 
ATOM      7  C   UNL d   1     -48.478  11.157  23.698  0.00  0.00     0.000 C 
ENDROOT
BRANCH   1   8
ATOM      8  O   UNL d   1     -47.831  13.570  22.345  0.00  0.00    -0.269 OA
BRANCH   8   9
ATOM      9  P   UNL d   1     -48.626  13.692  22.198  0.00  0.00     0.370 P 
ATOM     10  O   UNL d   1     -48.721  13.998  22.951  0.00  0.00    -0.257 OA
ATOM     11  N   UNL d   1     -48.514  13.374  21.422  0.00  0.00    -0.091 N 
BRANCH   9  12
ATOM     12  C   UNL d   1     -49.427  13.808  22.030  0.00  0.00     0.077 A 
ATOM     13  C   UNL d   1     -49.826  14.417  22.421  0.00  0.00     0.007 A 
ATOM     14  C   UNL d   1     -50.632  14.534  22.253  0.00  0.00     0.000 A 
ATOM     15  C   UNL d   1     -51.028  14.053  21.708  0.00  0.00     0.000 A 
ATOM     16  C   UNL d   1     -50.616  13.458  21.333  0.00  0.00     0.000 A 
ATOM     17  C   UNL d   1     -49.824  13.328  21.485  0.00  0.00     0.007 A 
ENDBRANCH   9  12
ENDBRANCH   8   9
ENDBRANCH   1   8
BRANCH   2  18
ATOM     18  C   UNL d   1     -46.246  13.376  22.798  0.00  0.00     0.002 C 
ATOM     19  C   UNL d   1     -46.150  14.066  23.228  0.00  0.00     0.000 C 
ATOM     20  C   UNL d   1     -45.780  13.237  22.133  0.00  0.00     0.000 C 
ENDBRANCH   2  18
TORSDOF 4
ENDMDL
MODEL 2
REMARK VINA RESULT:      -7.6      0.971      3.785
REMARK  4 active torsions:
REMARK  status: ('A' for Active; 'I' for Inactive)
REMARK    1  A    between atoms: O_2  and  P_1 
REMARK    2  A    between atoms: C_6  and  P_1 
REMARK    3  A    between atoms: C_3  and  O_2 
REMARK    4  A    between atoms: C_10  and  C_4 
ROOT
ATOM      1  C   UNL d   1     -49.615  13.678  22.620  0.00  0.00     0.103 A 
ATOM      2  C   UNL d   1     -50.442  13.663  22.629  0.00  0.00     0.023 A 
ATOM      3  C   UNL d   1     -50.873  14.321  22.803  0.00  0.00     0.002 A 
ATOM      4  C   UNL d   1     -49.234  14.388  22.795  0.00  0.00     0.025 A 
ATOM      5  C   UNL d   1     -50.487  15.033  22.978  0.00  0.00     0.000 A 
ATOM      6  C   UNL d   1     -49.664  15.047  22.969  0.00  0.00     0.002 A 
ATOM      7  C   UNL d   1     -49.257  15.752  23.141  0.00  0.00     0.000 C 
ENDROOT
BRANCH   1   8
ATOM      8  O   UNL d   1     -49.177  12.999  22.441  0.00  0.00    -0.269 OA
BRANCH   8   9
ATOM      9  P   UNL d   1     -48.373  12.985  22.588  0.00  0.00     0.370 P 
ATOM     10  O   UNL d   1     -48.517  12.858  23.383  0.00  0.00    -0.257 OA
ATOM     11  N   UNL d   1     -48.238  13.117  21.763  0.00  0.00    -0.091 N 
BRANCH   9  12
ATOM     12  C   UNL d   1     -47.556  12.975  22.716  0.00  0.00     0.077 A 
ATOM     13  C   UNL d   1     -47.270  12.590  23.388  0.00  0.00     0.007 A 
ATOM     14  C   UNL d   1     -46.448  12.579  23.518  0.00  0.00     0.000 A 
ATOM     15  C   UNL d   1     -45.928  12.945  22.988  0.00  0.00     0.000 A 
ATOM     16  C   UNL d   1     -46.232  13.319  22.331  0.00  0.00     0.000 A 
ATOM     17  C   UNL d   1     -47.036  13.340  22.187  0.00  0.00     0.007 A 
ENDBRANCH   9  12
ENDBRANCH   8   9
ENDBRANCH   1   8
BRANCH   2  18
ATOM     18  C   UNL d   1     -50.837  12.967  22.458  0.00  0.00     0.002 C 
ATOM     19  C   UNL d   1     -51.008  12.766  21.683  0.00  0.00     0.000 C 
ATOM     20  C   UNL d   1     -51.063  12.467  23.072  0.00  0.00     0.000 C 
ENDBRANCH   2  18
TORSDOF 4
ENDMDL
MODEL 3
REMARK VINA RESULT:      -6.8      1.404      2.292
REMARK  4 active torsions:
REMARK  status: ('A' for Active; 'I' for Inactive)
REMARK    1  A    between atoms: O_2  and  P_1 
REMARK    2  A    between atoms: C_6  and  P_1 
REMARK    3  A    between atoms: C_3  and  O_2 
REMARK    4  A    between atoms: C_10  and  C_4 
ROOT
ATOM      1  C   UNL d   1     -47.753  13.708  22.722  0.00  0.00     0.103 A 
ATOM      2  C   UNL d   1     -46.977  13.991  22.673  0.00  0.00     0.023 A 
ATOM      3  C   UNL d   1     -46.819  14.776  22.585  0.00  0.00     0.002 A 
ATOM      4  C   UNL d   1     -48.372  14.253  22.678  0.00  0.00     0.025 A 
ATOM      5  C   UNL d   1     -47.443  15.320  22.541  0.00  0.00     0.000 A 
ATOM      6  C   UNL d   1     -48.215  15.038  22.589  0.00  0.00     0.002 A 
ATOM      7  C   UNL d   1     -48.856  15.567  22.547  0.00  0.00     0.000 C 
ENDROOT
BRANCH   1   8
ATOM      8  O   UNL d   1     -47.909  12.901  22.812  0.00  0.00    -0.269 OA
BRANCH   8   9
ATOM      9  P   UNL d   1     -48.681  12.643  22.885  0.00  0.00     0.370 P 
ATOM     10  O   UNL d   1     -48.644  12.749  23.695  0.00  0.00    -0.257 OA
ATOM     11  N   UNL d   1     -48.707  12.538  22.046  0.00  0.00    -0.091 N 
BRANCH   9  12
ATOM     12  C   UNL d   1     -49.464  12.381  22.937  0.00  0.00     0.077 A 
ATOM     13  C   UNL d   1     -49.909  12.332  22.244  0.00  0.00     0.007 A 
ATOM     14  C   UNL d   1     -50.696  12.068  22.296  0.00  0.00     0.000 A 
ATOM     15  C   UNL d   1     -51.028  11.858  23.025  0.00  0.00     0.000 A 
ATOM     16  C   UNL d   1     -50.571  11.913  23.698  0.00  0.00     0.000 A 
ATOM     17  C   UNL d   1     -49.795  12.171  23.666  0.00  0.00     0.007 A 
ENDBRANCH   9  12
ENDBRANCH   8   9
ENDBRANCH   1   8
BRANCH   2  18
ATOM     18  C   UNL d   1     -46.351  13.465  22.715  0.00  0.00     0.002 C 
ATOM     19  C   UNL d   1     -46.157  12.999  22.071  0.00  0.00     0.000 C 
ATOM     20  C   UNL d   1     -45.915  13.407  23.411  0.00  0.00     0.000 C 
ENDBRANCH   2  18
TORSDOF 4
ENDMDL
MODEL 4
REMARK VINA RESULT:      -6.0      7.810      9.732
REMARK  4 active torsions:
REMARK  status: ('A' for Active; 'I' for Inactive)
REMARK    1  A    between atoms: O_2  and  P_1 
REMARK    2  A    between atoms: C_6  and  P_1 
REMARK    3  A    between atoms: C_3  and  O_2 
REMARK    4  A    between atoms: C_10  and  C_4 
ROOT
ATOM      1  C   UNL d   1     -39.988  15.294  19.936  0.00  0.00     0.103 A 
ATOM      2  C   UNL d   1     -40.318  15.451  20.678  0.00  0.00     0.023 A 
ATOM      3  C   UNL d   1     -39.878  15.757  21.279  0.00  0.00     0.002 A 
ATOM      4  C   UNL d   1     -39.188  15.458  19.821  0.00  0.00     0.025 A 
ATOM      5  C   UNL d   1     -39.074  15.921  21.160  0.00  0.00     0.000 A 
ATOM      6  C   UNL d   1     -38.746  15.764  20.421  0.00  0.00     0.002 A 
ATOM      7  C   UNL d   1     -37.942  15.922  20.281  0.00  0.00     0.000 C 
ENDROOT
BRANCH   1   8
ATOM      8  O   UNL d   1     -40.445  14.979  19.322  0.00  0.00    -0.269 OA
BRANCH   8   9
ATOM      9  P   UNL d   1     -40.083  14.741  18.629  0.00  0.00     0.370 P 
ATOM     10  O   UNL d   1     -39.891  14.024  18.972  0.00  0.00    -0.257 OA
ATOM     11  N   UNL d   1     -40.288  15.487  18.286  0.00  0.00    -0.091 N 
BRANCH   9  12
ATOM     12  C   UNL d   1     -39.722  14.518  17.919  0.00  0.00     0.077 A 
ATOM     13  C   UNL d   1     -39.748  15.045  17.284  0.00  0.00     0.007 A 
ATOM     14  C   UNL d   1     -39.384  14.822  16.569  0.00  0.00     0.000 A 
ATOM     15  C   UNL d   1     -39.006  14.089  16.495  0.00  0.00     0.000 A 
ATOM     16  C   UNL d   1     -38.992  13.584  17.134  0.00  0.00     0.000 A 
ATOM     17  C   UNL d   1     -39.343  13.787  17.844  0.00  0.00     0.007 A 
ENDBRANCH   9  12
ENDBRANCH   8   9
ENDBRANCH   1   8
BRANCH   2  18
ATOM     18  C   UNL d   1     -41.111  15.294  20.810  0.00  0.00     0.002 C 
ATOM     19  C   UNL d   1     -41.675  15.874  20.684  0.00  0.00     0.000 C 
ATOM     20  C   UNL d   1     -41.339  14.547  21.071  0.00  0.00     0.000 C 
ENDBRANCH   2  18
TORSDOF 4
ENDMDL
MODEL 5
REMARK VINA RESULT:      -5.9      8.725     10.009
REMARK  4 active torsions:
REMARK  status: ('A' for Active; 'I' for Inactive)
REMARK    1  A    between atoms: O_2  and  P_1 
REMARK    2  A    between atoms: C_6  and  P_1 
REMARK    3  A    between atoms: C_3  and  O_2 
REMARK    4  A    between atoms: C_10  and  C_4 
ROOT
ATOM      1  C   UNL d   1     -39.639  14.506  18.070  0.00  0.00     0.103 A 
ATOM      2  C   UNL d   1     -39.673  14.623  17.251  0.00  0.00     0.023 A 
ATOM      3  C   UNL d   1     -39.272  14.147  16.740  0.00  0.00     0.002 A 
ATOM      4  C   UNL d   1     -39.178  13.884  18.357  0.00  0.00     0.025 A 
ATOM      5  C   UNL d   1     -38.811  13.524  17.032  0.00  0.00     0.000 A 
ATOM      6  C   UNL d   1     -38.776  13.408  17.846  0.00  0.00     0.002 A 
ATOM      7  C   UNL d   1     -38.319  12.788  18.160  0.00  0.00     0.000 C 
ENDROOT
BRANCH   1   8
ATOM      8  O   UNL d   1     -40.053  14.998  18.590  0.00  0.00    -0.269 OA
BRANCH   8   9
ATOM      9  P   UNL d   1     -39.890  14.969  19.390  0.00  0.00     0.370 P 
ATOM     10  O   UNL d   1     -39.240  15.452  19.279  0.00  0.00    -0.257 OA
ATOM     11  N   UNL d   1     -40.565  14.469  19.493  0.00  0.00    -0.091 N 
BRANCH   9  12
ATOM     12  C   UNL d   1     -39.742  14.927  20.203  0.00  0.00     0.077 A 
ATOM     13  C   UNL d   1     -39.148  15.406  20.518  0.00  0.00     0.007 A 
ATOM     14  C   UNL d   1     -38.997  15.365  21.335  0.00  0.00     0.000 A 
ATOM     15  C   UNL d   1     -39.432  14.857  21.824  0.00  0.00     0.000 A 
ATOM     16  C   UNL d   1     -40.014  14.392  21.492  0.00  0.00     0.000 A 
ATOM     17  C   UNL d   1     -40.176  14.419  20.691  0.00  0.00     0.007 A 
ENDBRANCH   9  12
ENDBRANCH   8   9
ENDBRANCH   1   8
BRANCH   2  18
ATOM     18  C   UNL d   1     -40.125  15.235  16.949  0.00  0.00     0.002 C 
ATOM     19  C   UNL d   1     -40.940  15.167  16.905  0.00  0.00     0.000 C 
ATOM     20  C   UNL d   1     -39.755  15.922  16.686  0.00  0.00     0.000 C 
ENDBRANCH   2  18
TORSDOF 4
ENDMDL
