MODEL 1
REMARK VINA RESULT:      75.1      0.000      0.000
REMARK  4 active torsions:
REMARK  status: ('A' for Active; 'I' for Inactive)
REMARK    1  A    between atoms: C_2  and  C_1 
REMARK       I    between atoms: N_7  and  C_1 
REMARK    2  A    between atoms: N_6  and  C_5 
REMARK    3  A    between atoms: C_12  and  N_7 
REMARK    4  A    between atoms: C_8  and  C_9 
ROOT
ATOM      1  C   UNL d   1     -48.540  28.668  34.905  0.00  0.00     0.021 A 
ATOM      2  C   UNL d   1     -47.958  29.963  34.743  0.00  0.00     0.085 A 
ATOM      3  C   UNL d   1     -48.476  29.375  34.484  0.00  0.00     0.021 A 
ATOM      4  C   UNL d   1     -48.086  28.549  35.585  0.00  0.00     0.002 A 
ATOM      5  C   UNL d   1     -47.574  29.135  35.836  0.00  0.00     0.002 A 
ATOM      6  C   UNL d   1     -47.510  29.842  35.416  0.00  0.00     0.019 A 
ENDROOT
BRANCH   1   7
ATOM      7  C   UNL d   1     -49.064  28.076  34.642  0.00  0.00     0.103 A 
ATOM      8  N   UNL d   1     -49.363  27.529  35.171  0.00  0.00    -0.147 NA
ATOM      9  N   UNL d   1     -49.882  26.944  34.906  0.00  0.00    -0.130 NA
ATOM     10  C   UNL d   1     -50.097  26.914  34.110  0.00  0.00     0.170 A 
ATOM     11  C   UNL d   1     -49.791  27.472  33.579  0.00  0.00     0.041 A 
ATOM     12  C   UNL d   1     -49.280  28.046  33.846  0.00  0.00     0.024 A 
BRANCH  10  13
ATOM     13  N   UNL d   1     -50.611  26.337  33.844  0.00  0.00    -0.284 N 
ATOM     14  C   UNL d   1     -50.344  25.561  33.751  0.00  0.00     0.108 A 
ATOM     15  C   UNL d   1     -50.859  24.975  33.483  0.00  0.00     0.142 A 
ATOM     16  O   UNL d   1     -51.643  25.165  33.307  0.00  0.00    -0.300 OA
ATOM     17  C   UNL d   1     -51.911  25.940  33.400  0.00  0.00     0.142 A 
ATOM     18  C   UNL d   1     -51.395  26.526  33.669  0.00  0.00     0.108 A 
ENDBRANCH  10  13
ENDBRANCH   1   7
BRANCH   2  19
ATOM     19  N   UNL d   1     -47.894  30.669  34.322  0.00  0.00    -0.208 NA
ATOM     20  C   UNL d   1     -47.824  31.381  34.718  0.00  0.00     0.280 C 
ATOM     21  O   UNL d   1     -47.818  31.390  35.544  0.00  0.00    -0.265 OA
BRANCH  20  22
ATOM     22  C   UNL d   1     -47.761  32.084  34.300  0.00  0.00     0.069 A 
ATOM     23  C   UNL d   1     -48.433  32.491  34.072  0.00  0.00     0.062 A 
ATOM     24 CL   UNL d   1     -49.187  32.191  34.265  0.00  0.00    -0.082 Cl
ATOM     25  C   UNL d   1     -48.369  33.197  33.651  0.00  0.00     0.012 A 
ATOM     26  C   UNL d   1     -47.634  33.497  33.458  0.00  0.00     0.001 A 
ATOM     27  C   UNL d   1     -46.953  33.091  33.686  0.00  0.00     0.000 A 
ATOM     28  C   UNL d   1     -47.016  32.384  34.107  0.00  0.00     0.006 A 
ENDBRANCH  20  22
ENDBRANCH   2  19
TORSDOF 4
ENDMDL
