MODEL 1
REMARK VINA RESULT:      -7.2      0.000      0.000
REMARK  2 active torsions:
REMARK  status: ('A' for Active; 'I' for Inactive)
REMARK    1  A    between atoms: C_11  and  C_1 
REMARK    2  A    between atoms: C_13  and  C_11 
ROOT
ATOM      1  C   UNL d   1     -47.554  13.950  22.869  0.00  0.00     0.058 A 
ATOM      2  C   UNL d   1     -47.159  12.717  23.271  0.00  0.00    -0.008 A 
ATOM      3  C   UNL d   1     -46.691  12.813  23.187  0.00  0.00    -0.008 A 
ATOM      4  C   UNL d   1     -46.212  13.899  22.747  0.00  0.00     0.045 A 
ATOM      5  C   UNL d   1     -47.293  13.261  23.089  0.00  0.00    -0.019 A 
ATOM      6  C   UNL d   1     -47.819  13.178  23.175  0.00  0.00    -0.019 A 
ATOM      7  C   UNL d   1     -46.867  14.352  22.653  0.00  0.00     0.021 A 
ATOM      8  C   UNL d   1     -46.913  11.960  23.517  0.00  0.00    -0.001 A 
ATOM      9  C   UNL d   1     -46.034  13.193  22.981  0.00  0.00    -0.022 A 
ATOM     10  C   UNL d   1     -46.456  13.128  23.049  0.00  0.00    -0.022 A 
ENDROOT
BRANCH   1  11
ATOM     11  C   UNL d   1     -47.972  14.633  22.668  0.00  0.00     0.004 C 
BRANCH  11  12
ATOM     12  C   UNL d   1     -48.779  14.674  22.833  0.00  0.00     0.118 C 
ATOM     13  N   UNL d   1     -49.207  15.356  22.630  0.00  0.00    -0.147 N 
ENDBRANCH  11  12
ENDBRANCH   1  11
TORSDOF 2
ENDMDL
MODEL 2
REMARK VINA RESULT:      -7.1      1.344      2.075
REMARK  2 active torsions:
REMARK  status: ('A' for Active; 'I' for Inactive)
REMARK    1  A    between atoms: C_11  and  C_1 
REMARK    2  A    between atoms: C_13  and  C_11 
ROOT
ATOM      1  C   UNL d   1     -48.148  12.197  23.240  0.00  0.00     0.058 A 
ATOM      2  C   UNL d   1     -47.100  13.051  23.140  0.00  0.00    -0.008 A 
ATOM      3  C   UNL d   1     -46.787  12.727  23.318  0.00  0.00    -0.008 A 
ATOM      4  C   UNL d   1     -47.055  11.546  23.688  0.00  0.00     0.045 A 
ATOM      5  C   UNL d   1     -47.530  12.654  23.198  0.00  0.00    -0.019 A 
ATOM      6  C   UNL d   1     -47.897  12.998  23.003  0.00  0.00    -0.019 A 
ATOM      7  C   UNL d   1     -47.844  11.496  23.551  0.00  0.00     0.021 A 
ATOM      8  C   UNL d   1     -46.455  13.574  23.079  0.00  0.00    -0.001 A 
ATOM      9  C   UNL d   1     -46.494  12.060  23.614  0.00  0.00    -0.022 A 
ATOM     10  C   UNL d   1     -46.789  12.334  23.458  0.00  0.00    -0.022 A 
ENDROOT
BRANCH   1  11
ATOM     11  C   UNL d   1     -48.886  11.827  23.228  0.00  0.00     0.004 C 
BRANCH  11  12
ATOM     12  C   UNL d   1     -49.538  12.241  22.939  0.00  0.00     0.118 C 
ATOM     13  N   UNL d   1     -50.285  11.877  22.925  0.00  0.00    -0.147 N 
ENDBRANCH  11  12
ENDBRANCH   1  11
TORSDOF 2
ENDMDL
MODEL 3
REMARK VINA RESULT:      -7.1      2.436      3.479
REMARK  2 active torsions:
REMARK  status: ('A' for Active; 'I' for Inactive)
REMARK    1  A    between atoms: C_11  and  C_1 
REMARK    2  A    between atoms: C_13  and  C_11 
ROOT
ATOM      1  C   UNL d   1     -48.725  11.835  23.043  0.00  0.00     0.058 A 
ATOM      2  C   UNL d   1     -49.529  12.302  22.056  0.00  0.00    -0.008 A 
ATOM      3  C   UNL d   1     -49.924  12.283  22.336  0.00  0.00    -0.008 A 
ATOM      4  C   UNL d   1     -49.977  11.901  23.541  0.00  0.00     0.045 A 
ATOM      5  C   UNL d   1     -49.212  12.097  22.508  0.00  0.00    -0.019 A 
ATOM      6  C   UNL d   1     -48.758  12.109  22.216  0.00  0.00    -0.019 A 
ATOM      7  C   UNL d   1     -49.213  11.711  23.697  0.00  0.00     0.021 A 
ATOM      8  C   UNL d   1     -50.025  12.588  21.451  0.00  0.00    -0.001 A 
ATOM      9  C   UNL d   1     -50.392  12.166  22.957  0.00  0.00    -0.022 A 
ATOM     10  C   UNL d   1     -50.028  12.175  22.725  0.00  0.00    -0.022 A 
ENDROOT
BRANCH   1  11
ATOM     11  C   UNL d   1     -48.097  11.569  23.509  0.00  0.00     0.004 C 
BRANCH  11  12
ATOM     12  C   UNL d   1     -47.326  11.761  23.290  0.00  0.00     0.118 C 
ATOM     13  N   UNL d   1     -46.686  11.424  23.698  0.00  0.00    -0.147 N 
ENDBRANCH  11  12
ENDBRANCH   1  11
TORSDOF 2
ENDMDL
MODEL 4
REMARK VINA RESULT:      -6.9      1.341      2.179
REMARK  2 active torsions:
REMARK  status: ('A' for Active; 'I' for Inactive)
REMARK    1  A    between atoms: C_11  and  C_1 
REMARK    2  A    between atoms: C_13  and  C_11 
ROOT
ATOM      1  C   UNL d   1     -47.364  12.711  23.306  0.00  0.00     0.058 A 
ATOM      2  C   UNL d   1     -48.595  12.145  23.344  0.00  0.00    -0.008 A 
ATOM      3  C   UNL d   1     -48.420  11.716  23.485  0.00  0.00    -0.008 A 
ATOM      4  C   UNL d   1     -47.205  11.428  23.690  0.00  0.00     0.045 A 
ATOM      5  C   UNL d   1     -48.046  12.356  23.339  0.00  0.00    -0.019 A 
ATOM      6  C   UNL d   1     -48.216  12.843  23.182  0.00  0.00    -0.019 A 
ATOM      7  C   UNL d   1     -46.833  12.120  23.529  0.00  0.00     0.021 A 
ATOM      8  C   UNL d   1     -49.350  11.795  23.368  0.00  0.00    -0.001 A 
ATOM      9  C   UNL d   1     -47.917  11.149  23.698  0.00  0.00    -0.022 A 
ATOM     10  C   UNL d   1     -48.052  11.541  23.572  0.00  0.00    -0.022 A 
ENDROOT
BRANCH   1  11
ATOM     11  C   UNL d   1     -46.713  13.213  23.228  0.00  0.00     0.004 C 
BRANCH  11  12
ATOM     12  C   UNL d   1     -46.828  13.977  22.940  0.00  0.00     0.118 C 
ATOM     13  N   UNL d   1     -46.171  14.455  22.766  0.00  0.00    -0.147 N 
ENDBRANCH  11  12
ENDBRANCH   1  11
TORSDOF 2
ENDMDL
