MODEL 1
REMARK VINA RESULT:      31.0      0.000      0.000
REMARK  3 active torsions:
REMARK  status: ('A' for Active; 'I' for Inactive)
REMARK    1  A    between atoms: C_4  and  N_1 
REMARK    2  A    between atoms: S_5  and  C_6 
REMARK    3  A    between atoms: C_9  and  S_5 
ROOT
ATOM      1  C   UNL d   1     -50.843  25.316  33.553  0.00  0.00     0.078 A 
ATOM      2  C   UNL d   1     -50.837  26.096  33.852  0.00  0.00     0.080 A 
ATOM      3  C   UNL d   1     -50.138  24.965  33.308  0.00  0.00     0.018 A 
ATOM      4  C   UNL d   1     -50.123  26.509  33.900  0.00  0.00     0.010 A 
ATOM      5  C   UNL d   1     -49.428  25.380  33.358  0.00  0.00     0.002 A 
ATOM      6  C   UNL d   1     -49.419  26.156  33.655  0.00  0.00     0.001 A 
ENDROOT
BRANCH   1   7
ATOM      7  N   UNL d   1     -51.550  24.901  33.503  0.00  0.00    -0.241 N 
ATOM      8  C   UNL d   1     -51.637  24.082  33.526  0.00  0.00     0.267 A 
ATOM      9  C   UNL d   1     -52.439  23.910  33.458  0.00  0.00     0.061 A 
ATOM     10  O   UNL d   1     -51.027  23.530  33.605  0.00  0.00    -0.267 OA
ATOM     11  C   UNL d   1     -52.844  23.198  33.448  0.00  0.00     0.005 A 
ATOM     12  C   UNL d   1     -52.850  24.617  33.393  0.00  0.00     0.061 A 
ATOM     13  C   UNL d   1     -53.667  23.191  33.372  0.00  0.00     0.000 A 
ATOM     14  C   UNL d   1     -54.076  23.910  33.306  0.00  0.00     0.000 A 
ATOM     15  C   UNL d   1     -53.666  24.619  33.317  0.00  0.00     0.005 A 
ATOM     16  C   UNL d   1     -52.303  25.234  33.420  0.00  0.00     0.267 A 
ATOM     17  O   UNL d   1     -52.474  26.042  33.372  0.00  0.00    -0.267 OA
ENDBRANCH   1   7
BRANCH   2  18
ATOM     18  S   UNL d   1     -51.542  26.448  34.097  0.00  0.00     0.160 S 
ATOM     19  O   UNL d   1     -52.172  26.569  34.491  0.00  0.00    -0.244 OA
BRANCH  18  20
ATOM     20  C   UNL d   1     -51.818  27.122  33.711  0.00  0.00     0.477 C 
ATOM     21  F   UNL d   1     -51.434  27.890  33.603  0.00  0.00    -0.158 F 
ATOM     22  F   UNL d   1     -52.572  27.250  33.306  0.00  0.00    -0.158 F 
ATOM     23  F   UNL d   1     -52.070  27.736  33.360  0.00  0.00    -0.158 F 
ENDBRANCH  18  20
ENDBRANCH   2  18
TORSDOF 3
ENDMDL
