MODEL 1
REMARK VINA RESULT:      27.7      0.000      0.000
REMARK  6 active torsions:
REMARK  status: ('A' for Active; 'I' for Inactive)
REMARK    1  A    between atoms: N_3  and  S_1 
REMARK    2  A    between atoms: C_11  and  S_1 
REMARK    3  A    between atoms: C_2  and  N_3 
REMARK    4  A    between atoms: C_5  and  C_7 
REMARK       I    between atoms: C_7  and  N_12 
REMARK    5  A    between atoms: C_27  and  C_9 
REMARK    6  A    between atoms: N_12  and  C_20 
ROOT
ATOM      1  C   UNL d   1      45.730 -15.951  44.005  0.00  0.00     0.105 A 
ATOM      2  C   UNL d   1      45.480 -15.617  44.716  0.00  0.00     0.015 A 
ATOM      3  C   UNL d   1      46.274 -15.563  43.531  0.00  0.00     0.015 A 
ATOM      4  C   UNL d   1      46.332 -14.495  44.471  0.00  0.00     0.085 A 
ATOM      5  C   UNL d   1      45.788 -14.882  44.945  0.00  0.00     0.020 A 
ATOM      6  C   UNL d   1      46.575 -14.837  43.762  0.00  0.00     0.020 A 
ENDROOT
BRANCH   1   7
ATOM      7  S   UNL d   1      45.421 -16.695  43.768  0.00  0.00     0.287 S 
ATOM      8  O   UNL d   1      44.663 -16.369  43.746  0.00  0.00    -0.198 OA
ATOM      9  O   UNL d   1      45.132 -17.433  43.536  0.00  0.00    -0.198 OA
BRANCH   7  10
ATOM     10  N   UNL d   1      46.190 -17.013  43.794  0.00  0.00    -0.130 NA
BRANCH  10  11
ATOM     11  C   UNL d   1      46.310 -17.827  43.696  0.00  0.00     0.227 A 
ATOM     12  S   UNL d   1      46.240 -18.222  43.000  0.00  0.00    -0.025 SA
ATOM     13  C   UNL d   1      46.409 -19.040  43.149  0.00  0.00     0.135 A 
ATOM     14  N   UNL d   1      46.581 -19.116  43.962  0.00  0.00    -0.139 NA
ATOM     15  N   UNL d   1      46.514 -18.344  44.287  0.00  0.00    -0.120 NA
BRANCH  13  16
ATOM     16  C   UNL d   1      46.431 -19.709  42.677  0.00  0.00     0.028 C 
ATOM     17  C   UNL d   1      46.615 -19.624  41.868  0.00  0.00     0.002 C 
ENDBRANCH  13  16
ENDBRANCH  10  11
ENDBRANCH   7  10
ENDBRANCH   1   7
BRANCH   4  18
ATOM     18  N   UNL d   1      46.647 -13.751  44.697  0.00  0.00    -0.208 NA
ATOM     19  C   UNL d   1      46.213 -13.058  44.547  0.00  0.00     0.280 C 
ATOM     20  O   UNL d   1      46.511 -12.325  44.763  0.00  0.00    -0.265 OA
BRANCH  19  21
ATOM     21  C   UNL d   1      45.476 -13.111  44.176  0.00  0.00     0.069 A 
ATOM     22  C   UNL d   1      45.355 -12.753  43.446  0.00  0.00     0.063 A 
ATOM     23  C   UNL d   1      44.625 -12.806  43.079  0.00  0.00     0.023 A 
ATOM     24 CL   UNL d   1      45.959 -12.342  43.079  0.00  0.00    -0.082 Cl
ATOM     25  C   UNL d   1      43.995 -13.217  43.430  0.00  0.00     0.059 A 
ATOM     26  C   UNL d   1      44.127 -13.581  44.178  0.00  0.00     0.012 A 
ATOM     27 CL   UNL d   1      43.258 -13.270  43.059  0.00  0.00    -0.082 Cl
ATOM     28  C   UNL d   1      44.857 -13.528  44.546  0.00  0.00     0.006 A 
ENDBRANCH  19  21
ENDBRANCH   4  18
TORSDOF 6
ENDMDL
