MODEL 1
REMARK VINA RESULT:      -7.9      0.000      0.000
REMARK  3 active torsions:
REMARK  status: ('A' for Active; 'I' for Inactive)
REMARK    1  A    between atoms: N_2  and  S_1 
REMARK    2  A    between atoms: C_3  and  C_7 
REMARK       I    between atoms: N_4  and  C_3 
REMARK    3  A    between atoms: C_13  and  N_4 
ROOT
ATOM      1  N   UNL d   1      49.925  34.501  51.975  0.00  0.00    -0.233 N 
ATOM      2  C   UNL d   1      51.373  34.373  52.726  0.00  0.00     0.061 A 
ATOM      3  C   UNL d   1      50.609  34.358  51.537  0.00  0.00     0.091 A 
ATOM      4  C   UNL d   1      49.971  34.578  52.780  0.00  0.00     0.091 A 
ATOM      5  C   UNL d   1      50.690  34.516  53.164  0.00  0.00     0.025 A 
ATOM      6  C   UNL d   1      51.336  34.293  51.906  0.00  0.00     0.025 A 
ENDROOT
BRANCH   2   7
ATOM      7  C   UNL d   1      52.110  34.309  53.108  0.00  0.00     0.279 C 
ATOM      8  N   UNL d   1      52.225  33.701  53.664  0.00  0.00    -0.208 NA
ATOM      9  O   UNL d   1      52.711  34.833  52.940  0.00  0.00    -0.265 OA
BRANCH   8  10
ATOM     10  C   UNL d   1      52.956  33.632  54.048  0.00  0.00     0.085 A 
ATOM     11  C   UNL d   1      53.507  33.056  53.798  0.00  0.00     0.019 A 
ATOM     12  C   UNL d   1      54.236  32.994  54.187  0.00  0.00     0.002 A 
ATOM     13  C   UNL d   1      54.418  33.494  54.815  0.00  0.00     0.000 A 
ATOM     14  C   UNL d   1      53.870  34.068  55.063  0.00  0.00     0.002 A 
ATOM     15  C   UNL d   1      55.147  33.429  55.201  0.00  0.00     0.000 C 
ATOM     16  C   UNL d   1      53.144  34.131  54.677  0.00  0.00     0.019 A 
ENDBRANCH   8  10
ENDBRANCH   2   7
BRANCH   1  17
ATOM     17  S   UNL d   1      49.195  34.564  51.589  0.00  0.00     0.252 S 
ATOM     18  O   UNL d   1      49.486  34.103  50.969  0.00  0.00    -0.204 OA
ATOM     19  O   UNL d   1      48.927  35.058  52.282  0.00  0.00    -0.204 OA
ATOM     20  C   UNL d   1      48.474  34.628  51.210  0.00  0.00     0.164 C 
ENDBRANCH   1  17
TORSDOF 3
ENDMDL
MODEL 2
REMARK VINA RESULT:      -7.8      1.815      4.724
REMARK  3 active torsions:
REMARK  status: ('A' for Active; 'I' for Inactive)
REMARK    1  A    between atoms: N_2  and  S_1 
REMARK    2  A    between atoms: C_3  and  C_7 
REMARK       I    between atoms: N_4  and  C_3 
REMARK    3  A    between atoms: C_13  and  N_4 
ROOT
ATOM      1  N   UNL d   1      53.560  33.748  54.432  0.00  0.00    -0.233 N 
ATOM      2  C   UNL d   1      52.322  34.144  53.437  0.00  0.00     0.061 A 
ATOM      3  C   UNL d   1      53.258  34.515  54.431  0.00  0.00     0.091 A 
ATOM      4  C   UNL d   1      53.243  33.189  53.939  0.00  0.00     0.091 A 
ATOM      5  C   UNL d   1      52.624  33.377  53.439  0.00  0.00     0.025 A 
ATOM      6  C   UNL d   1      52.639  34.720  53.936  0.00  0.00     0.025 A 
ENDROOT
BRANCH   2   7
ATOM      7  C   UNL d   1      51.693  34.345  52.931  0.00  0.00     0.279 C 
ATOM      8  N   UNL d   1      50.919  34.126  53.142  0.00  0.00    -0.208 NA
ATOM      9  O   UNL d   1      51.832  34.751  52.239  0.00  0.00    -0.265 OA
BRANCH   8  10
ATOM     10  C   UNL d   1      50.288  34.323  52.642  0.00  0.00     0.085 A 
ATOM     11  C   UNL d   1      50.251  34.007  51.870  0.00  0.00     0.019 A 
ATOM     12  C   UNL d   1      49.617  34.209  51.377  0.00  0.00     0.002 A 
ATOM     13  C   UNL d   1      49.027  34.719  51.643  0.00  0.00     0.000 A 
ATOM     14  C   UNL d   1      49.064  35.034  52.411  0.00  0.00     0.002 A 
ATOM     15  C   UNL d   1      48.396  34.919  51.147  0.00  0.00     0.000 C 
ATOM     16  C   UNL d   1      49.695  34.833  52.903  0.00  0.00     0.019 A 
ENDBRANCH   8  10
ENDBRANCH   2   7
BRANCH   1  17
ATOM     17  S   UNL d   1      54.186  33.555  54.938  0.00  0.00     0.252 S 
ATOM     18  O   UNL d   1      54.419  34.346  54.948  0.00  0.00    -0.204 OA
ATOM     19  O   UNL d   1      53.895  32.712  54.895  0.00  0.00    -0.204 OA
ATOM     20  C   UNL d   1      54.804  33.361  55.437  0.00  0.00     0.164 C 
ENDBRANCH   1  17
TORSDOF 3
ENDMDL
MODEL 3
REMARK VINA RESULT:      -7.1      1.591      2.568
REMARK  3 active torsions:
REMARK  status: ('A' for Active; 'I' for Inactive)
REMARK    1  A    between atoms: N_2  and  S_1 
REMARK    2  A    between atoms: C_3  and  C_7 
REMARK       I    between atoms: N_4  and  C_3 
REMARK    3  A    between atoms: C_13  and  N_4 
ROOT
ATOM      1  N   UNL d   1      47.673  35.570  51.934  0.00  0.00    -0.233 N 
ATOM      2  C   UNL d   1      49.142  34.870  52.108  0.00  0.00     0.061 A 
ATOM      3  C   UNL d   1      48.004  35.140  51.313  0.00  0.00     0.091 A 
ATOM      4  C   UNL d   1      48.077  35.646  52.632  0.00  0.00     0.091 A 
ATOM      5  C   UNL d   1      48.811  35.300  52.728  0.00  0.00     0.025 A 
ATOM      6  C   UNL d   1      48.738  34.788  51.393  0.00  0.00     0.025 A 
ENDROOT
BRANCH   2   7
ATOM      7  C   UNL d   1      49.889  34.515  52.196  0.00  0.00     0.279 C 
ATOM      8  N   UNL d   1      50.225  34.462  52.955  0.00  0.00    -0.208 NA
ATOM      9  O   UNL d   1      50.287  34.221  51.548  0.00  0.00    -0.265 OA
BRANCH   8  10
ATOM     10  C   UNL d   1      50.969  34.109  53.049  0.00  0.00     0.085 A 
ATOM     11  C   UNL d   1      51.029  33.285  53.170  0.00  0.00     0.019 A 
ATOM     12  C   UNL d   1      51.776  32.940  53.263  0.00  0.00     0.002 A 
ATOM     13  C   UNL d   1      52.456  33.404  53.237  0.00  0.00     0.000 A 
ATOM     14  C   UNL d   1      52.397  34.224  53.117  0.00  0.00     0.002 A 
ATOM     15  C   UNL d   1      53.200  33.056  53.331  0.00  0.00     0.000 C 
ATOM     16  C   UNL d   1      51.653  34.569  53.024  0.00  0.00     0.019 A 
ENDBRANCH   8  10
ENDBRANCH   2   7
BRANCH   1  17
ATOM     17  S   UNL d   1      46.929  35.921  51.839  0.00  0.00     0.252 S 
ATOM     18  O   UNL d   1      47.249  36.650  52.059  0.00  0.00    -0.204 OA
ATOM     19  O   UNL d   1      46.632  35.113  51.608  0.00  0.00    -0.204 OA
ATOM     20  C   UNL d   1      46.194  36.265  51.745  0.00  0.00     0.164 C 
ENDBRANCH   1  17
TORSDOF 3
ENDMDL
MODEL 4
REMARK VINA RESULT:      -6.8      3.008      4.176
REMARK  3 active torsions:
REMARK  status: ('A' for Active; 'I' for Inactive)
REMARK    1  A    between atoms: N_2  and  S_1 
REMARK    2  A    between atoms: C_3  and  C_7 
REMARK       I    between atoms: N_4  and  C_3 
REMARK    3  A    between atoms: C_13  and  N_4 
ROOT
ATOM      1  N   UNL d   1      53.063  30.399  53.474  0.00  0.00    -0.233 N 
ATOM      2  C   UNL d   1      53.276  32.013  53.642  0.00  0.00     0.061 A 
ATOM      3  C   UNL d   1      52.712  30.921  52.942  0.00  0.00     0.091 A 
ATOM      4  C   UNL d   1      53.514  30.686  54.083  0.00  0.00     0.091 A 
ATOM      5  C   UNL d   1      53.626  31.490  54.174  0.00  0.00     0.025 A 
ATOM      6  C   UNL d   1      52.814  31.729  53.020  0.00  0.00     0.025 A 
ENDROOT
BRANCH   2   7
ATOM      7  C   UNL d   1      53.384  32.833  53.727  0.00  0.00     0.279 C 
ATOM      8  N   UNL d   1      52.849  33.265  54.194  0.00  0.00    -0.208 NA
ATOM      9  O   UNL d   1      54.006  33.209  53.358  0.00  0.00    -0.265 OA
BRANCH   8  10
ATOM     10  C   UNL d   1      52.952  34.083  54.283  0.00  0.00     0.085 A 
ATOM     11  C   UNL d   1      53.369  34.384  54.941  0.00  0.00     0.019 A 
ATOM     12  C   UNL d   1      53.467  35.202  55.022  0.00  0.00     0.002 A 
ATOM     13  C   UNL d   1      53.157  35.718  54.459  0.00  0.00     0.000 A 
ATOM     14  C   UNL d   1      52.743  35.418  53.804  0.00  0.00     0.002 A 
ATOM     15  C   UNL d   1      53.258  36.534  54.543  0.00  0.00     0.000 C 
ATOM     16  C   UNL d   1      52.644  34.604  53.722  0.00  0.00     0.019 A 
ENDBRANCH   8  10
ENDBRANCH   2   7
BRANCH   1  17
ATOM     17  S   UNL d   1      52.951  29.583  53.384  0.00  0.00     0.252 S 
ATOM     18  O   UNL d   1      52.140  29.707  53.292  0.00  0.00    -0.204 OA
ATOM     19  O   UNL d   1      53.833  29.501  53.490  0.00  0.00    -0.204 OA
ATOM     20  C   UNL d   1      52.844  28.778  53.295  0.00  0.00     0.164 C 
ENDBRANCH   1  17
TORSDOF 3
ENDMDL
MODEL 5
REMARK VINA RESULT:      -6.6      2.781      3.980
REMARK  3 active torsions:
REMARK  status: ('A' for Active; 'I' for Inactive)
REMARK    1  A    between atoms: N_2  and  S_1 
REMARK    2  A    between atoms: C_3  and  C_7 
REMARK       I    between atoms: N_4  and  C_3 
REMARK    3  A    between atoms: C_13  and  N_4 
ROOT
ATOM      1  N   UNL d   1      53.250  34.778  54.417  0.00  0.00    -0.233 N 
ATOM      2  C   UNL d   1      53.424  33.200  54.018  0.00  0.00     0.061 A 
ATOM      3  C   UNL d   1      52.782  34.445  53.826  0.00  0.00     0.091 A 
ATOM      4  C   UNL d   1      53.798  34.321  54.802  0.00  0.00     0.091 A 
ATOM      5  C   UNL d   1      53.892  33.533  54.609  0.00  0.00     0.025 A 
ATOM      6  C   UNL d   1      52.863  33.657  53.621  0.00  0.00     0.025 A 
ENDROOT
BRANCH   2   7
ATOM      7  C   UNL d   1      53.513  32.398  53.815  0.00  0.00     0.279 C 
ATOM      8  N   UNL d   1      52.876  31.878  53.935  0.00  0.00    -0.208 NA
ATOM      9  O   UNL d   1      54.214  32.125  53.502  0.00  0.00    -0.265 OA
BRANCH   8  10
ATOM     10  C   UNL d   1      52.958  31.078  53.735  0.00  0.00     0.085 A 
ATOM     11  C   UNL d   1      52.728  30.810  52.978  0.00  0.00     0.019 A 
ATOM     12  C   UNL d   1      52.814  30.009  52.786  0.00  0.00     0.002 A 
ATOM     13  C   UNL d   1      53.124  29.478  53.335  0.00  0.00     0.000 A 
ATOM     14  C   UNL d   1      53.353  29.745  54.088  0.00  0.00     0.002 A 
ATOM     15  C   UNL d   1      53.208  28.679  53.140  0.00  0.00     0.000 C 
ATOM     16  C   UNL d   1      53.268  30.542  54.281  0.00  0.00     0.019 A 
ENDBRANCH   8  10
ENDBRANCH   2   7
BRANCH   1  17
ATOM     17  S   UNL d   1      53.157  35.576  54.614  0.00  0.00     0.252 S 
ATOM     18  O   UNL d   1      53.112  35.766  53.813  0.00  0.00    -0.204 OA
ATOM     19  O   UNL d   1      53.211  35.321  55.467  0.00  0.00    -0.204 OA
ATOM     20  C   UNL d   1      53.065  36.364  54.812  0.00  0.00     0.164 C 
ENDBRANCH   1  17
TORSDOF 3
ENDMDL
MODEL 6
REMARK VINA RESULT:      -5.9     10.130     10.991
REMARK  3 active torsions:
REMARK  status: ('A' for Active; 'I' for Inactive)
REMARK    1  A    between atoms: N_2  and  S_1 
REMARK    2  A    between atoms: C_3  and  C_7 
REMARK       I    between atoms: N_4  and  C_3 
REMARK    3  A    between atoms: C_13  and  N_4 
ROOT
ATOM      1  N   UNL d   1      45.017  29.396  58.038  0.00  0.00    -0.233 N 
ATOM      2  C   UNL d   1      45.081  27.933  57.308  0.00  0.00     0.061 A 
ATOM      3  C   UNL d   1      44.996  29.341  57.216  0.00  0.00     0.091 A 
ATOM      4  C   UNL d   1      45.070  28.723  58.486  0.00  0.00     0.091 A 
ATOM      5  C   UNL d   1      45.103  27.988  58.130  0.00  0.00     0.025 A 
ATOM      6  C   UNL d   1      45.027  28.613  56.844  0.00  0.00     0.025 A 
ENDROOT
BRANCH   2   7
ATOM      7  C   UNL d   1      45.114  27.189  56.937  0.00  0.00     0.279 C 
ATOM      8  N   UNL d   1      44.426  26.724  56.902  0.00  0.00    -0.208 NA
ATOM      9  O   UNL d   1      45.811  26.919  56.612  0.00  0.00    -0.265 OA
BRANCH   8  10
ATOM     10  C   UNL d   1      44.452  25.982  56.533  0.00  0.00     0.085 A 
ATOM     11  C   UNL d   1      44.314  25.917  55.712  0.00  0.00     0.019 A 
ATOM     12  C   UNL d   1      44.343  25.172  55.352  0.00  0.00     0.002 A 
ATOM     13  C   UNL d   1      44.506  24.498  55.798  0.00  0.00     0.000 A 
ATOM     14  C   UNL d   1      44.643  24.563  56.615  0.00  0.00     0.002 A 
ATOM     15  C   UNL d   1      44.534  23.756  55.434  0.00  0.00     0.000 C 
ATOM     16  C   UNL d   1      44.615  25.304  56.975  0.00  0.00     0.019 A 
ENDBRANCH   8  10
ENDBRANCH   2   7
BRANCH   1  17
ATOM     17  S   UNL d   1      44.984  30.140  58.401  0.00  0.00     0.252 S 
ATOM     18  O   UNL d   1      44.314  30.324  57.956  0.00  0.00    -0.204 OA
ATOM     19  O   UNL d   1      45.709  29.893  58.859  0.00  0.00    -0.204 OA
ATOM     20  C   UNL d   1      44.954  30.873  58.761  0.00  0.00     0.164 C 
ENDBRANCH   1  17
TORSDOF 3
ENDMDL
