MODEL 1
REMARK VINA RESULT:      -8.8      0.000      0.000
REMARK  3 active torsions:
REMARK  status: ('A' for Active; 'I' for Inactive)
REMARK    1  A    between atoms: N_7  and  C_2 
REMARK    2  A    between atoms: C_10  and  N_7 
REMARK    3  A    between atoms: C_12  and  C_10 
ROOT
ATOM      1  C   UNL d   1     -46.959  13.963  22.814  0.00  0.00     0.184 A 
ATOM      2  C   UNL d   1     -47.571  13.481  23.002  0.00  0.00     0.108 A 
ATOM      3  C   UNL d   1     -46.166  13.673  22.854  0.00  0.00     0.321 A 
ATOM      4  O   UNL d   1     -46.021  12.914  23.080  0.00  0.00    -0.272 OA
ATOM      5  C   UNL d   1     -47.428  12.700  23.235  0.00  0.00     0.042 A 
ATOM      6  C   UNL d   1     -46.648  12.415  23.274  0.00  0.00     0.105 A 
ATOM      7  O   UNL d   1     -45.519  14.175  22.658  0.00  0.00    -0.257 OA
ATOM      8  N   UNL d   1     -47.122  14.761  22.577  0.00  0.00    -0.141 N 
ATOM      9  C   UNL d   1     -48.056  12.213  23.426  0.00  0.00     0.004 A 
ATOM     10  C   UNL d   1     -46.506  11.646  23.503  0.00  0.00     0.025 A 
ATOM     11  C   UNL d   1     -47.925  11.438  23.658  0.00  0.00     0.000 A 
ATOM     12  C   UNL d   1     -47.132  11.148  23.697  0.00  0.00     0.002 A 
ENDROOT
BRANCH   2  13
ATOM     13  N   UNL d   1     -48.346  13.765  22.964  0.00  0.00    -0.242 NA
BRANCH  13  14
ATOM     14  C   UNL d   1     -48.629  14.012  22.242  0.00  0.00     0.099 C 
BRANCH  14  15
ATOM     15  C   UNL d   1     -49.458  14.155  22.167  0.00  0.00     0.019 A 
ATOM     16  C   UNL d   1     -49.807  14.705  22.644  0.00  0.00     0.002 A 
ATOM     17  C   UNL d   1     -50.618  14.844  22.570  0.00  0.00     0.000 A 
ATOM     18  C   UNL d   1     -51.060  14.432  22.020  0.00  0.00     0.000 A 
ATOM     19  C   UNL d   1     -50.692  13.869  21.534  0.00  0.00     0.000 A 
ATOM     20  C   UNL d   1     -49.881  13.731  21.610  0.00  0.00     0.002 A 
ENDBRANCH  14  15
ENDBRANCH  13  14
ENDBRANCH   2  13
TORSDOF 3
ENDMDL
MODEL 2
REMARK VINA RESULT:      -8.2      1.772      3.773
REMARK  3 active torsions:
REMARK  status: ('A' for Active; 'I' for Inactive)
REMARK    1  A    between atoms: N_7  and  C_2 
REMARK    2  A    between atoms: C_10  and  N_7 
REMARK    3  A    between atoms: C_12  and  C_10 
ROOT
ATOM      1  C   UNL d   1     -49.194  14.912  22.662  0.00  0.00     0.184 A 
ATOM      2  C   UNL d   1     -49.027  14.200  22.336  0.00  0.00     0.108 A 
ATOM      3  C   UNL d   1     -49.996  15.174  22.716  0.00  0.00     0.321 A 
ATOM      4  O   UNL d   1     -50.594  14.711  22.442  0.00  0.00    -0.272 OA
ATOM      5  C   UNL d   1     -49.638  13.720  22.052  0.00  0.00     0.042 A 
ATOM      6  C   UNL d   1     -50.427  13.977  22.105  0.00  0.00     0.105 A 
ATOM      7  O   UNL d   1     -50.177  15.922  23.058  0.00  0.00    -0.257 OA
ATOM      8  N   UNL d   1     -48.556  15.393  22.949  0.00  0.00    -0.141 N 
ATOM      9  C   UNL d   1     -49.462  12.994  21.720  0.00  0.00     0.004 A 
ATOM     10  C   UNL d   1     -51.029  13.506  21.826  0.00  0.00     0.025 A 
ATOM     11  C   UNL d   1     -50.060  12.511  21.436  0.00  0.00     0.000 A 
ATOM     12  C   UNL d   1     -50.862  12.773  21.490  0.00  0.00     0.002 A 
ENDROOT
BRANCH   2  13
ATOM     13  N   UNL d   1     -48.243  13.944  22.284  0.00  0.00    -0.242 NA
BRANCH  13  14
ATOM     14  C   UNL d   1     -47.833  13.817  22.975  0.00  0.00     0.099 C 
BRANCH  14  15
ATOM     15  C   UNL d   1     -47.088  13.421  22.930  0.00  0.00     0.019 A 
ATOM     16  C   UNL d   1     -46.519  13.709  22.436  0.00  0.00     0.002 A 
ATOM     17  C   UNL d   1     -45.791  13.322  22.392  0.00  0.00     0.000 A 
ATOM     18  C   UNL d   1     -45.650  12.655  22.843  0.00  0.00     0.000 A 
ATOM     19  C   UNL d   1     -46.242  12.366  23.348  0.00  0.00     0.000 A 
ATOM     20  C   UNL d   1     -46.969  12.756  23.390  0.00  0.00     0.002 A 
ENDBRANCH  14  15
ENDBRANCH  13  14
ENDBRANCH   2  13
TORSDOF 3
ENDMDL
MODEL 3
REMARK VINA RESULT:      -8.1      1.968      3.957
REMARK  3 active torsions:
REMARK  status: ('A' for Active; 'I' for Inactive)
REMARK    1  A    between atoms: N_7  and  C_2 
REMARK    2  A    between atoms: C_10  and  N_7 
REMARK    3  A    between atoms: C_12  and  C_10 
ROOT
ATOM      1  C   UNL d   1     -49.227  11.976  23.021  0.00  0.00     0.184 A 
ATOM      2  C   UNL d   1     -49.057  12.591  22.536  0.00  0.00     0.108 A 
ATOM      3  C   UNL d   1     -50.031  11.775  23.182  0.00  0.00     0.321 A 
ATOM      4  O   UNL d   1     -50.631  12.197  22.851  0.00  0.00    -0.272 OA
ATOM      5  C   UNL d   1     -49.669  13.029  22.192  0.00  0.00     0.042 A 
ATOM      6  C   UNL d   1     -50.462  12.830  22.350  0.00  0.00     0.105 A 
ATOM      7  O   UNL d   1     -50.215  11.130  23.692  0.00  0.00    -0.257 OA
ATOM      8  N   UNL d   1     -48.588  11.537  23.366  0.00  0.00    -0.141 N 
ATOM      9  C   UNL d   1     -49.491  13.654  21.697  0.00  0.00     0.004 A 
ATOM     10  C   UNL d   1     -51.064  13.261  22.012  0.00  0.00     0.025 A 
ATOM     11  C   UNL d   1     -50.090  14.094  21.351  0.00  0.00     0.000 A 
ATOM     12  C   UNL d   1     -50.895  13.893  21.512  0.00  0.00     0.002 A 
ENDROOT
BRANCH   2  13
ATOM     13  N   UNL d   1     -48.271  12.787  22.378  0.00  0.00    -0.242 NA
BRANCH  13  14
ATOM     14  C   UNL d   1     -47.830  13.116  22.977  0.00  0.00     0.099 C 
BRANCH  14  15
ATOM     15  C   UNL d   1     -47.045  13.374  22.800  0.00  0.00     0.019 A 
ATOM     16  C   UNL d   1     -46.534  12.862  22.442  0.00  0.00     0.002 A 
ATOM     17  C   UNL d   1     -45.767  13.115  22.268  0.00  0.00     0.000 A 
ATOM     18  C   UNL d   1     -45.530  13.873  22.456  0.00  0.00     0.000 A 
ATOM     19  C   UNL d   1     -46.062  14.393  22.824  0.00  0.00     0.000 A 
ATOM     20  C   UNL d   1     -46.829  14.138  22.997  0.00  0.00     0.002 A 
ENDBRANCH  14  15
ENDBRANCH  13  14
ENDBRANCH   2  13
TORSDOF 3
ENDMDL
MODEL 4
REMARK VINA RESULT:      -7.9      1.869      4.115
REMARK  3 active torsions:
REMARK  status: ('A' for Active; 'I' for Inactive)
REMARK    1  A    between atoms: N_7  and  C_2 
REMARK    2  A    between atoms: C_10  and  N_7 
REMARK    3  A    between atoms: C_12  and  C_10 
ROOT
ATOM      1  C   UNL d   1     -49.808  13.620  21.740  0.00  0.00     0.184 A 
ATOM      2  C   UNL d   1     -49.413  14.078  22.265  0.00  0.00     0.108 A 
ATOM      3  C   UNL d   1     -50.643  13.713  21.643  0.00  0.00     0.321 A 
ATOM      4  O   UNL d   1     -51.044  14.260  22.075  0.00  0.00    -0.272 OA
ATOM      5  C   UNL d   1     -49.820  14.642  22.712  0.00  0.00     0.042 A 
ATOM      6  C   UNL d   1     -50.642  14.734  22.617  0.00  0.00     0.105 A 
ATOM      7  O   UNL d   1     -51.064  13.234  21.092  0.00  0.00    -0.257 OA
ATOM      8  N   UNL d   1     -49.376  13.045  21.288  0.00  0.00    -0.141 N 
ATOM      9  C   UNL d   1     -49.412  15.107  23.246  0.00  0.00     0.004 A 
ATOM     10  C   UNL d   1     -51.043  15.289  23.056  0.00  0.00     0.025 A 
ATOM     11  C   UNL d   1     -49.807  15.669  23.694  0.00  0.00     0.000 A 
ATOM     12  C   UNL d   1     -50.641  15.763  23.597  0.00  0.00     0.002 A 
ENDROOT
BRANCH   2  13
ATOM     13  N   UNL d   1     -48.598  13.987  22.360  0.00  0.00    -0.242 NA
BRANCH  13  14
ATOM     14  C   UNL d   1     -48.325  13.297  22.693  0.00  0.00     0.099 C 
BRANCH  14  15
ATOM     15  C   UNL d   1     -47.493  13.217  22.820  0.00  0.00     0.019 A 
ATOM     16  C   UNL d   1     -46.992  13.761  22.496  0.00  0.00     0.002 A 
ATOM     17  C   UNL d   1     -46.179  13.683  22.621  0.00  0.00     0.000 A 
ATOM     18  C   UNL d   1     -45.887  13.063  23.066  0.00  0.00     0.000 A 
ATOM     19  C   UNL d   1     -46.410  12.509  23.395  0.00  0.00     0.000 A 
ATOM     20  C   UNL d   1     -47.223  12.589  23.269  0.00  0.00     0.002 A 
ENDBRANCH  14  15
ENDBRANCH  13  14
ENDBRANCH   2  13
TORSDOF 3
ENDMDL
MODEL 5
REMARK VINA RESULT:      -7.9      1.414      2.360
REMARK  3 active torsions:
REMARK  status: ('A' for Active; 'I' for Inactive)
REMARK    1  A    between atoms: N_7  and  C_2 
REMARK    2  A    between atoms: C_10  and  N_7 
REMARK    3  A    between atoms: C_12  and  C_10 
ROOT
ATOM      1  C   UNL d   1     -46.910  12.092  23.442  0.00  0.00     0.184 A 
ATOM      2  C   UNL d   1     -47.375  12.730  23.309  0.00  0.00     0.108 A 
ATOM      3  C   UNL d   1     -46.074  12.150  23.337  0.00  0.00     0.321 A 
ATOM      4  O   UNL d   1     -45.740  12.844  23.103  0.00  0.00    -0.272 OA
ATOM      5  C   UNL d   1     -47.038  13.446  23.068  0.00  0.00     0.042 A 
ATOM      6  C   UNL d   1     -46.215  13.504  22.964  0.00  0.00     0.105 A 
ATOM      7  O   UNL d   1     -45.579  11.482  23.476  0.00  0.00    -0.257 OA
ATOM      8  N   UNL d   1     -47.271  11.364  23.689  0.00  0.00    -0.141 N 
ATOM      9  C   UNL d   1     -47.518  14.094  22.933  0.00  0.00     0.004 A 
ATOM     10  C   UNL d   1     -45.883  14.208  22.727  0.00  0.00     0.025 A 
ATOM     11  C   UNL d   1     -47.193  14.808  22.694  0.00  0.00     0.000 A 
ATOM     12  C   UNL d   1     -46.357  14.867  22.589  0.00  0.00     0.002 A 
ENDROOT
BRANCH   2  13
ATOM     13  N   UNL d   1     -48.193  12.673  23.412  0.00  0.00    -0.242 NA
BRANCH  13  14
ATOM     14  C   UNL d   1     -48.597  12.118  22.976  0.00  0.00     0.099 C 
BRANCH  14  15
ATOM     15  C   UNL d   1     -49.439  12.179  22.934  0.00  0.00     0.019 A 
ATOM     16  C   UNL d   1     -49.786  12.344  22.224  0.00  0.00     0.002 A 
ATOM     17  C   UNL d   1     -50.609  12.404  22.184  0.00  0.00     0.000 A 
ATOM     18  C   UNL d   1     -51.064  12.296  22.853  0.00  0.00     0.000 A 
ATOM     19  C   UNL d   1     -50.698  12.127  23.579  0.00  0.00     0.000 A 
ATOM     20  C   UNL d   1     -49.875  12.068  23.616  0.00  0.00     0.002 A 
ENDBRANCH  14  15
ENDBRANCH  13  14
ENDBRANCH   2  13
TORSDOF 3
ENDMDL
MODEL 6
REMARK VINA RESULT:      -6.1      8.651      9.787
REMARK  3 active torsions:
REMARK  status: ('A' for Active; 'I' for Inactive)
REMARK    1  A    between atoms: N_7  and  C_2 
REMARK    2  A    between atoms: C_10  and  N_7 
REMARK    3  A    between atoms: C_12  and  C_10 
ROOT
ATOM      1  C   UNL d   1     -40.746  15.478  17.762  0.00  0.00     0.184 A 
ATOM      2  C   UNL d   1     -40.057  15.249  18.102  0.00  0.00     0.108 A 
ATOM      3  C   UNL d   1     -40.891  15.311  16.947  0.00  0.00     0.321 A 
ATOM      4  O   UNL d   1     -40.341  14.921  16.507  0.00  0.00    -0.272 OA
ATOM      5  C   UNL d   1     -39.488  14.848  17.655  0.00  0.00     0.042 A 
ATOM      6  C   UNL d   1     -39.631  14.683  16.852  0.00  0.00     0.105 A 
ATOM      7  O   UNL d   1     -41.613  15.550  16.585  0.00  0.00    -0.257 OA
ATOM      8  N   UNL d   1     -41.320  15.889  18.234  0.00  0.00    -0.141 N 
ATOM      9  C   UNL d   1     -38.787  14.616  18.006  0.00  0.00     0.004 A 
ATOM     10  C   UNL d   1     -39.071  14.289  16.411  0.00  0.00     0.025 A 
ATOM     11  C   UNL d   1     -38.217  14.218  17.571  0.00  0.00     0.000 A 
ATOM     12  C   UNL d   1     -38.362  14.051  16.756  0.00  0.00     0.002 A 
ENDROOT
BRANCH   2  13
ATOM     13  N   UNL d   1     -39.915  15.413  18.899  0.00  0.00    -0.242 NA
BRANCH  13  14
ATOM     14  C   UNL d   1     -40.446  15.133  19.448  0.00  0.00     0.099 C 
BRANCH  14  15
ATOM     15  C   UNL d   1     -40.230  15.168  20.265  0.00  0.00     0.019 A 
ATOM     16  C   UNL d   1     -40.104  15.888  20.607  0.00  0.00     0.002 A 
ATOM     17  C   UNL d   1     -39.893  15.922  21.405  0.00  0.00     0.000 A 
ATOM     18  C   UNL d   1     -39.813  15.235  21.841  0.00  0.00     0.000 A 
ATOM     19  C   UNL d   1     -39.944  14.500  21.480  0.00  0.00     0.000 A 
ATOM     20  C   UNL d   1     -40.155  14.469  20.682  0.00  0.00     0.002 A 
ENDBRANCH  14  15
ENDBRANCH  13  14
ENDBRANCH   2  13
TORSDOF 3
ENDMDL
