MODEL 1
REMARK VINA RESULT:      -3.7      0.000      0.000
REMARK  2 active torsions:
REMARK  status: ('A' for Active; 'I' for Inactive)
REMARK    1  A    between atoms: S_2  and  C_1 
REMARK    2  A    between atoms: N_3  and  S_2 
ROOT
ATOM      1  C   UNL d   1      31.727  17.531 -24.036  0.00  0.00     0.125 A 
ATOM      2  C   UNL d   1      32.199  18.049 -23.762  0.00  0.00    -0.009 A 
ATOM      3  C   UNL d   1      32.049  18.042 -23.392  0.00  0.00    -0.009 A 
ATOM      4  C   UNL d   1      31.827  17.367 -24.773  0.00  0.00     0.031 A 
ATOM      5  C   UNL d   1      32.598  18.445 -23.651  0.00  0.00    -0.007 A 
ATOM      6  C   UNL d   1      32.898  18.558 -24.105  0.00  0.00    -0.007 A 
ATOM      7  C   UNL d   1      32.473  17.836 -25.096  0.00  0.00     0.045 A 
ATOM      8  C   UNL d   1      33.237  19.083 -23.462  0.00  0.00    -0.001 A 
ATOM      9  C   UNL d   1      32.995  18.399 -24.821  0.00  0.00    -0.022 A 
ATOM     10  C   UNL d   1      32.746  18.247 -24.612  0.00  0.00    -0.022 A 
ENDROOT
BRANCH   1  11
ATOM     11  S   UNL d   1      31.001  16.784 -24.315  0.00  0.00     0.141 S 
ATOM     12  O   UNL d   1      31.305  16.464 -25.054  0.00  0.00    -0.233 OA
BRANCH  11  13
ATOM     13  N   UNL d   1      30.260  16.480 -23.981  0.00  0.00    -0.254 N 
ATOM     14  C   UNL d   1      30.348  15.862 -23.446  0.00  0.00     0.089 A 
ATOM     15  C   UNL d   1      29.757  15.454 -23.034  0.00  0.00     0.020 A 
ATOM     16  C   UNL d   1      28.950  15.567 -23.059  0.00  0.00     0.002 A 
ATOM     17  C   UNL d   1      28.516  16.112 -23.499  0.00  0.00     0.002 A 
ATOM     18  C   UNL d   1      28.786  16.690 -24.031  0.00  0.00     0.020 A 
ATOM     19  C   UNL d   1      29.564  16.849 -24.241  0.00  0.00     0.089 A 
ENDBRANCH  11  13
ENDBRANCH   1  11
TORSDOF 2
ENDMDL
MODEL 2
REMARK VINA RESULT:      -3.1      1.455      2.118
REMARK  2 active torsions:
REMARK  status: ('A' for Active; 'I' for Inactive)
REMARK    1  A    between atoms: S_2  and  C_1 
REMARK    2  A    between atoms: N_3  and  S_2 
ROOT
ATOM      1  C   UNL d   1      32.832  18.613 -23.153  0.00  0.00     0.125 A 
ATOM      2  C   UNL d   1      32.955  19.103 -22.596  0.00  0.00    -0.009 A 
ATOM      3  C   UNL d   1      32.892  18.840 -22.303  0.00  0.00    -0.009 A 
ATOM      4  C   UNL d   1      32.899  18.905 -23.854  0.00  0.00     0.031 A 
ATOM      5  C   UNL d   1      33.065  19.545 -22.249  0.00  0.00    -0.007 A 
ATOM      6  C   UNL d   1      33.176  20.005 -22.541  0.00  0.00    -0.007 A 
ATOM      7  C   UNL d   1      33.104  19.740 -23.809  0.00  0.00     0.045 A 
ATOM      8  C   UNL d   1      33.241  20.251 -21.681  0.00  0.00    -0.001 A 
ATOM      9  C   UNL d   1      33.241  20.288 -23.221  0.00  0.00    -0.022 A 
ATOM     10  C   UNL d   1      33.158  19.946 -23.152  0.00  0.00    -0.022 A 
ENDROOT
BRANCH   1  11
ATOM     11  S   UNL d   1      32.636  17.827 -23.865  0.00  0.00     0.141 S 
ATOM     12  O   UNL d   1      33.186  17.984 -24.508  0.00  0.00    -0.233 OA
BRANCH  11  13
ATOM     13  N   UNL d   1      32.096  17.148 -23.910  0.00  0.00    -0.254 N 
ATOM     14  C   UNL d   1      32.393  16.447 -23.602  0.00  0.00     0.089 A 
ATOM     15  C   UNL d   1      32.022  15.708 -23.562  0.00  0.00     0.020 A 
ATOM     16  C   UNL d   1      31.275  15.500 -23.816  0.00  0.00     0.002 A 
ATOM     17  C   UNL d   1      30.701  15.968 -24.178  0.00  0.00     0.002 A 
ATOM     18  C   UNL d   1      30.732  16.774 -24.377  0.00  0.00     0.020 A 
ATOM     19  C   UNL d   1      31.356  17.294 -24.255  0.00  0.00     0.089 A 
ENDBRANCH  11  13
ENDBRANCH   1  11
TORSDOF 2
ENDMDL
MODEL 3
REMARK VINA RESULT:      -2.8      3.415      4.919
REMARK  2 active torsions:
REMARK  status: ('A' for Active; 'I' for Inactive)
REMARK    1  A    between atoms: S_2  and  C_1 
REMARK    2  A    between atoms: N_3  and  S_2 
ROOT
ATOM      1  C   UNL d   1      32.972  21.292 -21.834  0.00  0.00     0.125 A 
ATOM      2  C   UNL d   1      32.944  22.043 -21.802  0.00  0.00    -0.009 A 
ATOM      3  C   UNL d   1      33.178  22.101 -22.120  0.00  0.00    -0.009 A 
ATOM      4  C   UNL d   1      32.573  20.935 -21.291  0.00  0.00     0.031 A 
ATOM      5  C   UNL d   1      32.861  22.599 -21.693  0.00  0.00    -0.007 A 
ATOM      6  C   UNL d   1      32.534  22.669 -21.250  0.00  0.00    -0.007 A 
ATOM      7  C   UNL d   1      32.192  21.510 -20.777  0.00  0.00     0.045 A 
ATOM      8  C   UNL d   1      32.734  23.498 -21.528  0.00  0.00    -0.001 A 
ATOM      9  C   UNL d   1      32.148  22.323 -20.723  0.00  0.00    -0.022 A 
ATOM     10  C   UNL d   1      32.337  22.155 -20.978  0.00  0.00    -0.022 A 
ENDROOT
BRANCH   1  11
ATOM     11  S   UNL d   1      33.084  20.229 -21.979  0.00  0.00     0.141 S 
ATOM     12  O   UNL d   1      33.240  19.925 -21.189  0.00  0.00    -0.233 OA
BRANCH  11  13
ATOM     13  N   UNL d   1      33.050  19.685 -22.655  0.00  0.00    -0.254 N 
ATOM     14  C   UNL d   1      32.850  18.911 -22.469  0.00  0.00     0.089 A 
ATOM     15  C   UNL d   1      32.771  18.266 -22.982  0.00  0.00     0.020 A 
ATOM     16  C   UNL d   1      32.874  18.244 -23.791  0.00  0.00     0.002 A 
ATOM     17  C   UNL d   1      33.081  18.854 -24.304  0.00  0.00     0.002 A 
ATOM     18  C   UNL d   1      33.239  19.652 -24.132  0.00  0.00     0.020 A 
ATOM     19  C   UNL d   1      33.224  20.016 -23.396  0.00  0.00     0.089 A 
ENDBRANCH  11  13
ENDBRANCH   1  11
TORSDOF 2
ENDMDL
MODEL 4
REMARK VINA RESULT:      -2.7      6.200      7.637
REMARK  2 active torsions:
REMARK  status: ('A' for Active; 'I' for Inactive)
REMARK    1  A    between atoms: S_2  and  C_1 
REMARK    2  A    between atoms: N_3  and  S_2 
ROOT
ATOM      1  C   UNL d   1      32.779  22.305 -19.976  0.00  0.00     0.125 A 
ATOM      2  C   UNL d   1      32.658  21.765 -20.486  0.00  0.00    -0.009 A 
ATOM      3  C   UNL d   1      32.612  21.473 -20.217  0.00  0.00    -0.009 A 
ATOM      4  C   UNL d   1      32.900  22.998 -20.269  0.00  0.00     0.031 A 
ATOM      5  C   UNL d   1      32.578  21.431 -20.943  0.00  0.00    -0.007 A 
ATOM      6  C   UNL d   1      32.616  21.724 -21.413  0.00  0.00    -0.007 A 
ATOM      7  C   UNL d   1      32.862  22.967 -21.129  0.00  0.00     0.045 A 
ATOM      8  C   UNL d   1      32.447  20.884 -21.675  0.00  0.00    -0.001 A 
ATOM      9  C   UNL d   1      32.733  22.397 -21.699  0.00  0.00    -0.022 A 
ATOM     10  C   UNL d   1      32.732  22.324 -21.347  0.00  0.00    -0.022 A 
ENDROOT
BRANCH   1  11
ATOM     11  S   UNL d   1      32.939  22.992 -19.160  0.00  0.00     0.141 S 
ATOM     12  O   UNL d   1      33.241  23.702 -19.541  0.00  0.00    -0.233 OA
BRANCH  11  13
ATOM     13  N   UNL d   1      32.836  22.971 -18.299  0.00  0.00    -0.254 N 
ATOM     14  C   UNL d   1      33.224  22.356 -17.917  0.00  0.00     0.089 A 
ATOM     15  C   UNL d   1      33.237  22.183 -17.107  0.00  0.00     0.020 A 
ATOM     16  C   UNL d   1      32.868  22.579 -16.497  0.00  0.00     0.002 A 
ATOM     17  C   UNL d   1      32.390  23.250 -16.528  0.00  0.00     0.002 A 
ATOM     18  C   UNL d   1      32.159  23.699 -17.188  0.00  0.00     0.020 A 
ATOM     19  C   UNL d   1      32.361  23.569 -17.974  0.00  0.00     0.089 A 
ENDBRANCH  11  13
ENDBRANCH   1  11
TORSDOF 2
ENDMDL
MODEL 5
REMARK VINA RESULT:      -2.7      2.392      3.662
REMARK  2 active torsions:
REMARK  status: ('A' for Active; 'I' for Inactive)
REMARK    1  A    between atoms: S_2  and  C_1 
REMARK    2  A    between atoms: N_3  and  S_2 
ROOT
ATOM      1  C   UNL d   1      32.953  19.857 -22.232  0.00  0.00     0.125 A 
ATOM      2  C   UNL d   1      32.959  20.247 -21.588  0.00  0.00    -0.009 A 
ATOM      3  C   UNL d   1      32.876  19.933 -21.356  0.00  0.00    -0.009 A 
ATOM      4  C   UNL d   1      33.096  20.272 -22.855  0.00  0.00     0.031 A 
ATOM      5  C   UNL d   1      32.986  20.625 -21.159  0.00  0.00    -0.007 A 
ATOM      6  C   UNL d   1      33.101  21.134 -21.350  0.00  0.00    -0.007 A 
ATOM      7  C   UNL d   1      33.228  21.095 -22.641  0.00  0.00     0.045 A 
ATOM      8  C   UNL d   1      33.026  21.228 -20.461  0.00  0.00    -0.001 A 
ATOM      9  C   UNL d   1      33.239  21.536 -21.955  0.00  0.00    -0.022 A 
ATOM     10  C   UNL d   1      33.173  21.183 -21.958  0.00  0.00    -0.022 A 
ENDROOT
BRANCH   1  11
ATOM     11  S   UNL d   1      32.919  19.200 -23.087  0.00  0.00     0.141 S 
ATOM     12  O   UNL d   1      33.113  19.711 -23.751  0.00  0.00    -0.233 OA
BRANCH  11  13
ATOM     13  N   UNL d   1      32.754  18.358 -23.219  0.00  0.00    -0.254 N 
ATOM     14  C   UNL d   1      32.134  18.202 -23.734  0.00  0.00     0.089 A 
ATOM     15  C   UNL d   1      31.841  17.466 -23.974  0.00  0.00     0.020 A 
ATOM     16  C   UNL d   1      32.096  16.722 -23.756  0.00  0.00     0.002 A 
ATOM     17  C   UNL d   1      32.708  16.512 -23.245  0.00  0.00     0.002 A 
ATOM     18  C   UNL d   1      33.224  17.003 -22.818  0.00  0.00     0.020 A 
ATOM     19  C   UNL d   1      33.240  17.824 -22.810  0.00  0.00     0.089 A 
ENDBRANCH  11  13
ENDBRANCH   1  11
TORSDOF 2
ENDMDL
MODEL 6
REMARK VINA RESULT:      -2.7      1.902      3.465
REMARK  2 active torsions:
REMARK  status: ('A' for Active; 'I' for Inactive)
REMARK    1  A    between atoms: S_2  and  C_1 
REMARK    2  A    between atoms: N_3  and  S_2 
ROOT
ATOM      1  C   UNL d   1      29.921  16.862 -24.406  0.00  0.00     0.125 A 
ATOM      2  C   UNL d   1      29.523  17.446 -24.666  0.00  0.00    -0.009 A 
ATOM      3  C   UNL d   1      29.805  17.569 -24.921  0.00  0.00    -0.009 A 
ATOM      4  C   UNL d   1      29.566  16.448 -23.874  0.00  0.00     0.031 A 
ATOM      5  C   UNL d   1      29.147  17.857 -24.797  0.00  0.00    -0.007 A 
ATOM      6  C   UNL d   1      28.681  17.803 -24.500  0.00  0.00    -0.007 A 
ATOM      7  C   UNL d   1      28.785  16.774 -23.715  0.00  0.00     0.045 A 
ATOM      8  C   UNL d   1      28.548  18.524 -25.016  0.00  0.00    -0.001 A 
ATOM      9  C   UNL d   1      28.337  17.401 -23.983  0.00  0.00    -0.022 A 
ATOM     10  C   UNL d   1      28.667  17.331 -24.106  0.00  0.00    -0.022 A 
ENDROOT
BRANCH   1  11
ATOM     11  S   UNL d   1      30.579  16.061 -24.110  0.00  0.00     0.141 S 
ATOM     12  O   UNL d   1      30.049  15.456 -23.805  0.00  0.00    -0.233 OA
BRANCH  11  13
ATOM     13  N   UNL d   1      31.437  15.924 -24.118  0.00  0.00    -0.254 N 
ATOM     14  C   UNL d   1      31.736  15.638 -24.828  0.00  0.00     0.089 A 
ATOM     15  C   UNL d   1      32.521  15.453 -25.014  0.00  0.00     0.020 A 
ATOM     16  C   UNL d   1      33.183  15.509 -24.541  0.00  0.00     0.002 A 
ATOM     17  C   UNL d   1      33.241  15.763 -23.759  0.00  0.00     0.002 A 
ATOM     18  C   UNL d   1      32.642  16.029 -23.249  0.00  0.00     0.020 A 
ATOM     19  C   UNL d   1      31.840  16.098 -23.415  0.00  0.00     0.089 A 
ENDBRANCH  11  13
ENDBRANCH   1  11
TORSDOF 2
ENDMDL
MODEL 7
REMARK VINA RESULT:      -2.5      6.484      7.954
REMARK  2 active torsions:
REMARK  status: ('A' for Active; 'I' for Inactive)
REMARK    1  A    between atoms: S_2  and  C_1 
REMARK    2  A    between atoms: N_3  and  S_2 
ROOT
ATOM      1  C   UNL d   1      32.969  22.714 -18.408  0.00  0.00     0.125 A 
ATOM      2  C   UNL d   1      33.006  22.598 -17.665  0.00  0.00    -0.009 A 
ATOM      3  C   UNL d   1      33.241  22.277 -17.691  0.00  0.00    -0.009 A 
ATOM      4  C   UNL d   1      32.547  23.313 -18.616  0.00  0.00     0.031 A 
ATOM      5  C   UNL d   1      32.973  22.595 -17.094  0.00  0.00    -0.007 A 
ATOM      6  C   UNL d   1      32.657  23.014 -16.910  0.00  0.00    -0.007 A 
ATOM      7  C   UNL d   1      32.221  23.702 -17.921  0.00  0.00     0.045 A 
ATOM      8  C   UNL d   1      32.925  22.581 -16.173  0.00  0.00    -0.001 A 
ATOM      9  C   UNL d   1      32.247  23.596 -17.112  0.00  0.00    -0.022 A 
ATOM     10  C   UNL d   1      32.419  23.380 -17.342  0.00  0.00    -0.022 A 
ENDROOT
BRANCH   1  11
ATOM     11  S   UNL d   1      32.988  22.781 -19.484  0.00  0.00     0.141 S 
ATOM     12  O   UNL d   1      33.108  23.619 -19.640  0.00  0.00    -0.233 OA
BRANCH  11  13
ATOM     13  N   UNL d   1      32.914  22.222 -20.145  0.00  0.00    -0.254 N 
ATOM     14  C   UNL d   1      32.563  22.527 -20.821  0.00  0.00     0.089 A 
ATOM     15  C   UNL d   1      32.413  22.142 -21.538  0.00  0.00     0.020 A 
ATOM     16  C   UNL d   1      32.578  21.370 -21.745  0.00  0.00     0.002 A 
ATOM     17  C   UNL d   1      32.934  20.778 -21.296  0.00  0.00     0.002 A 
ATOM     18  C   UNL d   1      33.218  20.811 -20.516  0.00  0.00     0.020 A 
ATOM     19  C   UNL d   1      33.206  21.457 -20.008  0.00  0.00     0.089 A 
ENDBRANCH  11  13
ENDBRANCH   1  11
TORSDOF 2
ENDMDL
MODEL 8
REMARK VINA RESULT:      -2.0      2.871      4.428
REMARK  2 active torsions:
REMARK  status: ('A' for Active; 'I' for Inactive)
REMARK    1  A    between atoms: S_2  and  C_1 
REMARK    2  A    between atoms: N_3  and  S_2 
ROOT
ATOM      1  C   UNL d   1      32.837  18.914 -23.222  0.00  0.00     0.125 A 
ATOM      2  C   UNL d   1      32.671  18.594 -23.882  0.00  0.00    -0.009 A 
ATOM      3  C   UNL d   1      32.520  18.926 -24.045  0.00  0.00    -0.009 A 
ATOM      4  C   UNL d   1      33.156  18.446 -22.713  0.00  0.00     0.031 A 
ATOM      5  C   UNL d   1      32.583  18.263 -24.341  0.00  0.00    -0.007 A 
ATOM      6  C   UNL d   1      32.757  17.744 -24.248  0.00  0.00    -0.007 A 
ATOM      7  C   UNL d   1      33.239  17.657 -23.046  0.00  0.00     0.045 A 
ATOM      8  C   UNL d   1      32.438  17.739 -25.086  0.00  0.00    -0.001 A 
ATOM      9  C   UNL d   1      33.066  17.289 -23.754  0.00  0.00    -0.022 A 
ATOM     10  C   UNL d   1      32.997  17.636 -23.693  0.00  0.00    -0.022 A 
ENDROOT
BRANCH   1  11
ATOM     11  S   UNL d   1      33.031  19.478 -22.322  0.00  0.00     0.141 S 
ATOM     12  O   UNL d   1      33.236  18.878 -21.740  0.00  0.00    -0.233 OA
BRANCH  11  13
ATOM     13  N   UNL d   1      33.022  20.316 -22.099  0.00  0.00    -0.254 N 
ATOM     14  C   UNL d   1      33.199  20.840 -22.706  0.00  0.00     0.089 A 
ATOM     15  C   UNL d   1      33.236  21.667 -22.675  0.00  0.00     0.020 A 
ATOM     16  C   UNL d   1      33.106  22.157 -22.037  0.00  0.00     0.002 A 
ATOM     17  C   UNL d   1      32.905  21.959 -21.262  0.00  0.00     0.002 A 
ATOM     18  C   UNL d   1      32.783  21.207 -20.929  0.00  0.00     0.020 A 
ATOM     19  C   UNL d   1      32.836  20.480 -21.307  0.00  0.00     0.089 A 
ENDBRANCH  11  13
ENDBRANCH   1  11
TORSDOF 2
ENDMDL
MODEL 9
REMARK VINA RESULT:      -1.6      4.216      5.931
REMARK  2 active torsions:
REMARK  status: ('A' for Active; 'I' for Inactive)
REMARK    1  A    between atoms: S_2  and  C_1 
REMARK    2  A    between atoms: N_3  and  S_2 
ROOT
ATOM      1  C   UNL d   1      33.018  20.832 -21.738  0.00  0.00     0.125 A 
ATOM      2  C   UNL d   1      33.119  20.088 -21.791  0.00  0.00    -0.009 A 
ATOM      3  C   UNL d   1      33.241  20.043 -21.413  0.00  0.00    -0.009 A 
ATOM      4  C   UNL d   1      32.772  21.165 -22.378  0.00  0.00     0.031 A 
ATOM      5  C   UNL d   1      33.164  19.535 -21.929  0.00  0.00    -0.007 A 
ATOM      6  C   UNL d   1      33.017  19.449 -22.458  0.00  0.00    -0.007 A 
ATOM      7  C   UNL d   1      32.675  20.578 -23.000  0.00  0.00     0.045 A 
ATOM      8  C   UNL d   1      33.239  18.640 -22.143  0.00  0.00    -0.001 A 
ATOM      9  C   UNL d   1      32.777  19.773 -23.079  0.00  0.00    -0.022 A 
ATOM     10  C   UNL d   1      32.843  19.948 -22.772  0.00  0.00    -0.022 A 
ENDROOT
BRANCH   1  11
ATOM     11  S   UNL d   1      32.911  21.889 -21.547  0.00  0.00     0.141 S 
ATOM     12  O   UNL d   1      32.989  22.251 -22.324  0.00  0.00    -0.233 OA
BRANCH  11  13
ATOM     13  N   UNL d   1      32.777  22.384 -20.847  0.00  0.00    -0.254 N 
ATOM     14  C   UNL d   1      32.221  22.980 -20.945  0.00  0.00     0.089 A 
ATOM     15  C   UNL d   1      31.969  23.541 -20.390  0.00  0.00     0.020 A 
ATOM     16  C   UNL d   1      32.212  23.636 -19.617  0.00  0.00     0.002 A 
ATOM     17  C   UNL d   1      32.768  23.201 -19.191  0.00  0.00     0.002 A 
ATOM     18  C   UNL d   1      33.225  22.553 -19.436  0.00  0.00     0.020 A 
ATOM     19  C   UNL d   1      33.225  22.194 -20.175  0.00  0.00     0.089 A 
ENDBRANCH  11  13
ENDBRANCH   1  11
TORSDOF 2
ENDMDL
