MODEL 1
REMARK VINA RESULT:      -1.6      0.000      0.000
REMARK  5 active torsions:
REMARK  status: ('A' for Active; 'I' for Inactive)
REMARK    1  A    between atoms: C_22  and  N_10 
REMARK    2  A    between atoms: C_19  and  N_13 
REMARK    3  A    between atoms: N_14  and  C_26 
REMARK    4  A    between atoms: C_25  and  C_22 
REMARK    5  A    between atoms: C_26  and  C_25 
ROOT
ATOM      1  C   UNL d   1      32.991  22.070 -21.478  0.00  0.00     0.173 A 
ATOM      2  C   UNL d   1      33.074  21.274 -21.523  0.00  0.00     0.191 A 
ATOM      3  C   UNL d   1      33.101  21.337 -22.942  0.00  0.00     0.722 A 
ATOM      4  N   UNL d   1      33.016  22.157 -22.907  0.00  0.00    -0.131 N 
ATOM      5  N   UNL d   1      33.130  20.896 -22.250  0.00  0.00    -0.042 NA
ATOM      6  N   UNL d   1      33.104  20.821 -20.842  0.00  0.00    -0.240 N 
ATOM      7  N   UNL d   1      32.960  22.054 -20.079  0.00  0.00    -0.223 N 
ATOM      8  C   UNL d   1      33.047  21.211 -20.114  0.00  0.00     0.343 A 
ATOM      9  C   UNL d   1      32.933  22.485 -20.772  0.00  0.00     0.288 A 
ATOM     10  N   UNL d   1      33.156  20.959 -23.677  0.00  0.00    -0.139 N 
ATOM     11  C   UNL d   1      33.043  22.220 -24.338  0.00  0.00     0.116 A 
ATOM     12  C   UNL d   1      33.127  21.400 -24.372  0.00  0.00     0.100 A 
ATOM     13  O   UNL d   1      33.081  20.724 -19.414  0.00  0.00    -0.245 OA
ATOM     14  O   UNL d   1      32.848  23.304 -20.737  0.00  0.00    -0.265 OA
ATOM     15  C   UNL d   1      33.189  20.001 -20.877  0.00  0.00     0.105 C 
ATOM     16  C   UNL d   1      32.905  22.433 -19.360  0.00  0.00     0.107 C 
ATOM     17  C   UNL d   1      33.185  20.999 -25.097  0.00  0.00     0.021 C 
ENDROOT
BRANCH  10  18
ATOM     18  C   UNL d   1      33.241  20.139 -23.715  0.00  0.00     0.100 C 
BRANCH  18  19
ATOM     19  C   UNL d   1      32.724  19.685 -24.179  0.00  0.00     0.039 C 
BRANCH  19  20
ATOM     20  C   UNL d   1      32.848  18.886 -24.266  0.00  0.00     0.082 C 
BRANCH  20  21
ATOM     21  N   UNL d   1      32.210  18.369 -24.292  0.00  0.00    -0.300 N 
ATOM     22  C   UNL d   1      32.060  17.873 -23.650  0.00  0.00     0.100 A 
ATOM     23  C   UNL d   1      31.423  17.358 -23.679  0.00  0.00     0.100 A 
ATOM     24  N   UNL d   1      30.940  17.338 -24.341  0.00  0.00    -0.301 N 
ATOM     25  C   UNL d   1      31.094  17.833 -24.974  0.00  0.00     0.100 A 
ATOM     26  C   UNL d   1      31.734  18.354 -24.953  0.00  0.00     0.100 A 
BRANCH  24  27
ATOM     27  C   UNL d   1      30.301  16.821 -24.368  0.00  0.00     0.064 A 
ATOM     28  C   UNL d   1      29.537  17.110 -24.349  0.00  0.00     0.018 A 
ATOM     29  C   UNL d   1      28.899  16.601 -24.375  0.00  0.00     0.002 A 
ATOM     30  C   UNL d   1      29.030  15.787 -24.421  0.00  0.00     0.000 A 
ATOM     31  C   UNL d   1      29.804  15.492 -24.440  0.00  0.00     0.002 A 
ATOM     32  C   UNL d   1      30.433  16.007 -24.414  0.00  0.00     0.018 A 
ENDBRANCH  24  27
ENDBRANCH  20  21
ENDBRANCH  19  20
ENDBRANCH  18  19
ENDBRANCH  10  18
TORSDOF 5
ENDMDL
