MODEL 1
REMARK VINA RESULT:      -2.0      0.000      0.000
REMARK  4 active torsions:
REMARK  status: ('A' for Active; 'I' for Inactive)
REMARK    1  A    between atoms: C_8  and  C_1 
REMARK    2  A    between atoms: N_5  and  C_2 
REMARK       I    between atoms: C_6  and  N_5 
REMARK    3  A    between atoms: C_10  and  C_6 
REMARK    4  A    between atoms: N_9  and  C_8 
ROOT
ATOM      1  C   UNL d   1      31.964  17.487 -24.005  0.00  0.00     0.042 A 
ATOM      2  C   UNL d   1      31.405  17.363 -24.596  0.00  0.00     0.115 A 
ATOM      3  S   UNL d   1      31.520  16.599 -24.884  0.00  0.00    -0.068 SA
ATOM      4  C   UNL d   1      32.415  16.807 -23.935  0.00  0.00     0.009 A 
ATOM      5  C   UNL d   1      32.139  16.260 -24.478  0.00  0.00     0.031 A 
ATOM      6  C   UNL d   1      33.043  16.698 -23.400  0.00  0.00     0.001 C 
ATOM      7  C   UNL d   1      32.426  15.493 -24.606  0.00  0.00     0.007 C 
ENDROOT
BRANCH   2   8
ATOM      8  N   UNL d   1      30.832  17.898 -24.856  0.00  0.00    -0.201 NA
ATOM      9  C   UNL d   1      30.032  17.688 -24.835  0.00  0.00     0.282 C 
ATOM     10  O   UNL d   1      29.468  18.224 -25.095  0.00  0.00    -0.265 OA
BRANCH   9  11
ATOM     11  C   UNL d   1      29.807  16.944 -24.554  0.00  0.00     0.085 A 
ATOM     12  C   UNL d   1      29.406  16.887 -23.834  0.00  0.00     0.145 A 
ATOM     13  F   UNL d   1      29.199  17.521 -23.348  0.00  0.00    -0.204 F 
ATOM     14  C   UNL d   1      29.179  16.147 -23.547  0.00  0.00     0.030 A 
ATOM     15  C   UNL d   1      29.357  15.469 -23.989  0.00  0.00     0.002 A 
ATOM     16  C   UNL d   1      29.757  15.528 -24.706  0.00  0.00     0.000 A 
ATOM     17  C   UNL d   1      29.981  16.273 -24.986  0.00  0.00     0.007 A 
ENDBRANCH   9  11
ENDBRANCH   2   8
BRANCH   1  18
ATOM     18  C   UNL d   1      32.119  18.143 -23.518  0.00  0.00     0.082 C 
BRANCH  18  19
ATOM     19  N   UNL d   1      32.491  18.803 -23.836  0.00  0.00    -0.304 N 
ATOM     20  C   UNL d   1      32.691  19.443 -23.337  0.00  0.00     0.064 A 
ATOM     21  C   UNL d   1      32.514  19.408 -22.534  0.00  0.00     0.019 C 
ATOM     22  C   UNL d   1      33.066  20.110 -23.650  0.00  0.00     0.018 A 
ATOM     23  C   UNL d   1      33.241  20.142 -24.451  0.00  0.00     0.003 A 
ATOM     24  C   UNL d   1      33.043  19.508 -24.943  0.00  0.00     0.019 A 
ATOM     25  C   UNL d   1      32.671  18.845 -24.635  0.00  0.00     0.080 A 
ENDBRANCH  18  19
ENDBRANCH   1  18
TORSDOF 4
ENDMDL
MODEL 2
REMARK VINA RESULT:       0.4      1.610      4.054
REMARK  4 active torsions:
REMARK  status: ('A' for Active; 'I' for Inactive)
REMARK    1  A    between atoms: C_8  and  C_1 
REMARK    2  A    between atoms: N_5  and  C_2 
REMARK       I    between atoms: C_6  and  N_5 
REMARK    3  A    between atoms: C_10  and  C_6 
REMARK    4  A    between atoms: N_9  and  C_8 
ROOT
ATOM      1  C   UNL d   1      30.317  17.085 -24.136  0.00  0.00     0.042 A 
ATOM      2  C   UNL d   1      31.011  16.943 -24.553  0.00  0.00     0.115 A 
ATOM      3  S   UNL d   1      31.199  17.636 -24.959  0.00  0.00    -0.068 SA
ATOM      4  C   UNL d   1      30.084  17.856 -24.285  0.00  0.00     0.009 A 
ATOM      5  C   UNL d   1      30.630  18.194 -24.794  0.00  0.00     0.031 A 
ATOM      6  C   UNL d   1      29.407  18.225 -23.971  0.00  0.00     0.001 C 
ATOM      7  C   UNL d   1      30.621  18.965 -25.097  0.00  0.00     0.007 C 
ENDROOT
BRANCH   2   8
ATOM      8  N   UNL d   1      31.445  16.240 -24.568  0.00  0.00    -0.201 NA
ATOM      9  C   UNL d   1      32.221  16.229 -24.280  0.00  0.00     0.282 C 
ATOM     10  O   UNL d   1      32.646  15.528 -24.298  0.00  0.00    -0.265 OA
BRANCH   9  11
ATOM     11  C   UNL d   1      32.561  16.920 -23.979  0.00  0.00     0.085 A 
ATOM     12  C   UNL d   1      32.683  16.990 -23.165  0.00  0.00     0.145 A 
ATOM     13  F   UNL d   1      32.494  16.419 -22.600  0.00  0.00    -0.204 F 
ATOM     14  C   UNL d   1      33.021  17.677 -22.858  0.00  0.00     0.030 A 
ATOM     15  C   UNL d   1      33.234  18.289 -23.374  0.00  0.00     0.002 A 
ATOM     16  C   UNL d   1      33.112  18.217 -24.185  0.00  0.00     0.000 A 
ATOM     17  C   UNL d   1      32.772  17.526 -24.485  0.00  0.00     0.007 A 
ENDBRANCH   9  11
ENDBRANCH   2   8
BRANCH   1  18
ATOM     18  C   UNL d   1      29.864  16.602 -23.633  0.00  0.00     0.082 C 
BRANCH  18  19
ATOM     19  N   UNL d   1      29.200  16.221 -23.929  0.00  0.00    -0.304 N 
ATOM     20  C   UNL d   1      28.569  16.034 -23.414  0.00  0.00     0.064 A 
ATOM     21  C   UNL d   1      28.617  16.232 -22.617  0.00  0.00     0.019 C 
ATOM     22  C   UNL d   1      27.897  15.649 -23.706  0.00  0.00     0.018 A 
ATOM     23  C   UNL d   1      27.852  15.453 -24.501  0.00  0.00     0.003 A 
ATOM     24  C   UNL d   1      28.477  15.638 -25.009  0.00  0.00     0.019 A 
ATOM     25  C   UNL d   1      29.144  16.019 -24.723  0.00  0.00     0.080 A 
ENDBRANCH  18  19
ENDBRANCH   1  18
TORSDOF 4
ENDMDL
