MODEL 1
REMARK VINA RESULT:      39.2      0.000      0.000
REMARK  9 active torsions:
REMARK  status: ('A' for Active; 'I' for Inactive)
REMARK    1  A    between atoms: N_7  and  N_1 
REMARK    2  A    between atoms: S_9  and  C_2 
REMARK       I    between atoms: C_8  and  N_7 
REMARK    3  A    between atoms: C_15  and  C_8 
REMARK    4  A    between atoms: C_14  and  S_9 
REMARK    5  A    between atoms: C_11  and  C_14 
REMARK       I    between atoms: N_16  and  C_11 
REMARK    6  A    between atoms: C_18  and  C_15 
REMARK    7  A    between atoms: C_19  and  N_16 
REMARK    8  A    between atoms: C_22  and  C_19 
REMARK    9  A    between atoms: C_21  and  C_22 
ROOT
ATOM      1  N   UNL d   1      46.321 -17.529  42.904  0.00  0.00    -0.168 N 
ATOM      2  C   UNL d   1      46.282 -18.021  42.253  0.00  0.00     0.199 A 
ATOM      3  C   UNL d   1      46.344 -17.852  43.664  0.00  0.00     0.283 A 
ATOM      4  N   UNL d   1      46.266 -18.860  42.342  0.00  0.00    -0.221 NA
ATOM      5  C   UNL d   1      46.328 -18.693  43.761  0.00  0.00     0.076 A 
ATOM      6  C   UNL d   1      46.289 -19.190  43.104  0.00  0.00     0.088 A 
ATOM      7  O   UNL d   1      46.383 -17.358  44.328  0.00  0.00    -0.265 OA
ATOM      8  C   UNL d   1      46.351 -19.006  44.533  0.00  0.00     0.006 A 
ATOM      9  C   UNL d   1      46.273 -20.007  43.209  0.00  0.00     0.019 A 
ATOM     10  C   UNL d   1      46.335 -19.833  44.623  0.00  0.00     0.000 A 
ATOM     11  C   UNL d   1      46.296 -20.330  43.966  0.00  0.00     0.002 A 
ENDROOT
BRANCH   2  12
ATOM     12  S   UNL d   1      46.259 -17.706  41.499  0.00  0.00    -0.043 SA
BRANCH  12  13
ATOM     13  C   UNL d   1      45.597 -17.826  41.017  0.00  0.00     0.101 C 
BRANCH  13  14
ATOM     14  C   UNL d   1      45.662 -17.733  40.201  0.00  0.00     0.286 C 
ATOM     15  O   UNL d   1      46.255 -18.137  39.788  0.00  0.00    -0.265 OA
ATOM     16  N   UNL d   1      45.143 -17.241  39.794  0.00  0.00    -0.206 NA
BRANCH  16  17
ATOM     17  C   UNL d   1      45.208 -17.148  38.978  0.00  0.00     0.102 C 
BRANCH  17  18
ATOM     18  C   UNL d   1      44.572 -16.868  38.538  0.00  0.00     0.021 C 
BRANCH  18  19
ATOM     19  C   UNL d   1      44.700 -16.394  37.880  0.00  0.00     0.002 A 
ATOM     20  C   UNL d   1      44.271 -16.529  37.185  0.00  0.00     0.000 A 
ATOM     21  C   UNL d   1      44.403 -16.046  36.522  0.00  0.00     0.000 A 
ATOM     22  C   UNL d   1      44.958 -15.436  36.553  0.00  0.00     0.000 A 
ATOM     23  C   UNL d   1      45.386 -15.307  37.256  0.00  0.00     0.000 A 
ATOM     24  C   UNL d   1      45.254 -15.784  37.911  0.00  0.00     0.000 A 
ENDBRANCH  18  19
ENDBRANCH  17  18
ENDBRANCH  16  17
ENDBRANCH  13  14
ENDBRANCH  12  13
ENDBRANCH   2  12
BRANCH   1  25
ATOM     25  N   UNL d   1      46.336 -16.719  42.804  0.00  0.00    -0.119 NA
ATOM     26  C   UNL d   1      46.145 -16.221  43.431  0.00  0.00     0.296 C 
ATOM     27  O   UNL d   1      45.935 -16.531  44.167  0.00  0.00    -0.264 OA
BRANCH  26  28
ATOM     28  C   UNL d   1      46.162 -15.399  43.324  0.00  0.00     0.064 C 
BRANCH  28  29
ATOM     29  C   UNL d   1      45.791 -14.910  43.866  0.00  0.00     0.005 A 
ATOM     30  C   UNL d   1      45.122 -15.170  44.262  0.00  0.00     0.000 A 
ATOM     31  C   UNL d   1      44.746 -14.680  44.809  0.00  0.00     0.000 A 
ATOM     32  C   UNL d   1      45.049 -13.922  44.955  0.00  0.00     0.000 A 
ATOM     33  C   UNL d   1      45.718 -13.662  44.559  0.00  0.00     0.000 A 
ATOM     34  C   UNL d   1      46.092 -14.151  44.014  0.00  0.00     0.000 A 
ENDBRANCH  28  29
ENDBRANCH  26  28
ENDBRANCH   1  25
TORSDOF 9
ENDMDL
