MODEL 1
REMARK VINA RESULT:      77.6      0.000      0.000
REMARK  10 active torsions:
REMARK  status: ('A' for Active; 'I' for Inactive)
REMARK    1  A    between atoms: C_14  and  N_1 
REMARK    2  A    between atoms: C_7  and  N_3 
REMARK    3  A    between atoms: C_9  and  C_7 
REMARK       I    between atoms: N_18  and  C_9 
REMARK    4  A    between atoms: C_11  and  C_24 
REMARK       I    between atoms: N_12  and  C_11 
REMARK    5  A    between atoms: C_21  and  N_12 
REMARK    6  A    between atoms: C_13  and  C_25 
REMARK    7  A    between atoms: C_23  and  C_14 
REMARK    8  A    between atoms: C_22  and  N_18 
REMARK    9  A    between atoms: C_25  and  C_22 
REMARK   10  A    between atoms: C_24  and  C_23 
ROOT
ATOM      1  N   UNL d   1     -49.827  25.979  33.365  0.00  0.00    -0.226 N 
ATOM      2  C   UNL d   1     -50.613  26.228  33.395  0.00  0.00     0.342 A 
ATOM      3  N   UNL d   1     -51.223  25.666  33.396  0.00  0.00    -0.254 N 
ATOM      4  C   UNL d   1     -49.651  25.169  33.336  0.00  0.00     0.270 A 
ATOM      5  C   UNL d   1     -50.259  24.614  33.337  0.00  0.00     0.073 A 
ATOM      6  C   UNL d   1     -51.046  24.862  33.368  0.00  0.00     0.073 A 
ATOM      7  O   UNL d   1     -50.794  27.037  33.424  0.00  0.00    -0.245 OA
ATOM      8  O   UNL d   1     -48.864  24.921  33.306  0.00  0.00    -0.266 OA
ATOM      9  C   UNL d   1     -50.081  23.811  33.309  0.00  0.00     0.006 A 
ATOM     10  C   UNL d   1     -51.653  24.307  33.369  0.00  0.00     0.018 A 
ATOM     11  C   UNL d   1     -50.690  23.255  33.310  0.00  0.00     0.000 A 
ATOM     12  C   UNL d   1     -51.476  23.504  33.341  0.00  0.00     0.002 A 
ENDROOT
BRANCH   3  13
ATOM     13  C   UNL d   1     -52.010  25.914  33.427  0.00  0.00     0.147 C 
BRANCH  13  14
ATOM     14  C   UNL d   1     -52.321  26.185  34.142  0.00  0.00     0.297 C 
ATOM     15  O   UNL d   1     -53.073  26.519  34.173  0.00  0.00    -0.264 OA
ATOM     16  N   UNL d   1     -51.875  26.123  34.843  0.00  0.00    -0.205 NA
BRANCH  16  17
ATOM     17  C   UNL d   1     -52.179  26.392  35.564  0.00  0.00     0.102 C 
BRANCH  17  18
ATOM     18  C   UNL d   1     -52.468  25.851  36.116  0.00  0.00     0.021 C 
BRANCH  18  19
ATOM     19  C   UNL d   1     -52.293  25.940  36.917  0.00  0.00     0.002 A 
ATOM     20  C   UNL d   1     -51.790  26.543  37.169  0.00  0.00     0.000 A 
ATOM     21  C   UNL d   1     -51.616  26.630  37.966  0.00  0.00     0.000 A 
ATOM     22  C   UNL d   1     -51.947  26.111  38.517  0.00  0.00     0.000 A 
ATOM     23  C   UNL d   1     -52.450  25.507  38.266  0.00  0.00     0.000 A 
ATOM     24  C   UNL d   1     -52.625  25.419  37.465  0.00  0.00     0.000 A 
ENDBRANCH  18  19
ENDBRANCH  17  18
ENDBRANCH  16  17
ENDBRANCH  13  14
ENDBRANCH   3  13
BRANCH   1  25
ATOM     25  C   UNL d   1     -49.217  26.539  33.363  0.00  0.00     0.088 C 
BRANCH  25  26
ATOM     26  C   UNL d   1     -49.146  27.084  33.978  0.00  0.00     0.024 C 
BRANCH  26  27
ATOM     27  C   UNL d   1     -48.405  27.301  34.263  0.00  0.00     0.064 C 
BRANCH  27  28
ATOM     28  C   UNL d   1     -48.342  27.935  34.799  0.00  0.00     0.279 C 
ATOM     29  N   UNL d   1     -47.753  28.503  34.694  0.00  0.00    -0.208 NA
ATOM     30  O   UNL d   1     -48.862  28.002  35.435  0.00  0.00    -0.265 OA
BRANCH  29  31
ATOM     31  C   UNL d   1     -47.677  29.138  35.216  0.00  0.00     0.085 A 
ATOM     32  C   UNL d   1     -47.798  29.216  36.032  0.00  0.00     0.019 A 
ATOM     33  C   UNL d   1     -47.630  29.993  36.243  0.00  0.00     0.002 A 
ATOM     34  C   UNL d   1     -47.405  30.401  35.562  0.00  0.00     0.002 A 
ATOM     35  C   UNL d   1     -47.431  29.882  34.929  0.00  0.00     0.019 A 
ENDBRANCH  29  31
ENDBRANCH  27  28
ENDBRANCH  26  27
ENDBRANCH  25  26
ENDBRANCH   1  25
TORSDOF 10
ENDMDL
