MODEL 1
REMARK VINA RESULT:      19.5      0.000      0.000
REMARK  1 active torsions:
REMARK  status: ('A' for Active; 'I' for Inactive)
REMARK    1  A    between atoms: C_12  and  N_4 
ROOT
ATOM      1  C   UNL d   1      44.066 -15.324  36.939  0.00  0.00     0.081 A 
ATOM      2  C   UNL d   1      44.164 -16.000  36.538  0.00  0.00     0.118 A 
ATOM      3  C   UNL d   1      43.305 -15.069  37.151  0.00  0.00     0.268 A 
ATOM      4  N   UNL d   1      42.660 -15.529  36.939  0.00  0.00    -0.249 N 
ATOM      5  N   UNL d   1      43.523 -16.451  36.330  0.00  0.00    -0.212 NA
ATOM      6  C   UNL d   1      42.743 -16.205  36.539  0.00  0.00     0.209 A 
ATOM      7  S   UNL d   1      44.962 -16.150  36.384  0.00  0.00    -0.068 SA
ATOM      8  C   UNL d   1      44.829 -15.008  37.058  0.00  0.00     0.013 A 
ATOM      9  C   UNL d   1      45.394 -15.523  36.711  0.00  0.00     0.031 A 
ATOM     10  S   UNL d   1      42.062 -16.640  36.344  0.00  0.00    -0.038 SA
ATOM     11  O   UNL d   1      43.178 -14.367  37.570  0.00  0.00    -0.267 OA
ATOM     12  C   UNL d   1      44.902 -14.312  37.456  0.00  0.00     0.001 A 
ATOM     13  C   UNL d   1      46.205 -15.404  36.712  0.00  0.00     0.006 A 
ATOM     14  C   UNL d   1      45.622 -13.912  37.627  0.00  0.00     0.000 A 
ATOM     15  C   UNL d   1      46.647 -14.799  37.025  0.00  0.00     0.001 A 
ATOM     16  C   UNL d   1      46.394 -14.130  37.436  0.00  0.00     0.000 A 
ENDROOT
BRANCH   4  17
ATOM     17  C   UNL d   1      41.877 -15.277  37.151  0.00  0.00     0.085 C 
ATOM     18  C   UNL d   1      41.358 -15.032  36.566  0.00  0.00     0.021 C 
ENDBRANCH   4  17
TORSDOF 1
ENDMDL
