MODEL 1
REMARK VINA RESULT:      -2.1      0.000      0.000
REMARK  4 active torsions:
REMARK  status: ('A' for Active; 'I' for Inactive)
REMARK    1  A    between atoms: C_11  and  C_3 
REMARK    2  A    between atoms: N_10  and  C_4 
REMARK    3  A    between atoms: C_13  and  N_10 
REMARK    4  A    between atoms: C_14  and  C_13 
ROOT
ATOM      1  C   UNL d   1      59.406  -9.438  33.346  0.00  0.00     0.167 A 
ATOM      2  N   UNL d   1      59.794  -9.534  32.626  0.00  0.00    -0.195 N 
ATOM      3  C   UNL d   1      59.969  -9.256  33.912  0.00  0.00     0.057 A 
ATOM      4  C   UNL d   1      59.366  -9.722  31.949  0.00  0.00     0.167 A 
ATOM      5  N   UNL d   1      60.593  -9.409  32.753  0.00  0.00    -0.161 NA
ATOM      6  N   UNL d   1      58.590  -9.531  33.390  0.00  0.00    -0.227 NA
ATOM      7  C   UNL d   1      58.544  -9.815  31.995  0.00  0.00     0.058 A 
ATOM      8  C   UNL d   1      60.704  -9.239  33.537  0.00  0.00     0.124 A 
ATOM      9  C   UNL d   1      58.160  -9.720  32.708  0.00  0.00     0.086 A 
ATOM     10  C   UNL d   1      57.340  -9.818  32.730  0.00  0.00     0.021 C 
ENDROOT
BRANCH   4  11
ATOM     11  N   UNL d   1      59.754  -9.817  31.228  0.00  0.00    -0.224 NA
BRANCH  11  12
ATOM     12  C   UNL d   1      59.531  -9.365  30.579  0.00  0.00     0.120 C 
BRANCH  12  13
ATOM     13  C   UNL d   1      59.961  -9.418  29.867  0.00  0.00     0.101 A 
ATOM     14  N   UNL d   1      59.639  -9.126  29.162  0.00  0.00    -0.242 NA
ATOM     15  C   UNL d   1      60.061  -9.178  28.463  0.00  0.00     0.099 A 
ATOM     16  C   UNL d   1      60.814  -9.525  28.455  0.00  0.00     0.021 A 
ATOM     17  C   UNL d   1      61.133  -9.816  29.158  0.00  0.00     0.003 A 
ATOM     18  C   UNL d   1      60.706  -9.763  29.865  0.00  0.00     0.021 A 
ENDBRANCH  12  13
ENDBRANCH  11  12
ENDBRANCH   4  11
BRANCH   3  19
ATOM     19  C   UNL d   1      59.750  -9.126  34.699  0.00  0.00     0.004 A 
ATOM     20  C   UNL d   1      59.632  -8.351  34.963  0.00  0.00     0.000 A 
ATOM     21  C   UNL d   1      59.415  -8.215  35.743  0.00  0.00     0.000 A 
ATOM     22  C   UNL d   1      59.314  -8.854  36.267  0.00  0.00     0.000 A 
ATOM     23  C   UNL d   1      59.434  -9.622  35.994  0.00  0.00     0.000 A 
ATOM     24  C   UNL d   1      59.652  -9.757  35.209  0.00  0.00     0.000 A 
ENDBRANCH   3  19
TORSDOF 4
ENDMDL
MODEL 2
REMARK VINA RESULT:      -1.5      1.394      4.960
REMARK  4 active torsions:
REMARK  status: ('A' for Active; 'I' for Inactive)
REMARK    1  A    between atoms: C_11  and  C_3 
REMARK    2  A    between atoms: N_10  and  C_4 
REMARK    3  A    between atoms: C_13  and  N_10 
REMARK    4  A    between atoms: C_14  and  C_13 
ROOT
ATOM      1  C   UNL d   1      58.679  -9.818  31.461  0.00  0.00     0.167 A 
ATOM      2  N   UNL d   1      58.626  -9.818  32.283  0.00  0.00    -0.195 N 
ATOM      3  C   UNL d   1      57.918  -9.818  31.160  0.00  0.00     0.057 A 
ATOM      4  C   UNL d   1      59.310  -9.818  32.740  0.00  0.00     0.167 A 
ATOM      5  N   UNL d   1      57.832  -9.818  32.482  0.00  0.00    -0.161 NA
ATOM      6  N   UNL d   1      59.417  -9.818  31.096  0.00  0.00    -0.227 NA
ATOM      7  C   UNL d   1      60.051  -9.818  32.370  0.00  0.00     0.058 A 
ATOM      8  C   UNL d   1      57.397  -9.818  31.799  0.00  0.00     0.124 A 
ATOM      9  C   UNL d   1      60.104  -9.818  31.557  0.00  0.00     0.086 A 
ATOM     10  C   UNL d   1      60.854  -9.818  31.211  0.00  0.00     0.021 C 
ENDROOT
BRANCH   4  11
ATOM     11  N   UNL d   1      59.257  -9.818  33.562  0.00  0.00    -0.224 NA
BRANCH  11  12
ATOM     12  C   UNL d   1      59.917  -9.638  34.017  0.00  0.00     0.120 C 
BRANCH  12  13
ATOM     13  C   UNL d   1      59.826  -9.261  34.754  0.00  0.00     0.101 A 
ATOM     14  N   UNL d   1      59.972  -8.449  34.828  0.00  0.00    -0.242 NA
ATOM     15  C   UNL d   1      59.882  -8.078  35.553  0.00  0.00     0.099 A 
ATOM     16  C   UNL d   1      59.644  -8.513  36.217  0.00  0.00     0.021 A 
ATOM     17  C   UNL d   1      59.499  -9.322  36.141  0.00  0.00     0.003 A 
ATOM     18  C   UNL d   1      59.590  -9.697  35.409  0.00  0.00     0.021 A 
ENDBRANCH  12  13
ENDBRANCH  11  12
ENDBRANCH   4  11
BRANCH   3  19
ATOM     19  C   UNL d   1      57.787  -9.818  30.344  0.00  0.00     0.004 A 
ATOM     20  C   UNL d   1      57.010  -9.818  30.059  0.00  0.00     0.000 A 
ATOM     21  C   UNL d   1      56.871  -9.818  29.250  0.00  0.00     0.000 A 
ATOM     22  C   UNL d   1      57.510  -9.818  28.717  0.00  0.00     0.000 A 
ATOM     23  C   UNL d   1      58.281  -9.818  29.009  0.00  0.00     0.000 A 
ATOM     24  C   UNL d   1      58.417  -9.818  29.824  0.00  0.00     0.000 A 
ENDBRANCH   3  19
TORSDOF 4
ENDMDL
MODEL 3
REMARK VINA RESULT:       0.0      8.351      9.774
REMARK  4 active torsions:
REMARK  status: ('A' for Active; 'I' for Inactive)
REMARK    1  A    between atoms: C_11  and  C_3 
REMARK    2  A    between atoms: N_10  and  C_4 
REMARK    3  A    between atoms: C_13  and  N_10 
REMARK    4  A    between atoms: C_14  and  C_13 
ROOT
ATOM      1  C   UNL d   1      58.814  -1.351  29.687  0.00  0.00     0.167 A 
ATOM      2  N   UNL d   1      58.142  -1.152  30.120  0.00  0.00    -0.195 N 
ATOM      3  C   UNL d   1      58.893  -2.165  29.708  0.00  0.00     0.057 A 
ATOM      4  C   UNL d   1      57.920  -0.363  30.197  0.00  0.00     0.167 A 
ATOM      5  N   UNL d   1      57.812  -1.845  30.404  0.00  0.00    -0.161 NA
ATOM      6  N   UNL d   1      59.264  -0.762  29.331  0.00  0.00    -0.227 NA
ATOM      7  C   UNL d   1      58.375   0.228  29.837  0.00  0.00     0.058 A 
ATOM      8  C   UNL d   1      58.268  -2.466  30.155  0.00  0.00     0.124 A 
ATOM      9  C   UNL d   1      59.040   0.031  29.409  0.00  0.00     0.086 A 
ATOM     10  C   UNL d   1      59.478   0.638  29.060  0.00  0.00     0.021 C 
ENDROOT
BRANCH   4  11
ATOM     11  N   UNL d   1      57.248  -0.164  30.629  0.00  0.00    -0.224 NA
BRANCH  11  12
ATOM     12  C   UNL d   1      57.324   0.148  31.386  0.00  0.00     0.120 C 
BRANCH  12  13
ATOM     13  C   UNL d   1      56.718   0.034  31.947  0.00  0.00     0.101 A 
ATOM     14  N   UNL d   1      56.519  -0.731  32.195  0.00  0.00    -0.242 NA
ATOM     15  C   UNL d   1      55.923  -0.843  32.746  0.00  0.00     0.099 A 
ATOM     16  C   UNL d   1      55.516  -0.192  33.059  0.00  0.00     0.021 A 
ATOM     17  C   UNL d   1      55.716   0.568  32.810  0.00  0.00     0.003 A 
ATOM     18  C   UNL d   1      56.318   0.682  32.253  0.00  0.00     0.021 A 
ENDBRANCH  12  13
ENDBRANCH  11  12
ENDBRANCH   4  11
BRANCH   3  19
ATOM     19  C   UNL d   1      59.521  -2.538  29.320  0.00  0.00     0.004 A 
ATOM     20  C   UNL d   1      60.290  -2.249  29.425  0.00  0.00     0.000 A 
ATOM     21  C   UNL d   1      60.919  -2.614  29.043  0.00  0.00     0.000 A 
ATOM     22  C   UNL d   1      60.784  -3.273  28.553  0.00  0.00     0.000 A 
ATOM     23  C   UNL d   1      60.016  -3.554  28.455  0.00  0.00     0.000 A 
ATOM     24  C   UNL d   1      59.385  -3.185  28.840  0.00  0.00     0.000 A 
ENDBRANCH   3  19
TORSDOF 4
ENDMDL
