MODEL 1
REMARK VINA RESULT:      -2.7      0.000      0.000
REMARK  7 active torsions:
REMARK  status: ('A' for Active; 'I' for Inactive)
REMARK    1  A    between atoms: C_4  and  C_1 
REMARK    2  A    between atoms: N_5  and  C_3 
REMARK    3  A    between atoms: C_9  and  C_4 
REMARK       I    between atoms: C_7  and  N_5 
REMARK    4  A    between atoms: C_10  and  C_7 
REMARK       I    between atoms: N_14  and  C_9 
REMARK    5  A    between atoms: C_20  and  N_14 
REMARK    6  A    between atoms: C_21  and  C_20 
REMARK    7  A    between atoms: O_29  and  C_22 
ROOT
ATOM      1  C   UNL d   1     -38.759  14.466  20.020  0.00  0.00     0.144 C 
ATOM      2  C   UNL d   1     -38.383  15.196  20.086  0.00  0.00     0.107 C 
ATOM      3  N   UNL d   1     -38.013  15.922  20.158  0.00  0.00    -0.191 NA
ENDROOT
BRANCH   1   4
ATOM      4  C   UNL d   1     -39.326  14.228  20.583  0.00  0.00     0.097 A 
ATOM      5  N   UNL d   1     -40.139  14.108  20.500  0.00  0.00    -0.226 NA
ATOM      6  C   UNL d   1     -40.441  13.875  21.233  0.00  0.00     0.166 A 
ATOM      7  C   UNL d   1     -39.816  13.850  21.771  0.00  0.00     0.037 A 
ATOM      8  C   UNL d   1     -39.121  14.068  21.376  0.00  0.00     0.021 A 
ATOM      9  C   UNL d   1     -39.784  13.658  22.572  0.00  0.00     0.003 A 
ATOM     10  C   UNL d   1     -38.406  14.093  21.778  0.00  0.00     0.002 A 
ATOM     11  C   UNL d   1     -38.373  13.900  22.579  0.00  0.00     0.000 A 
ATOM     12  C   UNL d   1     -39.068  13.682  22.975  0.00  0.00     0.000 A 
BRANCH   6  13
ATOM     13  N   UNL d   1     -41.210  13.692  21.435  0.00  0.00    -0.189 NA
ATOM     14  C   UNL d   1     -41.840  13.460  20.938  0.00  0.00     0.286 C 
ATOM     15  O   UNL d   1     -41.698  13.398  20.128  0.00  0.00    -0.265 OA
BRANCH  14  16
ATOM     16  C   UNL d   1     -42.590  13.294  21.236  0.00  0.00     0.087 A 
ATOM     17  S   UNL d   1     -42.831  12.510  21.337  0.00  0.00    -0.082 SA
ATOM     18  C   UNL d   1     -43.601  12.523  21.643  0.00  0.00     0.036 A 
ATOM     19  C   UNL d   1     -43.831  13.314  21.729  0.00  0.00     0.008 A 
ATOM     20  C   UNL d   1     -43.207  13.788  21.478  0.00  0.00     0.012 A 
ENDBRANCH  14  16
ENDBRANCH   6  13
ENDBRANCH   1   4
BRANCH   1  21
ATOM     21  C   UNL d   1     -38.574  13.963  19.389  0.00  0.00     0.290 C 
ATOM     22  N   UNL d   1     -38.847  14.130  18.634  0.00  0.00    -0.206 NA
ATOM     23  O   UNL d   1     -38.115  13.291  19.518  0.00  0.00    -0.264 OA
BRANCH  22  24
ATOM     24  C   UNL d   1     -39.310  14.809  18.505  0.00  0.00     0.102 C 
BRANCH  24  25
ATOM     25  C   UNL d   1     -39.779  15.087  17.880  0.00  0.00     0.019 A 
ATOM     26  C   UNL d   1     -39.432  15.534  17.283  0.00  0.00     0.004 A 
ATOM     27  C   UNL d   1     -39.888  15.812  16.663  0.00  0.00     0.024 A 
ATOM     28  C   UNL d   1     -40.703  15.644  16.635  0.00  0.00     0.094 A 
ATOM     29  C   UNL d   1     -41.049  15.196  17.233  0.00  0.00     0.024 A 
ATOM     30  C   UNL d   1     -40.580  14.918  17.858  0.00  0.00     0.004 A 
BRANCH  28  31
ATOM     31  O   UNL d   1     -41.162  15.922  16.014  0.00  0.00    -0.328 OA
ATOM     32  C   UNL d   1     -41.949  15.682  15.934  0.00  0.00     0.181 C 
ENDBRANCH  28  31
ENDBRANCH  24  25
ENDBRANCH  22  24
ENDBRANCH   1  21
TORSDOF 7
ENDMDL
MODEL 2
REMARK VINA RESULT:      -1.5      4.106      7.577
REMARK  7 active torsions:
REMARK  status: ('A' for Active; 'I' for Inactive)
REMARK    1  A    between atoms: C_4  and  C_1 
REMARK    2  A    between atoms: N_5  and  C_3 
REMARK    3  A    between atoms: C_9  and  C_4 
REMARK       I    between atoms: C_7  and  N_5 
REMARK    4  A    between atoms: C_10  and  C_7 
REMARK       I    between atoms: N_14  and  C_9 
REMARK    5  A    between atoms: C_20  and  N_14 
REMARK    6  A    between atoms: C_21  and  C_20 
REMARK    7  A    between atoms: O_29  and  C_22 
ROOT
ATOM      1  C   UNL d   1     -46.184  12.512  23.163  0.00  0.00     0.144 C 
ATOM      2  C   UNL d   1     -46.701  11.897  23.345  0.00  0.00     0.107 C 
ATOM      3  N   UNL d   1     -47.210  11.282  23.524  0.00  0.00    -0.191 NA
ENDROOT
BRANCH   1   4
ATOM      4  C   UNL d   1     -45.423  12.351  22.864  0.00  0.00     0.097 A 
ATOM      5  N   UNL d   1     -44.958  12.783  22.335  0.00  0.00    -0.226 NA
ATOM      6  C   UNL d   1     -44.248  12.375  22.224  0.00  0.00     0.166 A 
ATOM      7  C   UNL d   1     -44.272  11.690  22.684  0.00  0.00     0.037 A 
ATOM      8  C   UNL d   1     -44.997  11.668  23.084  0.00  0.00     0.021 A 
ATOM      9  C   UNL d   1     -43.728  11.080  22.793  0.00  0.00     0.003 A 
ATOM     10  C   UNL d   1     -45.175  11.043  23.586  0.00  0.00     0.002 A 
ATOM     11  C   UNL d   1     -44.632  10.432  23.696  0.00  0.00     0.000 A 
ATOM     12  C   UNL d   1     -43.906  10.454  23.296  0.00  0.00     0.000 A 
BRANCH   6  13
ATOM     13  N   UNL d   1     -43.611  12.575  21.755  0.00  0.00    -0.189 NA
ATOM     14  C   UNL d   1     -43.325  13.334  21.557  0.00  0.00     0.286 C 
ATOM     15  O   UNL d   1     -43.718  13.992  21.861  0.00  0.00    -0.265 OA
BRANCH  14  16
ATOM     16  C   UNL d   1     -42.668  13.437  21.071  0.00  0.00     0.087 A 
ATOM     17  S   UNL d   1     -42.023  13.880  21.335  0.00  0.00    -0.082 SA
ATOM     18  C   UNL d   1     -41.457  13.883  20.731  0.00  0.00     0.036 A 
ATOM     19  C   UNL d   1     -41.755  13.443  20.096  0.00  0.00     0.008 A 
ATOM     20  C   UNL d   1     -42.502  13.168  20.307  0.00  0.00     0.012 A 
ENDBRANCH  14  16
ENDBRANCH   6  13
ENDBRANCH   1   4
BRANCH   1  21
ATOM     21  C   UNL d   1     -46.420  13.297  23.278  0.00  0.00     0.290 C 
ATOM     22  N   UNL d   1     -47.136  13.561  22.975  0.00  0.00    -0.206 NA
ATOM     23  O   UNL d   1     -45.939  13.817  23.698  0.00  0.00    -0.264 OA
BRANCH  22  24
ATOM     24  C   UNL d   1     -47.622  13.036  22.551  0.00  0.00     0.102 C 
BRANCH  24  25
ATOM     25  C   UNL d   1     -48.366  13.089  22.191  0.00  0.00     0.019 A 
ATOM     26  C   UNL d   1     -48.464  12.816  21.422  0.00  0.00     0.004 A 
ATOM     27  C   UNL d   1     -49.198  12.866  21.060  0.00  0.00     0.024 A 
ATOM     28  C   UNL d   1     -49.844  13.192  21.470  0.00  0.00     0.094 A 
ATOM     29  C   UNL d   1     -49.745  13.465  22.239  0.00  0.00     0.024 A 
ATOM     30  C   UNL d   1     -49.000  13.412  22.599  0.00  0.00     0.004 A 
BRANCH  28  31
ATOM     31  O   UNL d   1     -50.580  13.243  21.109  0.00  0.00    -0.328 OA
ATOM     32  C   UNL d   1     -51.020  13.942  21.149  0.00  0.00     0.181 C 
ENDBRANCH  28  31
ENDBRANCH  24  25
ENDBRANCH  22  24
ENDBRANCH   1  21
TORSDOF 7
ENDMDL
MODEL 3
REMARK VINA RESULT:      -0.7      1.972      4.886
REMARK  7 active torsions:
REMARK  status: ('A' for Active; 'I' for Inactive)
REMARK    1  A    between atoms: C_4  and  C_1 
REMARK    2  A    between atoms: N_5  and  C_3 
REMARK    3  A    between atoms: C_9  and  C_4 
REMARK       I    between atoms: C_7  and  N_5 
REMARK    4  A    between atoms: C_10  and  C_7 
REMARK       I    between atoms: N_14  and  C_9 
REMARK    5  A    between atoms: C_20  and  N_14 
REMARK    6  A    between atoms: C_21  and  C_20 
REMARK    7  A    between atoms: O_29  and  C_22 
ROOT
ATOM      1  C   UNL d   1     -40.706  14.625  21.023  0.00  0.00     0.144 C 
ATOM      2  C   UNL d   1     -40.601  14.173  21.704  0.00  0.00     0.107 C 
ATOM      3  N   UNL d   1     -40.489  13.723  22.378  0.00  0.00    -0.191 NA
ENDROOT
BRANCH   1   4
ATOM      4  C   UNL d   1     -40.109  14.661  20.441  0.00  0.00     0.097 A 
ATOM      5  N   UNL d   1     -40.075  14.314  19.693  0.00  0.00    -0.226 NA
ATOM      6  C   UNL d   1     -39.358  14.529  19.343  0.00  0.00     0.166 A 
ATOM      7  C   UNL d   1     -38.947  15.009  19.873  0.00  0.00     0.037 A 
ATOM      8  C   UNL d   1     -39.406  15.096  20.558  0.00  0.00     0.021 A 
ATOM      9  C   UNL d   1     -38.213  15.381  19.827  0.00  0.00     0.003 A 
ATOM     10  C   UNL d   1     -39.134  15.549  21.185  0.00  0.00     0.002 A 
ATOM     11  C   UNL d   1     -38.399  15.922  21.140  0.00  0.00     0.000 A 
ATOM     12  C   UNL d   1     -37.940  15.835  20.455  0.00  0.00     0.000 A 
BRANCH   6  13
ATOM     13  N   UNL d   1     -39.067  14.326  18.608  0.00  0.00    -0.189 NA
ATOM     14  C   UNL d   1     -39.481  14.038  17.942  0.00  0.00     0.286 C 
ATOM     15  O   UNL d   1     -40.296  13.933  18.003  0.00  0.00    -0.265 OA
BRANCH  14  16
ATOM     16  C   UNL d   1     -39.096  13.859  17.236  0.00  0.00     0.087 A 
ATOM     17  S   UNL d   1     -39.200  14.343  16.574  0.00  0.00    -0.082 SA
ATOM     18  C   UNL d   1     -38.749  14.024  15.958  0.00  0.00     0.036 A 
ATOM     19  C   UNL d   1     -38.368  13.345  16.241  0.00  0.00     0.008 A 
ATOM     20  C   UNL d   1     -38.583  13.245  17.030  0.00  0.00     0.012 A 
ENDBRANCH  14  16
ENDBRANCH   6  13
ENDBRANCH   1   4
BRANCH   1  21
ATOM     21  C   UNL d   1     -41.410  15.046  20.913  0.00  0.00     0.290 C 
ATOM     22  N   UNL d   1     -42.134  14.666  20.985  0.00  0.00    -0.206 NA
ATOM     23  O   UNL d   1     -41.387  15.849  20.731  0.00  0.00    -0.264 OA
BRANCH  22  24
ATOM     24  C   UNL d   1     -42.156  13.855  21.168  0.00  0.00     0.102 C 
BRANCH  24  25
ATOM     25  C   UNL d   1     -42.746  13.328  21.413  0.00  0.00     0.019 A 
ATOM     26  C   UNL d   1     -43.518  13.598  21.504  0.00  0.00     0.004 A 
ATOM     27  C   UNL d   1     -44.107  13.082  21.746  0.00  0.00     0.024 A 
ATOM     28  C   UNL d   1     -43.925  12.284  21.900  0.00  0.00     0.094 A 
ATOM     29  C   UNL d   1     -43.153  12.015  21.808  0.00  0.00     0.024 A 
ATOM     30  C   UNL d   1     -42.563  12.543  21.563  0.00  0.00     0.004 A 
BRANCH  28  31
ATOM     31  O   UNL d   1     -44.514  11.765  22.142  0.00  0.00    -0.328 OA
ATOM     32  C   UNL d   1     -44.513  11.459  22.910  0.00  0.00     0.181 C 
ENDBRANCH  28  31
ENDBRANCH  24  25
ENDBRANCH  22  24
ENDBRANCH   1  21
TORSDOF 7
ENDMDL
