MODEL 1
REMARK VINA RESULT:      -2.4      0.000      0.000
REMARK  5 active torsions:
REMARK  status: ('A' for Active; 'I' for Inactive)
REMARK    1  A    between atoms: C_2  and  C_1 
REMARK    2  A    between atoms: C_5  and  C_2 
REMARK    3  A    between atoms: C_9  and  C_5 
REMARK    4  A    between atoms: O_18  and  C_12 
REMARK    5  A    between atoms: O_19  and  C_14 
ROOT
ATOM      1  C   UNL d   1      58.254  -0.185  30.783  0.00  0.00     0.141 C 
ATOM      2  C   UNL d   1      58.839   0.246  31.180  0.00  0.00     0.107 C 
ATOM      3  N   UNL d   1      59.440   0.681  31.582  0.00  0.00    -0.191 NA
ENDROOT
BRANCH   1   4
ATOM      4  C   UNL d   1      58.460  -0.803  30.292  0.00  0.00     0.161 A 
ATOM      5  N   UNL d   1      59.031  -0.755  29.674  0.00  0.00    -0.287 N 
ATOM      6  C   UNL d   1      59.068  -1.510  29.314  0.00  0.00     0.083 A 
ATOM      7  C   UNL d   1      59.463  -0.091  29.470  0.00  0.00     0.101 C 
ATOM      8  C   UNL d   1      59.505  -1.812  28.697  0.00  0.00     0.019 A 
ATOM      9  C   UNL d   1      58.525  -2.007  29.711  0.00  0.00     0.099 A 
ATOM     10  C   UNL d   1      59.428  -2.590  28.455  0.00  0.00     0.002 A 
ATOM     11  C   UNL d   1      58.885  -3.087  28.853  0.00  0.00     0.002 A 
ATOM     12  C   UNL d   1      58.432  -2.794  29.483  0.00  0.00     0.021 A 
ATOM     13  N   UNL d   1      58.162  -1.550  30.310  0.00  0.00    -0.226 NA
ENDBRANCH   1   4
BRANCH   1  14
ATOM     14  C   UNL d   1      57.461   0.018  30.890  0.00  0.00     0.208 C 
ATOM     15  O   UNL d   1      57.010   0.219  30.234  0.00  0.00    -0.286 OA
BRANCH  14  16
ATOM     16  C   UNL d   1      57.130   0.019  31.640  0.00  0.00     0.042 A 
ATOM     17  C   UNL d   1      56.726  -0.640  31.920  0.00  0.00     0.029 A 
ATOM     18  C   UNL d   1      56.396  -0.639  32.665  0.00  0.00     0.116 A 
ATOM     19  C   UNL d   1      56.462   0.020  33.152  0.00  0.00     0.116 A 
ATOM     20  C   UNL d   1      56.867   0.682  32.873  0.00  0.00     0.026 A 
ATOM     21  C   UNL d   1      57.197   0.681  32.127  0.00  0.00     0.005 A 
BRANCH  18  22
ATOM     22  O   UNL d   1      56.000  -1.305  32.920  0.00  0.00    -0.326 OA
ATOM     23  C   UNL d   1      55.320  -1.583  32.516  0.00  0.00     0.181 C 
ENDBRANCH  18  22
BRANCH  19  24
ATOM     24  O   UNL d   1      56.134   0.020  33.894  0.00  0.00    -0.326 OA
ATOM     25  C   UNL d   1      56.366   0.592  34.454  0.00  0.00     0.181 C 
ENDBRANCH  19  24
ENDBRANCH  14  16
ENDBRANCH   1  14
TORSDOF 5
ENDMDL
MODEL 2
REMARK VINA RESULT:      -2.2      1.290      1.933
REMARK  5 active torsions:
REMARK  status: ('A' for Active; 'I' for Inactive)
REMARK    1  A    between atoms: C_2  and  C_1 
REMARK    2  A    between atoms: C_5  and  C_2 
REMARK    3  A    between atoms: C_9  and  C_5 
REMARK    4  A    between atoms: O_18  and  C_12 
REMARK    5  A    between atoms: O_19  and  C_14 
ROOT
ATOM      1  C   UNL d   1      58.751  -0.061  29.537  0.00  0.00     0.141 C 
ATOM      2  C   UNL d   1      58.228   0.303  29.008  0.00  0.00     0.107 C 
ATOM      3  N   UNL d   1      57.696   0.667  28.464  0.00  0.00    -0.191 NA
ENDROOT
BRANCH   1   4
ATOM      4  C   UNL d   1      59.088  -0.782  29.354  0.00  0.00     0.161 A 
ATOM      5  N   UNL d   1      59.830  -0.880  28.967  0.00  0.00    -0.287 N 
ATOM      6  C   UNL d   1      59.960  -1.704  28.890  0.00  0.00     0.083 A 
ATOM      7  C   UNL d   1      60.325  -0.279  28.717  0.00  0.00     0.101 C 
ATOM      8  C   UNL d   1      60.565  -2.146  28.570  0.00  0.00     0.019 A 
ATOM      9  C   UNL d   1      59.302  -2.096  29.227  0.00  0.00     0.099 A 
ATOM     10  C   UNL d   1      60.547  -2.963  28.570  0.00  0.00     0.002 A 
ATOM     11  C   UNL d   1      59.890  -3.356  28.907  0.00  0.00     0.002 A 
ATOM     12  C   UNL d   1      59.266  -2.921  29.236  0.00  0.00     0.021 A 
ATOM     13  N   UNL d   1      58.778  -1.508  29.506  0.00  0.00    -0.226 NA
ENDBRANCH   1   4
BRANCH   1  14
ATOM     14  C   UNL d   1      58.928   0.314  30.250  0.00  0.00     0.208 C 
ATOM     15  O   UNL d   1      59.686   0.607  30.368  0.00  0.00    -0.286 OA
BRANCH  14  16
ATOM     16  C   UNL d   1      58.356   0.392  30.832  0.00  0.00     0.042 A 
ATOM     17  C   UNL d   1      58.567   0.433  31.625  0.00  0.00     0.029 A 
ATOM     18  C   UNL d   1      57.998   0.511  32.203  0.00  0.00     0.116 A 
ATOM     19  C   UNL d   1      57.201   0.549  32.005  0.00  0.00     0.116 A 
ATOM     20  C   UNL d   1      56.987   0.507  31.209  0.00  0.00     0.026 A 
ATOM     21  C   UNL d   1      57.556   0.430  30.630  0.00  0.00     0.005 A 
BRANCH  18  22
ATOM     22  O   UNL d   1      58.233   0.550  32.983  0.00  0.00    -0.326 OA
ATOM     23  C   UNL d   1      59.036   0.680  33.185  0.00  0.00     0.181 C 
ENDBRANCH  18  22
BRANCH  19  24
ATOM     24  O   UNL d   1      56.635   0.626  32.580  0.00  0.00    -0.326 OA
ATOM     25  C   UNL d   1      55.929   0.186  32.535  0.00  0.00     0.181 C 
ENDBRANCH  19  24
ENDBRANCH  14  16
ENDBRANCH   1  14
TORSDOF 5
ENDMDL
MODEL 3
REMARK VINA RESULT:      -2.0      0.777      1.371
REMARK  5 active torsions:
REMARK  status: ('A' for Active; 'I' for Inactive)
REMARK    1  A    between atoms: C_2  and  C_1 
REMARK    2  A    between atoms: C_5  and  C_2 
REMARK    3  A    between atoms: C_9  and  C_5 
REMARK    4  A    between atoms: O_18  and  C_12 
REMARK    5  A    between atoms: O_19  and  C_14 
ROOT
ATOM      1  C   UNL d   1      57.864   0.030  31.321  0.00  0.00     0.141 C 
ATOM      2  C   UNL d   1      58.357   0.352  31.903  0.00  0.00     0.107 C 
ATOM      3  N   UNL d   1      58.865   0.678  32.492  0.00  0.00    -0.191 NA
ENDROOT
BRANCH   1   4
ATOM      4  C   UNL d   1      58.183  -0.382  30.692  0.00  0.00     0.161 A 
ATOM      5  N   UNL d   1      58.754  -0.071  30.156  0.00  0.00    -0.287 N 
ATOM      6  C   UNL d   1      58.927  -0.675  29.602  0.00  0.00     0.083 A 
ATOM      7  C   UNL d   1      59.075   0.682  30.178  0.00  0.00     0.101 C 
ATOM      8  C   UNL d   1      59.425  -0.716  28.959  0.00  0.00     0.019 A 
ATOM      9  C   UNL d   1      58.464  -1.342  29.804  0.00  0.00     0.099 A 
ATOM     10  C   UNL d   1      59.485  -1.393  28.504  0.00  0.00     0.002 A 
ATOM     11  C   UNL d   1      59.023  -2.061  28.706  0.00  0.00     0.002 A 
ATOM     12  C   UNL d   1      58.511  -2.035  29.358  0.00  0.00     0.021 A 
ATOM     13  N   UNL d   1      58.014  -1.139  30.479  0.00  0.00    -0.226 NA
ENDBRANCH   1   4
BRANCH   1  14
ATOM     14  C   UNL d   1      57.048   0.129  31.383  0.00  0.00     0.208 C 
ATOM     15  O   UNL d   1      56.661   0.603  30.835  0.00  0.00    -0.286 OA
BRANCH  14  16
ATOM     16  C   UNL d   1      56.629  -0.240  31.984  0.00  0.00     0.042 A 
ATOM     17  C   UNL d   1      56.412   0.175  32.660  0.00  0.00     0.029 A 
ATOM     18  C   UNL d   1      55.996  -0.191  33.257  0.00  0.00     0.116 A 
ATOM     19  C   UNL d   1      55.785  -0.984  33.196  0.00  0.00     0.116 A 
ATOM     20  C   UNL d   1      56.003  -1.402  32.519  0.00  0.00     0.026 A 
ATOM     21  C   UNL d   1      56.419  -1.035  31.921  0.00  0.00     0.005 A 
BRANCH  18  22
ATOM     22  O   UNL d   1      55.792   0.242  33.917  0.00  0.00    -0.326 OA
ATOM     23  C   UNL d   1      55.066   0.661  33.950  0.00  0.00     0.181 C 
ENDBRANCH  18  22
BRANCH  19  24
ATOM     24  O   UNL d   1      55.372  -1.348  33.790  0.00  0.00    -0.326 OA
ATOM     25  C   UNL d   1      55.235  -2.170  33.763  0.00  0.00     0.181 C 
ENDBRANCH  19  24
ENDBRANCH  14  16
ENDBRANCH   1  14
TORSDOF 5
ENDMDL
MODEL 4
REMARK VINA RESULT:      -1.7      1.263      1.850
REMARK  5 active torsions:
REMARK  status: ('A' for Active; 'I' for Inactive)
REMARK    1  A    between atoms: C_2  and  C_1 
REMARK    2  A    between atoms: C_5  and  C_2 
REMARK    3  A    between atoms: C_9  and  C_5 
REMARK    4  A    between atoms: O_18  and  C_12 
REMARK    5  A    between atoms: O_19  and  C_14 
ROOT
ATOM      1  C   UNL d   1      57.772  -0.379  30.782  0.00  0.00     0.141 C 
ATOM      2  C   UNL d   1      57.636  -1.176  30.962  0.00  0.00     0.107 C 
ATOM      3  N   UNL d   1      57.504  -1.990  31.141  0.00  0.00    -0.191 NA
ENDROOT
BRANCH   1   4
ATOM      4  C   UNL d   1      58.424  -0.162  30.342  0.00  0.00     0.161 A 
ATOM      5  N   UNL d   1      58.489  -0.246  29.506  0.00  0.00    -0.287 N 
ATOM      6  C   UNL d   1      59.242   0.044  29.287  0.00  0.00     0.083 A 
ATOM      7  C   UNL d   1      57.917  -0.556  29.009  0.00  0.00     0.101 C 
ATOM      8  C   UNL d   1      59.628   0.112  28.573  0.00  0.00     0.019 A 
ATOM      9  C   UNL d   1      59.627   0.301  29.984  0.00  0.00     0.099 A 
ATOM     10  C   UNL d   1      60.382   0.425  28.518  0.00  0.00     0.002 A 
ATOM     11  C   UNL d   1      60.766   0.682  29.216  0.00  0.00     0.002 A 
ATOM     12  C   UNL d   1      60.388   0.620  29.950  0.00  0.00     0.021 A 
ATOM     13  N   UNL d   1      59.104   0.165  30.622  0.00  0.00    -0.226 NA
ENDBRANCH   1   4
BRANCH   1  14
ATOM     14  C   UNL d   1      57.241   0.191  31.053  0.00  0.00     0.208 C 
ATOM     15  O   UNL d   1      56.872   0.682  30.508  0.00  0.00    -0.286 OA
BRANCH  14  16
ATOM     16  C   UNL d   1      57.085   0.266  31.855  0.00  0.00     0.042 A 
ATOM     17  C   UNL d   1      56.373   0.003  32.169  0.00  0.00     0.029 A 
ATOM     18  C   UNL d   1      56.218   0.078  32.966  0.00  0.00     0.116 A 
ATOM     19  C   UNL d   1      56.771   0.417  33.471  0.00  0.00     0.116 A 
ATOM     20  C   UNL d   1      57.487   0.681  33.156  0.00  0.00     0.026 A 
ATOM     21  C   UNL d   1      57.642   0.607  32.360  0.00  0.00     0.005 A 
BRANCH  18  22
ATOM     22  O   UNL d   1      55.503  -0.190  33.254  0.00  0.00    -0.326 OA
ATOM     23  C   UNL d   1      55.213  -0.949  33.047  0.00  0.00     0.181 C 
ENDBRANCH  18  22
BRANCH  19  24
ATOM     24  O   UNL d   1      56.616   0.492  34.263  0.00  0.00    -0.326 OA
ATOM     25  C   UNL d   1      57.232   0.672  34.795  0.00  0.00     0.181 C 
ENDBRANCH  19  24
ENDBRANCH  14  16
ENDBRANCH   1  14
TORSDOF 5
ENDMDL
MODEL 5
REMARK VINA RESULT:      -0.2      1.510      2.561
REMARK  5 active torsions:
REMARK  status: ('A' for Active; 'I' for Inactive)
REMARK    1  A    between atoms: C_2  and  C_1 
REMARK    2  A    between atoms: C_5  and  C_2 
REMARK    3  A    between atoms: C_9  and  C_5 
REMARK    4  A    between atoms: O_18  and  C_12 
REMARK    5  A    between atoms: O_19  and  C_14 
ROOT
ATOM      1  C   UNL d   1      56.959  -0.401  32.131  0.00  0.00     0.141 C 
ATOM      2  C   UNL d   1      56.599  -1.125  32.312  0.00  0.00     0.107 C 
ATOM      3  N   UNL d   1      56.233  -1.864  32.488  0.00  0.00    -0.191 NA
ENDROOT
BRANCH   1   4
ATOM      4  C   UNL d   1      57.282  -0.275  31.392  0.00  0.00     0.161 A 
ATOM      5  N   UNL d   1      57.885  -0.750  31.045  0.00  0.00    -0.287 N 
ATOM      6  C   UNL d   1      58.051  -0.426  30.291  0.00  0.00     0.083 A 
ATOM      7  C   UNL d   1      58.239  -1.404  31.387  0.00  0.00     0.101 C 
ATOM      8  C   UNL d   1      58.569  -0.631  29.697  0.00  0.00     0.019 A 
ATOM      9  C   UNL d   1      57.551   0.237  30.186  0.00  0.00     0.099 A 
ATOM     10  C   UNL d   1      58.615  -0.206  29.000  0.00  0.00     0.002 A 
ATOM     11  C   UNL d   1      58.116   0.458  28.895  0.00  0.00     0.002 A 
ATOM     12  C   UNL d   1      57.583   0.679  29.490  0.00  0.00     0.021 A 
ATOM     13  N   UNL d   1      57.087   0.311  30.877  0.00  0.00    -0.226 NA
ENDBRANCH   1   4
BRANCH   1  14
ATOM     14  C   UNL d   1      56.987   0.189  32.706  0.00  0.00     0.208 C 
ATOM     15  O   UNL d   1      57.663   0.651  32.769  0.00  0.00    -0.286 OA
BRANCH  14  16
ATOM     16  C   UNL d   1      56.350   0.312  33.207  0.00  0.00     0.042 A 
ATOM     17  C   UNL d   1      56.466   0.425  34.013  0.00  0.00     0.029 A 
ATOM     18  C   UNL d   1      55.832   0.547  34.511  0.00  0.00     0.116 A 
ATOM     19  C   UNL d   1      55.065   0.560  34.217  0.00  0.00     0.116 A 
ATOM     20  C   UNL d   1      54.946   0.447  33.408  0.00  0.00     0.026 A 
ATOM     21  C   UNL d   1      55.580   0.324  32.910  0.00  0.00     0.005 A 
BRANCH  18  22
ATOM     22  O   UNL d   1      55.973   0.657  35.307  0.00  0.00    -0.326 OA
ATOM     23  C   UNL d   1      56.652   0.328  35.673  0.00  0.00     0.181 C 
ENDBRANCH  18  22
BRANCH  19  24
ATOM     24  O   UNL d   1      54.434   0.681  34.713  0.00  0.00    -0.326 OA
ATOM     25  C   UNL d   1      53.658   0.677  34.411  0.00  0.00     0.181 C 
ENDBRANCH  19  24
ENDBRANCH  14  16
ENDBRANCH   1  14
TORSDOF 5
ENDMDL
MODEL 6
REMARK VINA RESULT:      -0.2      8.329      9.681
REMARK  5 active torsions:
REMARK  status: ('A' for Active; 'I' for Inactive)
REMARK    1  A    between atoms: C_2  and  C_1 
REMARK    2  A    between atoms: C_5  and  C_2 
REMARK    3  A    between atoms: C_9  and  C_5 
REMARK    4  A    between atoms: O_18  and  C_12 
REMARK    5  A    between atoms: O_19  and  C_14 
ROOT
ATOM      1  C   UNL d   1      59.524  -9.083  34.576  0.00  0.00     0.141 C 
ATOM      2  C   UNL d   1      58.809  -9.449  34.777  0.00  0.00     0.107 C 
ATOM      3  N   UNL d   1      58.080  -9.817  34.986  0.00  0.00    -0.191 NA
ENDROOT
BRANCH   1   4
ATOM      4  C   UNL d   1      59.769  -8.412  34.973  0.00  0.00     0.161 A 
ATOM      5  N   UNL d   1      59.259  -7.788  35.219  0.00  0.00    -0.287 N 
ATOM      6  C   UNL d   1      59.736  -7.216  35.601  0.00  0.00     0.083 A 
ATOM      7  C   UNL d   1      58.450  -7.754  35.102  0.00  0.00     0.101 C 
ATOM      8  C   UNL d   1      59.575  -6.500  35.954  0.00  0.00     0.019 A 
ATOM      9  C   UNL d   1      60.525  -7.494  35.585  0.00  0.00     0.099 A 
ATOM     10  C   UNL d   1      60.163  -6.045  36.293  0.00  0.00     0.002 A 
ATOM     11  C   UNL d   1      60.952  -6.323  36.277  0.00  0.00     0.002 A 
ATOM     12  C   UNL d   1      61.133  -7.050  35.922  0.00  0.00     0.021 A 
ATOM     13  N   UNL d   1      60.521  -8.233  35.193  0.00  0.00    -0.226 NA
ENDBRANCH   1   4
BRANCH   1  14
ATOM     14  C   UNL d   1      59.986  -9.403  33.973  0.00  0.00     0.208 C 
ATOM     15  O   UNL d   1      60.762  -9.617  34.137  0.00  0.00    -0.286 OA
BRANCH  14  16
ATOM     16  C   UNL d   1      59.675  -9.506  33.221  0.00  0.00     0.042 A 
ATOM     17  C   UNL d   1      60.169  -9.612  32.574  0.00  0.00     0.029 A 
ATOM     18  C   UNL d   1      59.860  -9.714  31.827  0.00  0.00     0.116 A 
ATOM     19  C   UNL d   1      59.047  -9.714  31.706  0.00  0.00     0.116 A 
ATOM     20  C   UNL d   1      58.549  -9.608  32.356  0.00  0.00     0.026 A 
ATOM     21  C   UNL d   1      58.858  -9.505  33.103  0.00  0.00     0.005 A 
BRANCH  18  22
ATOM     22  O   UNL d   1      60.372  -9.817  31.200  0.00  0.00    -0.326 OA
ATOM     23  C   UNL d   1      61.115  -9.430  31.183  0.00  0.00     0.181 C 
ENDBRANCH  18  22
BRANCH  19  24
ATOM     24  O   UNL d   1      58.739  -9.816  30.963  0.00  0.00    -0.326 OA
ATOM     25  C   UNL d   1      57.924  -9.709  30.829  0.00  0.00     0.181 C 
ENDBRANCH  19  24
ENDBRANCH  14  16
ENDBRANCH   1  14
TORSDOF 5
ENDMDL
