MODEL 1
REMARK VINA RESULT:      24.6      0.000      0.000
REMARK  2 active torsions:
REMARK  status: ('A' for Active; 'I' for Inactive)
REMARK       I    between atoms: C_3  and  N_1 
REMARK       I    between atoms: C_4  and  N_2 
REMARK    1  A    between atoms: C_5  and  C_3 
REMARK    2  A    between atoms: C_6  and  C_4 
ROOT
ATOM      1  N   UNL d   1      45.982 -15.499  43.777  0.00  0.00    -0.270 N 
ATOM      2  N   UNL d   1      45.901 -17.139  43.935  0.00  0.00    -0.269 N 
ATOM      3  C   UNL d   1      46.024 -14.689  43.695  0.00  0.00     0.271 C 
ATOM      4  C   UNL d   1      45.866 -17.950  44.005  0.00  0.00     0.271 C 
ATOM      5  C   UNL d   1      45.560 -15.833  44.410  0.00  0.00     0.085 A 
ATOM      6  C   UNL d   1      45.526 -16.644  44.479  0.00  0.00     0.101 A 
ATOM      7  C   UNL d   1      46.366 -15.973  43.219  0.00  0.00     0.102 A 
ATOM      8  C   UNL d   1      46.322 -16.804  43.302  0.00  0.00     0.102 A 
ATOM      9  O   UNL d   1      46.450 -14.355  43.056  0.00  0.00    -0.266 OA
ATOM     10  O   UNL d   1      45.453 -18.279  44.625  0.00  0.00    -0.266 OA
ATOM     11  C   UNL d   1      45.185 -15.338  44.954  0.00  0.00     0.021 C 
ENDROOT
BRANCH   3  12
ATOM     12  C   UNL d   1      45.655 -14.188  44.232  0.00  0.00     0.086 A 
ATOM     13  S   UNL d   1      45.178 -13.949  44.866  0.00  0.00    -0.082 SA
ATOM     14  C   UNL d   1      45.225 -13.131  44.923  0.00  0.00     0.036 A 
ATOM     15  C   UNL d   1      45.732 -12.860  44.323  0.00  0.00     0.008 A 
ATOM     16  C   UNL d   1      45.996 -13.522  43.896  0.00  0.00     0.012 A 
ENDBRANCH   3  12
BRANCH   4  17
ATOM     17  C   UNL d   1      46.167 -18.585  43.573  0.00  0.00     0.086 A 
ATOM     18  S   UNL d   1      46.442 -18.898  42.862  0.00  0.00    -0.082 SA
ATOM     19  C   UNL d   1      46.646 -19.690  42.999  0.00  0.00     0.036 A 
ATOM     20  C   UNL d   1      46.489 -19.853  43.805  0.00  0.00     0.008 A 
ATOM     21  C   UNL d   1      46.197 -19.166  44.141  0.00  0.00     0.012 A 
ENDBRANCH   4  17
TORSDOF 2
ENDMDL
