MODEL 1
REMARK VINA RESULT:      55.6      0.000      0.000
REMARK  8 active torsions:
REMARK  status: ('A' for Active; 'I' for Inactive)
REMARK    1  A    between atoms: C_11  and  C_1 
REMARK    2  A    between atoms: C_10  and  C_2 
REMARK    3  A    between atoms: C_4  and  C_3 
REMARK    4  A    between atoms: C_14  and  C_9 
REMARK    5  A    between atoms: O_17  and  C_10 
REMARK    6  A    between atoms: O_18  and  C_11 
REMARK    7  A    between atoms: C_24  and  O_17 
REMARK    8  A    between atoms: C_23  and  O_18 
ROOT
ATOM      1  C   UNL d   1      14.655  15.337  -2.125  0.00  0.00     0.083 A 
ATOM      2  C   UNL d   1      14.619  14.028  -1.494  0.00  0.00     0.083 A 
ATOM      3  C   UNL d   1      14.393  14.556  -2.085  0.00  0.00     0.036 A 
ATOM      4  C   UNL d   1      15.133  14.296  -0.915  0.00  0.00     0.087 A 
ATOM      5  C   UNL d   1      15.200  15.608  -1.505  0.00  0.00     0.087 A 
ATOM      6  N   UNL d   1      15.428  15.068  -0.905  0.00  0.00    -0.245 NA
ATOM      7  C   UNL d   1      15.388  13.757  -0.278  0.00  0.00     0.021 C 
ATOM      8  C   UNL d   1      15.491  16.377  -1.499  0.00  0.00     0.021 C 
ENDROOT
BRANCH   3   9
ATOM      9  C   UNL d   1      13.872  14.306  -2.684  0.00  0.00     0.100 A 
ATOM     10  O   UNL d   1      13.971  13.648  -3.192  0.00  0.00    -0.307 OA
ATOM     11  C   UNL d   1      13.305  13.636  -3.685  0.00  0.00     0.100 A 
ATOM     12  C   UNL d   1      12.824  14.272  -3.474  0.00  0.00     0.027 A 
ATOM     13  C   UNL d   1      13.165  14.677  -2.869  0.00  0.00     0.027 A 
BRANCH  11  14
ATOM     14  C   UNL d   1      13.305  13.013  -4.234  0.00  0.00     0.023 A 
ATOM     15  C   UNL d   1      13.857  13.032  -4.840  0.00  0.00     0.002 A 
ATOM     16  C   UNL d   1      13.882  12.438  -5.391  0.00  0.00     0.000 A 
ATOM     17  C   UNL d   1      13.313  11.787  -5.323  0.00  0.00     0.000 A 
ATOM     18  C   UNL d   1      12.769  11.787  -4.709  0.00  0.00     0.000 A 
ATOM     19  C   UNL d   1      12.782  12.414  -4.172  0.00  0.00     0.002 A 
ENDBRANCH  11  14
ENDBRANCH   3   9
BRANCH   2  20
ATOM     20  C   UNL d   1      14.353  13.244  -1.458  0.00  0.00     0.302 C 
ATOM     21  O   UNL d   1      14.605  12.699  -2.001  0.00  0.00    -0.259 OA
BRANCH  20  22
ATOM     22  O   UNL d   1      13.827  12.999  -0.872  0.00  0.00    -0.271 OA
BRANCH  22  23
ATOM     23  C   UNL d   1      13.432  12.121  -0.748  0.00  0.00     0.126 C 
ATOM     24  C   UNL d   1      13.602  11.783  -0.019  0.00  0.00     0.029 C 
ENDBRANCH  22  23
ENDBRANCH  20  22
ENDBRANCH   2  20
BRANCH   1  25
ATOM     25  C   UNL d   1      14.424  15.890  -2.736  0.00  0.00     0.302 C 
ATOM     26  O   UNL d   1      13.712  16.261  -2.706  0.00  0.00    -0.259 OA
BRANCH  25  27
ATOM     27  O   UNL d   1      14.961  16.028  -3.359  0.00  0.00    -0.271 OA
BRANCH  27  28
ATOM     28  C   UNL d   1      14.842  16.610  -3.941  0.00  0.00     0.126 C 
ATOM     29  C   UNL d   1      15.428  16.390  -4.533  0.00  0.00     0.029 C 
ENDBRANCH  27  28
ENDBRANCH  25  27
ENDBRANCH   1  25
TORSDOF 8
ENDMDL
