MODEL 1
REMARK VINA RESULT:      -2.0      0.000      0.000
REMARK  9 active torsions:
REMARK  status: ('A' for Active; 'I' for Inactive)
REMARK    1  A    between atoms: N_9  and  C_3 
REMARK    2  A    between atoms: S_14  and  C_6 
REMARK       I    between atoms: C_11  and  N_9 
REMARK    3  A    between atoms: C_18  and  C_11 
REMARK    4  A    between atoms: C_12  and  C_15 
REMARK    5  A    between atoms: O_25  and  C_12 
REMARK    6  A    between atoms: C_13  and  C_23 
REMARK       I    between atoms: N_16  and  C_13 
REMARK    7  A    between atoms: C_23  and  S_14 
REMARK    8  A    between atoms: C_24  and  N_16 
REMARK    9  A    between atoms: C_32  and  O_25 
ROOT
ATOM      1  C   UNL d   1      33.134  22.055 -22.582  0.00  0.00     0.079 A 
ATOM      2  C   UNL d   1      33.058  21.659 -23.313  0.00  0.00     0.187 A 
ATOM      3  C   UNL d   1      33.162  21.622 -21.891  0.00  0.00     0.171 A 
ATOM      4  N   UNL d   1      33.012  20.837 -23.339  0.00  0.00    -0.197 NA
ATOM      5  N   UNL d   1      33.117  20.799 -21.899  0.00  0.00    -0.202 NA
ATOM      6  C   UNL d   1      33.041  20.402 -22.630  0.00  0.00     0.198 A 
ATOM      7  C   UNL d   1      33.166  22.864 -22.740  0.00  0.00     0.029 A 
ATOM      8  O   UNL d   1      33.044  22.231 -23.918  0.00  0.00    -0.289 OA
ATOM      9  C   UNL d   1      33.111  22.977 -23.557  0.00  0.00     0.102 A 
ATOM     10  C   UNL d   1      33.240  23.464 -22.175  0.00  0.00     0.002 C 
ATOM     11  C   UNL d   1      33.120  23.702 -23.951  0.00  0.00     0.027 C 
ENDROOT
BRANCH   6  12
ATOM     12  S   UNL d   1      32.995  19.573 -22.652  0.00  0.00    -0.043 SA
BRANCH  12  13
ATOM     13  C   UNL d   1      33.240  19.164 -23.319  0.00  0.00     0.101 C 
BRANCH  13  14
ATOM     14  C   UNL d   1      32.818  18.504 -23.578  0.00  0.00     0.286 C 
ATOM     15  N   UNL d   1      32.030  18.415 -23.365  0.00  0.00    -0.208 NA
ATOM     16  O   UNL d   1      33.183  17.935 -24.051  0.00  0.00    -0.265 OA
BRANCH  15  17
ATOM     17  C   UNL d   1      31.599  17.759 -23.618  0.00  0.00     0.085 A 
ATOM     18  C   UNL d   1      31.424  17.664 -24.413  0.00  0.00     0.019 A 
ATOM     19  C   UNL d   1      30.992  17.004 -24.656  0.00  0.00     0.007 A 
ATOM     20  C   UNL d   1      30.738  16.446 -24.104  0.00  0.00     0.064 A 
ATOM     21  C   UNL d   1      30.919  16.549 -23.299  0.00  0.00     0.007 A 
ATOM     22  C   UNL d   1      31.348  17.203 -23.056  0.00  0.00     0.019 A 
BRANCH  20  23
ATOM     23  C   UNL d   1      30.304  15.784 -24.351  0.00  0.00     0.300 C 
ATOM     24  O   UNL d   1      30.436  15.455 -25.097  0.00  0.00    -0.259 OA
BRANCH  23  25
ATOM     25  O   UNL d   1      29.738  15.453 -23.849  0.00  0.00    -0.271 OA
BRANCH  25  26
ATOM     26  C   UNL d   1      28.936  15.518 -24.024  0.00  0.00     0.126 C 
ATOM     27  C   UNL d   1      28.382  15.522 -23.419  0.00  0.00     0.029 C 
ENDBRANCH  25  26
ENDBRANCH  23  25
ENDBRANCH  20  23
ENDBRANCH  15  17
ENDBRANCH  13  14
ENDBRANCH  12  13
ENDBRANCH   6  12
BRANCH   3  28
ATOM     28  N   UNL d   1      33.237  22.014 -21.169  0.00  0.00    -0.189 NA
ATOM     29  C   UNL d   1      32.648  21.929 -20.590  0.00  0.00     0.281 C 
ATOM     30  O   UNL d   1      31.990  21.454 -20.736  0.00  0.00    -0.265 OA
BRANCH  29  31
ATOM     31  C   UNL d   1      32.728  22.322 -19.869  0.00  0.00     0.058 A 
ATOM     32  C   UNL d   1      32.658  23.140 -19.841  0.00  0.00     0.005 A 
ATOM     33  C   UNL d   1      32.736  23.535 -19.127  0.00  0.00     0.000 A 
ATOM     34  C   UNL d   1      32.885  23.118 -18.433  0.00  0.00     0.000 A 
ATOM     35  C   UNL d   1      32.955  22.294 -18.464  0.00  0.00     0.000 A 
ATOM     36  C   UNL d   1      32.876  21.894 -19.185  0.00  0.00     0.005 A 
ENDBRANCH  29  31
ENDBRANCH   3  28
TORSDOF 9
ENDMDL
