MODEL 1
REMARK VINA RESULT:      69.2      0.000      0.000
REMARK  3 active torsions:
REMARK  status: ('A' for Active; 'I' for Inactive)
REMARK    1  A    between atoms: C_5  and  C_1 
REMARK    2  A    between atoms: C_4  and  C_2 
REMARK       I    between atoms: N_8  and  C_4 
REMARK    3  A    between atoms: C_10  and  N_8 
ROOT
ATOM      1  C   UNL d   1     -50.669  26.187  33.820  0.00  0.00     0.118 A 
ATOM      2  C   UNL d   1     -50.561  26.585  34.537  0.00  0.00     0.103 A 
ATOM      3  N   UNL d   1     -50.088  26.458  33.306  0.00  0.00    -0.126 NA
ATOM      4  O   UNL d   1     -49.625  27.013  33.689  0.00  0.00    -0.211 OA
ATOM      5  C   UNL d   1     -49.921  27.090  34.455  0.00  0.00     0.131 A 
ATOM      6  C   UNL d   1     -49.628  27.591  35.047  0.00  0.00     0.029 C 
ENDROOT
BRANCH   2   7
ATOM      7  C   UNL d   1     -51.025  26.483  35.217  0.00  0.00     0.283 C 
ATOM      8  N   UNL d   1     -50.680  26.567  35.961  0.00  0.00    -0.204 NA
ATOM      9  O   UNL d   1     -51.819  26.302  35.133  0.00  0.00    -0.265 OA
BRANCH   8  10
ATOM     10  C   UNL d   1     -51.140  26.466  36.635  0.00  0.00     0.130 A 
ATOM     11  C   UNL d   1     -50.999  26.812  37.365  0.00  0.00     0.243 A 
ATOM     12  S   UNL d   1     -51.594  26.565  37.889  0.00  0.00    -0.044 SA
ATOM     13  O   UNL d   1     -50.382  27.315  37.555  0.00  0.00    -0.278 OA
ATOM     14  C   UNL d   1     -52.101  26.066  37.478  0.00  0.00     0.040 A 
ATOM     15  C   UNL d   1     -51.819  26.003  36.694  0.00  0.00     0.030 A 
ENDBRANCH   8  10
ENDBRANCH   2   7
BRANCH   1  16
ATOM     16  C   UNL d   1     -51.244  25.629  33.651  0.00  0.00     0.058 A 
ATOM     17  C   UNL d   1     -52.047  25.845  33.628  0.00  0.00     0.142 A 
ATOM     18  F   UNL d   1     -52.255  26.629  33.778  0.00  0.00    -0.204 F 
ATOM     19  C   UNL d   1     -52.612  25.277  33.457  0.00  0.00     0.030 A 
ATOM     20  C   UNL d   1     -52.399  24.496  33.308  0.00  0.00     0.003 A 
ATOM     21  C   UNL d   1     -51.594  24.281  33.331  0.00  0.00     0.012 A 
ATOM     22  C   UNL d   1     -51.022  24.847  33.502  0.00  0.00     0.061 A 
ATOM     23 CL   UNL d   1     -50.330  24.378  33.462  0.00  0.00    -0.082 Cl
ENDBRANCH   1  16
TORSDOF 3
ENDMDL
MODEL 2
REMARK VINA RESULT:      71.8      4.951      6.492
REMARK  3 active torsions:
REMARK  status: ('A' for Active; 'I' for Inactive)
REMARK    1  A    between atoms: C_5  and  C_1 
REMARK    2  A    between atoms: C_4  and  C_2 
REMARK       I    between atoms: N_8  and  C_4 
REMARK    3  A    between atoms: C_10  and  N_8 
ROOT
ATOM      1  C   UNL d   1     -47.156  30.061  36.088  0.00  0.00     0.118 A 
ATOM      2  C   UNL d   1     -47.159  30.875  35.944  0.00  0.00     0.103 A 
ATOM      3  N   UNL d   1     -46.697  29.938  36.759  0.00  0.00    -0.126 NA
ATOM      4  O   UNL d   1     -46.417  30.657  37.031  0.00  0.00    -0.211 OA
ATOM      5  C   UNL d   1     -46.706  31.239  36.522  0.00  0.00     0.131 A 
ATOM      6  C   UNL d   1     -46.567  32.054  36.579  0.00  0.00     0.029 C 
ENDROOT
BRANCH   2   7
ATOM      7  C   UNL d   1     -47.555  31.250  35.320  0.00  0.00     0.283 C 
ATOM      8  N   UNL d   1     -47.307  31.996  35.070  0.00  0.00    -0.204 NA
ATOM      9  O   UNL d   1     -48.188  30.870  34.964  0.00  0.00    -0.265 OA
BRANCH   8  10
ATOM     10  C   UNL d   1     -47.700  32.368  34.451  0.00  0.00     0.130 A 
ATOM     11  C   UNL d   1     -47.345  32.698  33.790  0.00  0.00     0.243 A 
ATOM     12  S   UNL d   1     -47.940  33.014  33.306  0.00  0.00    -0.044 SA
ATOM     13  O   UNL d   1     -46.543  32.718  33.627  0.00  0.00    -0.278 OA
ATOM     14  C   UNL d   1     -48.663  32.877  33.671  0.00  0.00     0.040 A 
ATOM     15  C   UNL d   1     -48.515  32.473  34.387  0.00  0.00     0.030 A 
ENDBRANCH   8  10
ENDBRANCH   2   7
BRANCH   1  16
ATOM     16  C   UNL d   1     -47.537  29.484  35.649  0.00  0.00     0.058 A 
ATOM     17  C   UNL d   1     -47.210  29.215  34.933  0.00  0.00     0.142 A 
ATOM     18  F   UNL d   1     -46.497  29.538  34.672  0.00  0.00    -0.204 F 
ATOM     19  C   UNL d   1     -47.600  28.637  34.504  0.00  0.00     0.030 A 
ATOM     20  C   UNL d   1     -48.312  28.317  34.769  0.00  0.00     0.003 A 
ATOM     21  C   UNL d   1     -48.638  28.588  35.487  0.00  0.00     0.012 A 
ATOM     22  C   UNL d   1     -48.250  29.168  35.922  0.00  0.00     0.061 A 
ATOM     23 CL   UNL d   1     -48.775  29.247  36.569  0.00  0.00    -0.082 Cl
ENDBRANCH   1  16
TORSDOF 3
ENDMDL
