MODEL 1
REMARK VINA RESULT:      63.6      0.000      0.000
REMARK  2 active torsions:
REMARK  status: ('A' for Active; 'I' for Inactive)
REMARK       I    between atoms: N_2  and  C_1 
REMARK    1  A    between atoms: C_4  and  C_1 
REMARK    2  A    between atoms: C_7  and  N_3 
ROOT
ATOM      1  C   UNL d   1     -51.030  26.690  33.543  0.00  0.00     0.265 C 
ATOM      2  N   UNL d   1     -50.433  27.170  33.844  0.00  0.00    -0.269 N 
ATOM      3  N   UNL d   1     -49.237  28.137  34.447  0.00  0.00    -0.301 N 
ATOM      4  C   UNL d   1     -50.558  27.987  33.907  0.00  0.00     0.102 A 
ATOM      5  C   UNL d   1     -49.717  26.834  34.080  0.00  0.00     0.102 A 
ATOM      6  C   UNL d   1     -49.123  27.316  34.380  0.00  0.00     0.100 A 
ATOM      7  C   UNL d   1     -49.957  28.465  34.209  0.00  0.00     0.100 A 
ATOM      8  O   UNL d   1     -51.750  27.021  33.306  0.00  0.00    -0.267 OA
ENDROOT
BRANCH   1   9
ATOM      9  C   UNL d   1     -50.907  25.872  33.480  0.00  0.00     0.059 A 
ATOM     10  C   UNL d   1     -51.553  25.361  33.510  0.00  0.00     0.031 A 
ATOM     11  C   UNL d   1     -51.442  24.535  33.447  0.00  0.00     0.119 A 
ATOM     12  O   UNL d   1     -51.966  23.894  33.457  0.00  0.00    -0.300 OA
ATOM     13  C   UNL d   1     -50.666  24.227  33.353  0.00  0.00     0.119 A 
ATOM     14  C   UNL d   1     -51.523  23.193  33.370  0.00  0.00     0.304 A 
ATOM     15  O   UNL d   1     -50.717  23.398  33.306  0.00  0.00    -0.300 OA
ATOM     16  C   UNL d   1     -50.015  24.750  33.324  0.00  0.00     0.026 A 
ATOM     17  C   UNL d   1     -50.131  25.564  33.386  0.00  0.00     0.007 A 
ENDBRANCH   1   9
BRANCH   3  18
ATOM     18  C   UNL d   1     -48.637  28.615  34.749  0.00  0.00     0.064 A 
ATOM     19  C   UNL d   1     -48.581  29.399  34.504  0.00  0.00     0.018 A 
ATOM     20  C   UNL d   1     -47.982  29.870  34.807  0.00  0.00     0.013 A 
ATOM     21  C   UNL d   1     -47.444  29.561  35.351  0.00  0.00     0.058 A 
ATOM     22  C   UNL d   1     -47.510  28.772  35.591  0.00  0.00     0.013 A 
ATOM     23 CL   UNL d   1     -46.844  30.039  35.653  0.00  0.00    -0.082 Cl
ATOM     24  C   UNL d   1     -48.106  28.305  35.288  0.00  0.00     0.018 A 
ENDBRANCH   3  18
TORSDOF 2
ENDMDL
