MODEL 1
REMARK VINA RESULT:      23.3      0.000      0.000
REMARK  3 active torsions:
REMARK  status: ('A' for Active; 'I' for Inactive)
REMARK    1  A    between atoms: C_2  and  C_1 
REMARK    2  A    between atoms: C_13  and  N_4 
REMARK    3  A    between atoms: C_12  and  C_15 
ROOT
ATOM      1  C   UNL d   1      45.740 -15.913  44.260  0.00  0.00     0.106 A 
ATOM      2  C   UNL d   1      46.097 -17.173  44.540  0.00  0.00     0.206 A 
ATOM      3  N   UNL d   1      46.030 -17.107  43.721  0.00  0.00    -0.281 N 
ATOM      4  N   UNL d   1      45.919 -16.438  44.881  0.00  0.00    -0.217 NA
ATOM      5  C   UNL d   1      45.810 -16.330  43.547  0.00  0.00     0.102 A 
ATOM      6  S   UNL d   1      46.306 -17.854  44.955  0.00  0.00    -0.038 SA
ENDROOT
BRANCH   1   7
ATOM      7  C   UNL d   1      45.532 -15.124  44.342  0.00  0.00     0.083 A 
ATOM      8  C   UNL d   1      44.765 -14.923  44.587  0.00  0.00     0.302 A 
ATOM      9  O   UNL d   1      44.557 -14.120  44.669  0.00  0.00    -0.273 OA
ATOM     10  O   UNL d   1      44.211 -15.511  44.751  0.00  0.00    -0.259 OA
ATOM     11  C   UNL d   1      45.107 -13.527  44.507  0.00  0.00     0.103 A 
ATOM     12  C   UNL d   1      45.874 -13.729  44.262  0.00  0.00     0.023 A 
ATOM     13  C   UNL d   1      44.895 -12.737  44.590  0.00  0.00     0.025 A 
ATOM     14  C   UNL d   1      46.090 -14.532  44.178  0.00  0.00     0.009 A 
ATOM     15  C   UNL d   1      46.423 -13.140  44.100  0.00  0.00     0.002 A 
ATOM     16  C   UNL d   1      46.212 -12.349  44.182  0.00  0.00     0.000 A 
ATOM     17  C   UNL d   1      45.445 -12.147  44.428  0.00  0.00     0.002 A 
ENDBRANCH   1   7
BRANCH   3  18
ATOM     18  C   UNL d   1      46.159 -17.706  43.180  0.00  0.00     0.066 A 
ATOM     19  C   UNL d   1      46.431 -18.448  43.437  0.00  0.00     0.018 A 
ATOM     20  C   UNL d   1      46.562 -19.054  42.895  0.00  0.00     0.008 A 
ATOM     21  C   UNL d   1      46.422 -18.923  42.087  0.00  0.00     0.065 A 
ATOM     22  C   UNL d   1      46.153 -18.189  41.833  0.00  0.00     0.008 A 
ATOM     23  C   UNL d   1      46.022 -17.580  42.378  0.00  0.00     0.018 A 
BRANCH  21  24
ATOM     24  C   UNL d   1      46.552 -19.526  41.543  0.00  0.00     0.211 C 
ATOM     25  O   UNL d   1      46.588 -20.313  41.801  0.00  0.00    -0.644 OA
ATOM     26  O   UNL d   1      46.646 -19.353  40.744  0.00  0.00    -0.644 OA
ENDBRANCH  21  24
ENDBRANCH   3  18
TORSDOF 3
ENDMDL
MODEL 2
REMARK VINA RESULT:      25.5      1.373      5.248
REMARK  3 active torsions:
REMARK  status: ('A' for Active; 'I' for Inactive)
REMARK    1  A    between atoms: C_2  and  C_1 
REMARK    2  A    between atoms: C_13  and  N_4 
REMARK    3  A    between atoms: C_12  and  C_15 
ROOT
ATOM      1  C   UNL d   1      45.580 -17.114  43.768  0.00  0.00     0.106 A 
ATOM      2  C   UNL d   1      44.868 -16.211  44.454  0.00  0.00     0.206 A 
ATOM      3  N   UNL d   1      45.489 -15.813  44.085  0.00  0.00    -0.281 N 
ATOM      4  N   UNL d   1      44.917 -17.016  44.263  0.00  0.00    -0.217 NA
ATOM      5  C   UNL d   1      45.929 -16.369  43.662  0.00  0.00     0.102 A 
ATOM      6  S   UNL d   1      44.292 -15.869  44.934  0.00  0.00    -0.038 SA
ENDROOT
BRANCH   1   7
ATOM      7  C   UNL d   1      45.840 -17.821  43.445  0.00  0.00     0.083 A 
ATOM      8  C   UNL d   1      46.115 -18.426  43.942  0.00  0.00     0.302 A 
ATOM      9  O   UNL d   1      46.378 -19.143  43.610  0.00  0.00    -0.273 OA
ATOM     10  O   UNL d   1      46.128 -18.321  44.760  0.00  0.00    -0.259 OA
ATOM     11  C   UNL d   1      46.367 -19.255  42.792  0.00  0.00     0.103 A 
ATOM     12  C   UNL d   1      46.092 -18.649  42.296  0.00  0.00     0.023 A 
ATOM     13  C   UNL d   1      46.628 -19.964  42.471  0.00  0.00     0.025 A 
ATOM     14  C   UNL d   1      45.826 -17.927  42.621  0.00  0.00     0.009 A 
ATOM     15  C   UNL d   1      46.080 -18.758  41.481  0.00  0.00     0.002 A 
ATOM     16  C   UNL d   1      46.342 -19.469  41.159  0.00  0.00     0.000 A 
ATOM     17  C   UNL d   1      46.617 -20.074  41.656  0.00  0.00     0.002 A 
ENDBRANCH   1   7
BRANCH   3  18
ATOM     18  C   UNL d   1      45.639 -15.011  44.132  0.00  0.00     0.066 A 
ATOM     19  C   UNL d   1      45.028 -14.464  43.997  0.00  0.00     0.018 A 
ATOM     20  C   UNL d   1      45.176 -13.656  44.044  0.00  0.00     0.008 A 
ATOM     21  C   UNL d   1      45.940 -13.384  44.227  0.00  0.00     0.065 A 
ATOM     22  C   UNL d   1      46.543 -13.926  44.361  0.00  0.00     0.008 A 
ATOM     23  C   UNL d   1      46.395 -14.738  44.314  0.00  0.00     0.018 A 
BRANCH  21  24
ATOM     24  C   UNL d   1      46.090 -12.577  44.275  0.00  0.00     0.211 C 
ATOM     25  O   UNL d   1      45.904 -12.085  43.635  0.00  0.00    -0.644 OA
ATOM     26  O   UNL d   1      46.425 -12.256  44.955  0.00  0.00    -0.644 OA
ENDBRANCH  21  24
ENDBRANCH   3  18
TORSDOF 3
ENDMDL
