MODEL 1
REMARK VINA RESULT:      23.8      0.000      0.000
REMARK  1 active torsions:
REMARK  status: ('A' for Active; 'I' for Inactive)
REMARK    1  A    between atoms: C_7  and  C_2 
ROOT
ATOM      1  N   UNL d   1      58.229  49.587  49.341  0.00  0.00    -0.147 NA
ATOM      2  C   UNL d   1      58.238  49.604  50.162  0.00  0.00     0.103 A 
ATOM      3  N   UNL d   1      57.514  49.584  48.946  0.00  0.00    -0.137 NA
ATOM      4  C   UNL d   1      57.535  49.619  50.597  0.00  0.00     0.022 A 
ATOM      5  C   UNL d   1      56.808  49.599  49.373  0.00  0.00     0.157 A 
ATOM      6  C   UNL d   1      56.819  49.616  50.202  0.00  0.00     0.031 A 
ATOM      7  S   UNL d   1      56.065  49.596  48.962  0.00  0.00    -0.056 SA
ATOM      8  C   UNL d   1      57.541  49.636  51.423  0.00  0.00     0.002 A 
ATOM      9  C   UNL d   1      56.112  49.631  50.634  0.00  0.00     0.002 A 
ATOM     10  C   UNL d   1      56.843  49.650  51.849  0.00  0.00     0.000 A 
ATOM     11  C   UNL d   1      56.128  49.648  51.454  0.00  0.00     0.000 A 
ENDROOT
BRANCH   2  12
ATOM     12  C   UNL d   1      58.981  49.607  50.573  0.00  0.00     0.019 A 
ATOM     13  C   UNL d   1      59.689  49.647  50.141  0.00  0.00     0.002 A 
ATOM     14  C   UNL d   1      60.408  49.649  50.539  0.00  0.00     0.000 A 
ATOM     15  C   UNL d   1      60.420  49.612  51.368  0.00  0.00     0.000 A 
ATOM     16  C   UNL d   1      59.715  49.572  51.794  0.00  0.00     0.000 A 
ATOM     17  C   UNL d   1      61.153  49.615  51.773  0.00  0.00     0.000 C 
ATOM     18  C   UNL d   1      58.996  49.570  51.396  0.00  0.00     0.002 A 
ENDBRANCH   2  12
TORSDOF 1
ENDMDL
