MODEL 1
REMARK VINA RESULT:      64.4      0.000      0.000
REMARK  4 active torsions:
REMARK  status: ('A' for Active; 'I' for Inactive)
REMARK       I    between atoms: N_2  and  C_3 
REMARK    1  A    between atoms: C_3  and  C_8 
REMARK    2  A    between atoms: S_7  and  C_5 
REMARK    3  A    between atoms: C_10  and  C_6 
REMARK    4  A    between atoms: C_8  and  S_7 
ROOT
ATOM      1  N   UNL d   1     -57.121-100.203 -44.293  0.00  0.00    -0.148 NA
ATOM      2  N   UNL d   1     -56.332-100.417 -44.184  0.00  0.00    -0.141 NA
ATOM      3  C   UNL d   1     -55.741 -99.845 -44.191  0.00  0.00     0.133 A 
ATOM      4  C   UNL d   1     -57.316 -99.407 -44.410  0.00  0.00     0.103 A 
ATOM      5  C   UNL d   1     -56.732 -98.833 -44.418  0.00  0.00     0.023 A 
ATOM      6  C   UNL d   1     -55.946 -99.042 -44.310  0.00  0.00     0.029 A 
ENDROOT
BRANCH   3   7
ATOM      7  S   UNL d   1     -54.961-100.062 -44.082  0.00  0.00    -0.061 SA
BRANCH   7   8
ATOM      8  C   UNL d   1     -54.711-100.353 -43.355  0.00  0.00     0.098 C 
BRANCH   8   9
ATOM      9  C   UNL d   1     -54.711-101.165 -43.216  0.00  0.00     0.271 C 
ATOM     10  N   UNL d   1     -54.711-101.446 -42.440  0.00  0.00    -0.272 N 
ATOM     11  C   UNL d   1     -54.711-102.249 -42.298  0.00  0.00     0.083 A 
ATOM     12  C   UNL d   1     -54.711-100.909 -41.813  0.00  0.00     0.083 A 
ATOM     13  C   UNL d   1     -54.711-102.536 -41.534  0.00  0.00     0.019 A 
ATOM     14  C   UNL d   1     -54.711-102.006 -40.891  0.00  0.00     0.003 A 
ATOM     15  C   UNL d   1     -54.711-101.194 -41.041  0.00  0.00     0.019 A 
ATOM     16  O   UNL d   1     -54.711-101.696 -43.836  0.00  0.00    -0.266 OA
ENDBRANCH   8   9
ENDBRANCH   7   8
ENDBRANCH   3   7
BRANCH   4  17
ATOM     17  C   UNL d   1     -58.104 -99.192 -44.519  0.00  0.00     0.019 A 
ATOM     18  C   UNL d   1     -58.627 -99.181 -43.874  0.00  0.00     0.002 A 
ATOM     19  C   UNL d   1     -59.420 -98.965 -43.984  0.00  0.00     0.000 A 
ATOM     20  C   UNL d   1     -59.695 -98.759 -44.740  0.00  0.00     0.000 A 
ATOM     21  C   UNL d   1     -59.181 -98.770 -45.375  0.00  0.00     0.000 A 
ATOM     22  C   UNL d   1     -58.387 -98.984 -45.277  0.00  0.00     0.002 A 
ENDBRANCH   4  17
TORSDOF 4
ENDMDL
MODEL 2
REMARK VINA RESULT:      64.6      2.477      4.807
REMARK  4 active torsions:
REMARK  status: ('A' for Active; 'I' for Inactive)
REMARK       I    between atoms: N_2  and  C_3 
REMARK    1  A    between atoms: C_3  and  C_8 
REMARK    2  A    between atoms: S_7  and  C_5 
REMARK    3  A    between atoms: C_10  and  C_6 
REMARK    4  A    between atoms: C_8  and  S_7 
ROOT
ATOM      1  N   UNL d   1     -55.844-102.488 -41.818  0.00  0.00    -0.148 NA
ATOM      2  N   UNL d   1     -55.812-102.415 -42.639  0.00  0.00    -0.141 NA
ATOM      3  C   UNL d   1     -55.261-101.916 -42.992  0.00  0.00     0.133 A 
ATOM      4  C   UNL d   1     -55.316-102.056 -41.349  0.00  0.00     0.103 A 
ATOM      5  C   UNL d   1     -54.765-101.558 -41.694  0.00  0.00     0.023 A 
ATOM      6  C   UNL d   1     -54.731-101.483 -42.510  0.00  0.00     0.029 A 
ENDROOT
BRANCH   3   7
ATOM      7  S   UNL d   1     -55.233-101.847 -43.805  0.00  0.00    -0.061 SA
BRANCH   7   8
ATOM      8  C   UNL d   1     -54.879-101.190 -44.151  0.00  0.00     0.098 C 
BRANCH   8   9
ATOM      9  C   UNL d   1     -54.840-101.129 -44.971  0.00  0.00     0.271 C 
ATOM     10  N   UNL d   1     -54.862-100.384 -45.326  0.00  0.00    -0.272 N 
ATOM     11  C   UNL d   1     -54.824-100.319 -46.138  0.00  0.00     0.083 A 
ATOM     12  C   UNL d   1     -54.924 -99.711 -44.854  0.00  0.00     0.083 A 
ATOM     13  C   UNL d   1     -54.846 -99.587 -46.497  0.00  0.00     0.019 A 
ATOM     14  C   UNL d   1     -54.908 -98.897 -46.034  0.00  0.00     0.003 A 
ATOM     15  C   UNL d   1     -54.946 -98.970 -45.211  0.00  0.00     0.019 A 
ATOM     16  O   UNL d   1     -54.779-101.796 -45.439  0.00  0.00    -0.266 OA
ENDBRANCH   8   9
ENDBRANCH   7   8
ENDBRANCH   3   7
BRANCH   4  17
ATOM     17  C   UNL d   1     -55.347-102.128 -40.528  0.00  0.00     0.019 A 
ATOM     18  C   UNL d   1     -54.762-101.776 -40.056  0.00  0.00     0.002 A 
ATOM     19  C   UNL d   1     -54.793-101.848 -39.230  0.00  0.00     0.000 A 
ATOM     20  C   UNL d   1     -55.410-102.274 -38.873  0.00  0.00     0.000 A 
ATOM     21  C   UNL d   1     -55.986-102.620 -39.336  0.00  0.00     0.000 A 
ATOM     22  C   UNL d   1     -55.965-102.554 -40.163  0.00  0.00     0.002 A 
ENDBRANCH   4  17
TORSDOF 4
ENDMDL
