MODEL 1
REMARK VINA RESULT:     122.3      0.000      0.000
REMARK  5 active torsions:
REMARK  status: ('A' for Active; 'I' for Inactive)
REMARK    1  A    between atoms: N_9  and  C_1 
REMARK    2  A    between atoms: C_12  and  C_2 
REMARK       I    between atoms: C_13  and  N_9 
REMARK    3  A    between atoms: C_11  and  C_14 
REMARK    4  A    between atoms: O_19  and  C_12 
REMARK    5  A    between atoms: C_14  and  C_13 
ROOT
ATOM      1  C   UNL d   1     -55.350-100.840 -44.826  0.00  0.00     0.119 A 
ATOM      2  C   UNL d   1     -55.261-100.130 -44.384  0.00  0.00     0.087 A 
ATOM      3  S   UNL d   1     -55.172-101.489 -44.347  0.00  0.00    -0.068 SA
ATOM      4  C   UNL d   1     -55.029-100.353 -43.637  0.00  0.00     0.013 A 
ATOM      5  C   UNL d   1     -54.971-101.189 -43.601  0.00  0.00     0.031 A 
ATOM      6  C   UNL d   1     -54.882 -99.825 -43.029  0.00  0.00     0.001 C 
ATOM      7  C   UNL d   1     -54.753-101.638 -42.944  0.00  0.00     0.007 C 
ENDROOT
BRANCH   1   8
ATOM      8  N   UNL d   1     -55.574-100.962 -45.617  0.00  0.00    -0.201 NA
ATOM      9  C   UNL d   1     -55.529-101.714 -45.949  0.00  0.00     0.280 C 
ATOM     10  O   UNL d   1     -55.256-102.368 -45.498  0.00  0.00    -0.265 OA
BRANCH   9  11
ATOM     11  C   UNL d   1     -55.757-101.838 -46.755  0.00  0.00     0.074 C 
BRANCH  11  12
ATOM     12  C   UNL d   1     -56.476-102.214 -46.947  0.00  0.00     0.095 A 
ATOM     13  C   UNL d   1     -56.642-102.586 -47.641  0.00  0.00     0.287 A 
ATOM     14  N   UNL d   1     -57.414-102.879 -47.596  0.00  0.00    -0.181 NA
ATOM     15  O   UNL d   1     -56.135-102.669 -48.299  0.00  0.00    -0.265 OA
ATOM     16  C   UNL d   1     -57.705-102.669 -46.847  0.00  0.00     0.217 A 
ATOM     17  S   UNL d   1     -57.111-102.252 -46.447  0.00  0.00    -0.042 SA
ATOM     18  N   UNL d   1     -58.473-102.854 -46.560  0.00  0.00    -0.119 N 
ENDBRANCH  11  12
ENDBRANCH   9  11
ENDBRANCH   1   8
BRANCH   2  19
ATOM     19  C   UNL d   1     -55.376 -99.368 -44.628  0.00  0.00     0.298 C 
ATOM     20  O   UNL d   1     -56.042 -98.975 -44.390  0.00  0.00    -0.259 OA
BRANCH  19  21
ATOM     21  O   UNL d   1     -54.826 -99.008 -45.106  0.00  0.00    -0.296 OA
ATOM     22  C   UNL d   1     -55.024 -98.780 -45.863  0.00  0.00     0.185 C 
ENDBRANCH  19  21
ENDBRANCH   2  19
TORSDOF 5
ENDMDL
