MODEL 1
REMARK VINA RESULT:      -6.8      0.000      0.000
REMARK  4 active torsions:
REMARK  status: ('A' for Active; 'I' for Inactive)
REMARK    1  A    between atoms: C_11  and  N_3 
REMARK    2  A    between atoms: C_10  and  C_5 
REMARK    3  A    between atoms: C_21  and  C_11 
REMARK    4  A    between atoms: N_12  and  C_21 
ROOT
ATOM      1  C   UNL d   1      52.131  33.005  53.326  0.00  0.00     0.085 A 
ATOM      2  C   UNL d   1      51.496  32.529  53.062  0.00  0.00     0.161 A 
ATOM      3  N   UNL d   1      51.063  33.794  53.163  0.00  0.00    -0.268 N 
ATOM      4  C   UNL d   1      50.842  33.018  52.963  0.00  0.00     0.288 A 
ATOM      5  C   UNL d   1      51.858  33.781  53.385  0.00  0.00     0.095 A 
ATOM      6  C   UNL d   1      52.872  32.658  53.474  0.00  0.00     0.201 A 
ATOM      7  O   UNL d   1      51.609  31.719  52.951  0.00  0.00    -0.302 OA
ATOM      8  C   UNL d   1      52.972  31.844  53.359  0.00  0.00     0.063 A 
ATOM      9  C   UNL d   1      52.341  31.370  53.096  0.00  0.00     0.103 A 
ATOM     10  O   UNL d   1      50.090  32.781  52.708  0.00  0.00    -0.264 OA
ATOM     11  O   UNL d   1      53.500  33.123  53.734  0.00  0.00    -0.286 OA
ATOM     12  C   UNL d   1      53.709  31.504  53.507  0.00  0.00     0.017 A 
ATOM     13  C   UNL d   1      52.460  30.566  52.988  0.00  0.00     0.026 A 
ATOM     14  C   UNL d   1      53.818  30.697  53.396  0.00  0.00     0.058 A 
ATOM     15  C   UNL d   1      53.194  30.228  53.136  0.00  0.00     0.013 A 
ATOM     16 CL   UNL d   1      54.553  30.360  53.544  0.00  0.00    -0.082 Cl
ENDROOT
BRANCH   3  17
ATOM     17  C   UNL d   1      50.575  34.456  53.141  0.00  0.00     0.102 C 
BRANCH  17  18
ATOM     18  C   UNL d   1      49.784  34.387  52.912  0.00  0.00     0.100 C 
BRANCH  18  19
ATOM     19  N   UNL d   1      49.279  35.035  52.955  0.00  0.00    -0.298 N 
ATOM     20  C   UNL d   1      49.158  35.405  53.672  0.00  0.00     0.107 A 
ATOM     21  C   UNL d   1      48.652  36.053  53.715  0.00  0.00     0.142 A 
ATOM     22  O   UNL d   1      48.272  36.325  53.040  0.00  0.00    -0.300 OA
ATOM     23  C   UNL d   1      48.398  35.947  52.321  0.00  0.00     0.142 A 
ATOM     24  C   UNL d   1      48.904  35.299  52.278  0.00  0.00     0.107 A 
ENDBRANCH  18  19
ENDBRANCH  17  18
ENDBRANCH   3  17
BRANCH   5  25
ATOM     25  C   UNL d   1      52.337  34.407  53.632  0.00  0.00     0.116 A 
ATOM     26  O   UNL d   1      52.462  34.658  54.415  0.00  0.00    -0.304 OA
ATOM     27  C   UNL d   1      52.979  35.300  54.400  0.00  0.00     0.123 A 
ATOM     28  C   UNL d   1      53.179  35.454  53.614  0.00  0.00     0.029 A 
ATOM     29  C   UNL d   1      52.783  34.903  53.137  0.00  0.00     0.028 A 
ENDBRANCH   5  25
TORSDOF 4
ENDMDL
MODEL 2
REMARK VINA RESULT:      -5.3      1.560      2.900
REMARK  4 active torsions:
REMARK  status: ('A' for Active; 'I' for Inactive)
REMARK    1  A    between atoms: C_11  and  N_3 
REMARK    2  A    between atoms: C_10  and  C_5 
REMARK    3  A    between atoms: C_21  and  C_11 
REMARK    4  A    between atoms: N_12  and  C_21 
ROOT
ATOM      1  C   UNL d   1      52.749  33.592  53.760  0.00  0.00     0.085 A 
ATOM      2  C   UNL d   1      52.606  34.408  53.867  0.00  0.00     0.161 A 
ATOM      3  N   UNL d   1      51.643  33.908  53.079  0.00  0.00    -0.268 N 
ATOM      4  C   UNL d   1      51.924  34.598  53.445  0.00  0.00     0.288 A 
ATOM      5  C   UNL d   1      52.154  33.290  53.275  0.00  0.00     0.095 A 
ATOM      6  C   UNL d   1      53.408  33.239  54.125  0.00  0.00     0.201 A 
ATOM      7  O   UNL d   1      53.117  34.858  54.331  0.00  0.00    -0.302 OA
ATOM      8  C   UNL d   1      53.914  33.702  54.589  0.00  0.00     0.063 A 
ATOM      9  C   UNL d   1      53.772  34.513  54.695  0.00  0.00     0.103 A 
ATOM     10  O   UNL d   1      51.576  35.349  53.394  0.00  0.00    -0.264 OA
ATOM     11  O   UNL d   1      53.554  32.435  54.023  0.00  0.00    -0.286 OA
ATOM     12  C   UNL d   1      54.567  33.348  54.949  0.00  0.00     0.017 A 
ATOM     13  C   UNL d   1      54.285  34.956  55.158  0.00  0.00     0.026 A 
ATOM     14  C   UNL d   1      55.075  33.798  55.411  0.00  0.00     0.058 A 
ATOM     15  C   UNL d   1      54.934  34.602  55.516  0.00  0.00     0.013 A 
ATOM     16 CL   UNL d   1      55.725  33.444  55.769  0.00  0.00    -0.082 Cl
ENDROOT
BRANCH   3  17
ATOM     17  C   UNL d   1      50.973  33.852  52.604  0.00  0.00     0.102 C 
BRANCH  17  18
ATOM     18  C   UNL d   1      50.615  34.532  52.301  0.00  0.00     0.100 C 
BRANCH  18  19
ATOM     19  N   UNL d   1      49.912  34.481  51.876  0.00  0.00    -0.298 N 
ATOM     20  C   UNL d   1      49.208  34.686  52.235  0.00  0.00     0.107 A 
ATOM     21  C   UNL d   1      48.506  34.635  51.810  0.00  0.00     0.142 A 
ATOM     22  O   UNL d   1      48.514  34.380  51.030  0.00  0.00    -0.300 OA
ATOM     23  C   UNL d   1      49.226  34.175  50.675  0.00  0.00     0.142 A 
ATOM     24  C   UNL d   1      49.929  34.226  51.100  0.00  0.00     0.107 A 
ENDBRANCH  18  19
ENDBRANCH  17  18
ENDBRANCH   3  17
BRANCH   5  25
ATOM     25  C   UNL d   1      52.117  32.496  53.051  0.00  0.00     0.116 A 
ATOM     26  O   UNL d   1      52.540  32.136  52.432  0.00  0.00    -0.304 OA
ATOM     27  C   UNL d   1      52.332  31.339  52.408  0.00  0.00     0.123 A 
ATOM     28  C   UNL d   1      51.782  31.195  53.007  0.00  0.00     0.029 A 
ATOM     29  C   UNL d   1      51.648  31.911  53.406  0.00  0.00     0.028 A 
ENDBRANCH   5  25
TORSDOF 4
ENDMDL
MODEL 3
REMARK VINA RESULT:      -5.0      2.210      2.743
REMARK  4 active torsions:
REMARK  status: ('A' for Active; 'I' for Inactive)
REMARK    1  A    between atoms: C_11  and  N_3 
REMARK    2  A    between atoms: C_10  and  C_5 
REMARK    3  A    between atoms: C_21  and  C_11 
REMARK    4  A    between atoms: N_12  and  C_21 
ROOT
ATOM      1  C   UNL d   1      53.434  32.063  53.786  0.00  0.00     0.085 A 
ATOM      2  C   UNL d   1      52.883  32.084  53.158  0.00  0.00     0.161 A 
ATOM      3  N   UNL d   1      53.259  33.341  53.434  0.00  0.00    -0.268 N 
ATOM      4  C   UNL d   1      52.779  32.872  52.945  0.00  0.00     0.288 A 
ATOM      5  C   UNL d   1      53.661  32.839  53.951  0.00  0.00     0.095 A 
ATOM      6  C   UNL d   1      53.650  31.332  54.120  0.00  0.00     0.201 A 
ATOM      7  O   UNL d   1      52.558  31.381  52.873  0.00  0.00    -0.302 OA
ATOM      8  C   UNL d   1      53.317  30.634  53.825  0.00  0.00     0.063 A 
ATOM      9  C   UNL d   1      52.770  30.655  53.200  0.00  0.00     0.103 A 
ATOM     10  O   UNL d   1      52.280  33.153  52.345  0.00  0.00    -0.264 OA
ATOM     11  O   UNL d   1      54.193  31.307  54.739  0.00  0.00    -0.286 OA
ATOM     12  C   UNL d   1      53.535  29.912  54.158  0.00  0.00     0.017 A 
ATOM     13  C   UNL d   1      52.450  29.952  52.921  0.00  0.00     0.026 A 
ATOM     14  C   UNL d   1      53.210  29.213  53.872  0.00  0.00     0.058 A 
ATOM     15  C   UNL d   1      52.667  29.234  53.254  0.00  0.00     0.013 A 
ATOM     16 CL   UNL d   1      53.427  28.494  54.206  0.00  0.00    -0.082 Cl
ENDROOT
BRANCH   3  17
ATOM     17  C   UNL d   1      53.321  34.161  53.407  0.00  0.00     0.102 C 
BRANCH  17  18
ATOM     18  C   UNL d   1      52.653  34.636  53.504  0.00  0.00     0.100 C 
BRANCH  18  19
ATOM     19  N   UNL d   1      52.693  35.330  53.946  0.00  0.00    -0.298 N 
ATOM     20  C   UNL d   1      53.297  35.861  53.807  0.00  0.00     0.107 A 
ATOM     21  C   UNL d   1      53.337  36.555  54.249  0.00  0.00     0.142 A 
ATOM     22  O   UNL d   1      52.773  36.709  54.825  0.00  0.00    -0.300 OA
ATOM     23  C   UNL d   1      52.168  36.170  54.959  0.00  0.00     0.142 A 
ATOM     24  C   UNL d   1      52.128  35.477  54.518  0.00  0.00     0.107 A 
ENDBRANCH  18  19
ENDBRANCH  17  18
ENDBRANCH   3  17
BRANCH   5  25
ATOM     25  C   UNL d   1      54.203  33.032  54.544  0.00  0.00     0.116 A 
ATOM     26  O   UNL d   1      54.056  33.054  55.362  0.00  0.00    -0.304 OA
ATOM     27  C   UNL d   1      54.753  33.273  55.743  0.00  0.00     0.123 A 
ATOM     28  C   UNL d   1      55.337  33.387  55.171  0.00  0.00     0.029 A 
ATOM     29  C   UNL d   1      54.999  33.239  54.428  0.00  0.00     0.028 A 
ENDBRANCH   5  25
TORSDOF 4
ENDMDL
MODEL 4
REMARK VINA RESULT:      -4.9      1.938      3.151
REMARK  4 active torsions:
REMARK  status: ('A' for Active; 'I' for Inactive)
REMARK    1  A    between atoms: C_11  and  N_3 
REMARK    2  A    between atoms: C_10  and  C_5 
REMARK    3  A    between atoms: C_21  and  C_11 
REMARK    4  A    between atoms: N_12  and  C_21 
ROOT
ATOM      1  C   UNL d   1      52.925  32.062  53.399  0.00  0.00     0.085 A 
ATOM      2  C   UNL d   1      53.684  31.986  53.741  0.00  0.00     0.161 A 
ATOM      3  N   UNL d   1      53.384  33.290  53.661  0.00  0.00    -0.268 N 
ATOM      4  C   UNL d   1      53.963  32.744  53.900  0.00  0.00     0.288 A 
ATOM      5  C   UNL d   1      52.747  32.866  53.353  0.00  0.00     0.095 A 
ATOM      6  C   UNL d   1      52.503  31.380  53.179  0.00  0.00     0.201 A 
ATOM      7  O   UNL d   1      54.010  31.237  53.856  0.00  0.00    -0.302 OA
ATOM      8  C   UNL d   1      52.841  30.634  53.300  0.00  0.00     0.063 A 
ATOM      9  C   UNL d   1      53.596  30.558  53.639  0.00  0.00     0.103 A 
ATOM     10  O   UNL d   1      54.694  32.933  54.240  0.00  0.00    -0.264 OA
ATOM     11  O   UNL d   1      51.755  31.450  52.842  0.00  0.00    -0.286 OA
ATOM     12  C   UNL d   1      52.419  29.960  53.079  0.00  0.00     0.017 A 
ATOM     13  C   UNL d   1      53.914  29.810  53.751  0.00  0.00     0.026 A 
ATOM     14  C   UNL d   1      52.746  29.215  53.195  0.00  0.00     0.058 A 
ATOM     15  C   UNL d   1      53.493  29.140  53.531  0.00  0.00     0.013 A 
ATOM     16 CL   UNL d   1      52.324  28.545  52.975  0.00  0.00    -0.082 Cl
ENDROOT
BRANCH   3  17
ATOM     17  C   UNL d   1      53.439  34.109  53.721  0.00  0.00     0.102 C 
BRANCH  17  18
ATOM     18  C   UNL d   1      53.688  34.463  54.425  0.00  0.00     0.100 C 
BRANCH  18  19
ATOM     19  N   UNL d   1      53.423  35.214  54.632  0.00  0.00    -0.298 N 
ATOM     20  C   UNL d   1      53.666  35.861  54.197  0.00  0.00     0.107 A 
ATOM     21  C   UNL d   1      53.402  36.612  54.404  0.00  0.00     0.142 A 
ATOM     22  O   UNL d   1      52.897  36.709  55.044  0.00  0.00    -0.300 OA
ATOM     23  C   UNL d   1      52.657  36.054  55.478  0.00  0.00     0.142 A 
ATOM     24  C   UNL d   1      52.921  35.303  55.271  0.00  0.00     0.107 A 
ENDBRANCH  18  19
ENDBRANCH  17  18
ENDBRANCH   3  17
BRANCH   5  25
ATOM     25  C   UNL d   1      52.036  33.151  53.043  0.00  0.00     0.116 A 
ATOM     26  O   UNL d   1      51.301  33.179  53.432  0.00  0.00    -0.304 OA
ATOM     27  C   UNL d   1      50.748  33.504  52.914  0.00  0.00     0.123 A 
ATOM     28  C   UNL d   1      51.130  33.680  52.203  0.00  0.00     0.029 A 
ATOM     29  C   UNL d   1      51.927  33.462  52.281  0.00  0.00     0.028 A 
ENDBRANCH   5  25
TORSDOF 4
ENDMDL
MODEL 5
REMARK VINA RESULT:      -4.4     10.054     11.084
REMARK  4 active torsions:
REMARK  status: ('A' for Active; 'I' for Inactive)
REMARK    1  A    between atoms: C_11  and  N_3 
REMARK    2  A    between atoms: C_10  and  C_5 
REMARK    3  A    between atoms: C_21  and  C_11 
REMARK    4  A    between atoms: N_12  and  C_21 
ROOT
ATOM      1  C   UNL d   1      44.626  28.932  58.572  0.00  0.00     0.085 A 
ATOM      2  C   UNL d   1      44.485  29.707  58.852  0.00  0.00     0.161 A 
ATOM      3  N   UNL d   1      44.586  28.887  59.908  0.00  0.00    -0.268 N 
ATOM      4  C   UNL d   1      44.461  29.675  59.675  0.00  0.00     0.288 A 
ATOM      5  C   UNL d   1      44.687  28.433  59.226  0.00  0.00     0.095 A 
ATOM      6  C   UNL d   1      44.678  28.794  57.754  0.00  0.00     0.201 A 
ATOM      7  O   UNL d   1      44.398  30.329  58.317  0.00  0.00    -0.302 OA
ATOM      8  C   UNL d   1      44.590  29.426  57.226  0.00  0.00     0.063 A 
ATOM      9  C   UNL d   1      44.449  30.197  57.505  0.00  0.00     0.103 A 
ATOM     10  O   UNL d   1      44.334  30.315  60.185  0.00  0.00    -0.264 OA
ATOM     11  O   UNL d   1      44.817  28.032  57.473  0.00  0.00    -0.286 OA
ATOM     12  C   UNL d   1      44.642  29.285  56.415  0.00  0.00     0.017 A 
ATOM     13  C   UNL d   1      44.364  30.810  56.967  0.00  0.00     0.026 A 
ATOM     14  C   UNL d   1      44.556  29.905  55.884  0.00  0.00     0.058 A 
ATOM     15  C   UNL d   1      44.417  30.668  56.159  0.00  0.00     0.013 A 
ATOM     16 CL   UNL d   1      44.609  29.762  55.076  0.00  0.00    -0.082 Cl
ENDROOT
BRANCH   3  17
ATOM     17  C   UNL d   1      44.606  28.611  60.683  0.00  0.00     0.102 C 
BRANCH  17  18
ATOM     18  C   UNL d   1      44.654  29.139  61.316  0.00  0.00     0.100 C 
BRANCH  18  19
ATOM     19  N   UNL d   1      44.571  28.872  62.090  0.00  0.00    -0.298 N 
ATOM     20  C   UNL d   1      44.662  28.078  62.255  0.00  0.00     0.107 A 
ATOM     21  C   UNL d   1      44.579  27.811  63.030  0.00  0.00     0.142 A 
ATOM     22  O   UNL d   1      44.405  28.342  63.631  0.00  0.00    -0.300 OA
ATOM     23  C   UNL d   1      44.315  29.140  63.458  0.00  0.00     0.142 A 
ATOM     24  C   UNL d   1      44.398  29.407  62.684  0.00  0.00     0.107 A 
ENDBRANCH  18  19
ENDBRANCH  17  18
ENDBRANCH   3  17
BRANCH   5  25
ATOM     25  C   UNL d   1      44.827  27.622  59.160  0.00  0.00     0.116 A 
ATOM     26  O   UNL d   1      44.315  27.010  59.392  0.00  0.00    -0.304 OA
ATOM     27  C   UNL d   1      44.680  26.290  59.223  0.00  0.00     0.123 A 
ATOM     28  C   UNL d   1      45.418  26.446  58.886  0.00  0.00     0.029 A 
ATOM     29  C   UNL d   1      45.511  27.270  58.846  0.00  0.00     0.028 A 
ENDBRANCH   5  25
TORSDOF 4
ENDMDL
MODEL 6
REMARK VINA RESULT:      -4.4     10.017     11.196
REMARK  4 active torsions:
REMARK  status: ('A' for Active; 'I' for Inactive)
REMARK    1  A    between atoms: C_11  and  N_3 
REMARK    2  A    between atoms: C_10  and  C_5 
REMARK    3  A    between atoms: C_21  and  C_11 
REMARK    4  A    between atoms: N_12  and  C_21 
ROOT
ATOM      1  C   UNL d   1      44.652  28.238  58.720  0.00  0.00     0.085 A 
ATOM      2  C   UNL d   1      44.499  27.619  59.260  0.00  0.00     0.161 A 
ATOM      3  N   UNL d   1      44.583  27.097  58.028  0.00  0.00    -0.268 N 
ATOM      4  C   UNL d   1      44.457  26.918  58.829  0.00  0.00     0.288 A 
ATOM      5  C   UNL d   1      44.702  27.910  57.964  0.00  0.00     0.095 A 
ATOM      6  C   UNL d   1      44.723  29.018  58.999  0.00  0.00     0.201 A 
ATOM      7  O   UNL d   1      44.420  27.784  60.064  0.00  0.00    -0.302 OA
ATOM      8  C   UNL d   1      44.642  29.172  59.809  0.00  0.00     0.063 A 
ATOM      9  C   UNL d   1      44.490  28.556  60.345  0.00  0.00     0.103 A 
ATOM     10  O   UNL d   1      44.315  26.163  59.139  0.00  0.00    -0.264 OA
ATOM     11  O   UNL d   1      44.874  29.633  58.471  0.00  0.00    -0.286 OA
ATOM     12  C   UNL d   1      44.714  29.947  60.081  0.00  0.00     0.017 A 
ATOM     13  C   UNL d   1      44.413  28.727  61.144  0.00  0.00     0.026 A 
ATOM     14  C   UNL d   1      44.635  30.109  60.883  0.00  0.00     0.058 A 
ATOM     15  C   UNL d   1      44.485  29.499  61.415  0.00  0.00     0.013 A 
ATOM     16 CL   UNL d   1      44.707  30.882  61.153  0.00  0.00    -0.082 Cl
ENDROOT
BRANCH   3  17
ATOM     17  C   UNL d   1      44.587  26.555  57.407  0.00  0.00     0.102 C 
BRANCH  17  18
ATOM     18  C   UNL d   1      44.773  25.762  57.543  0.00  0.00     0.100 C 
BRANCH  18  19
ATOM     19  N   UNL d   1      44.668  25.200  56.951  0.00  0.00    -0.298 N 
ATOM     20  C   UNL d   1      44.428  24.446  57.150  0.00  0.00     0.107 A 
ATOM     21  C   UNL d   1      44.323  23.884  56.558  0.00  0.00     0.142 A 
ATOM     22  O   UNL d   1      44.459  24.082  55.773  0.00  0.00    -0.300 OA
ATOM     23  C   UNL d   1      44.700  24.844  55.580  0.00  0.00     0.142 A 
ATOM     24  C   UNL d   1      44.805  25.405  56.172  0.00  0.00     0.107 A 
ENDBRANCH  18  19
ENDBRANCH  17  18
ENDBRANCH   3  17
BRANCH   5  25
ATOM     25  C   UNL d   1      44.849  28.362  57.289  0.00  0.00     0.116 A 
ATOM     26  O   UNL d   1      44.321  28.887  56.918  0.00  0.00    -0.304 OA
ATOM     27  C   UNL d   1      44.701  29.216  56.264  0.00  0.00     0.123 A 
ATOM     28  C   UNL d   1      45.463  28.901  56.221  0.00  0.00     0.029 A 
ATOM     29  C   UNL d   1      45.557  28.373  56.854  0.00  0.00     0.028 A 
ENDBRANCH   5  25
TORSDOF 4
ENDMDL
MODEL 7
REMARK VINA RESULT:      -4.4     10.873     12.238
REMARK  4 active torsions:
REMARK  status: ('A' for Active; 'I' for Inactive)
REMARK    1  A    between atoms: C_11  and  N_3 
REMARK    2  A    between atoms: C_10  and  C_5 
REMARK    3  A    between atoms: C_21  and  C_11 
REMARK    4  A    between atoms: N_12  and  C_21 
ROOT
ATOM      1  C   UNL d   1      44.778  23.612  54.934  0.00  0.00     0.085 A 
ATOM      2  C   UNL d   1      44.605  24.353  54.587  0.00  0.00     0.161 A 
ATOM      3  N   UNL d   1      44.600  24.497  55.920  0.00  0.00    -0.268 N 
ATOM      4  C   UNL d   1      44.496  24.894  55.198  0.00  0.00     0.288 A 
ATOM      5  C   UNL d   1      44.773  23.708  55.753  0.00  0.00     0.095 A 
ATOM      6  C   UNL d   1      44.916  22.953  54.446  0.00  0.00     0.201 A 
ATOM      7  O   UNL d   1      44.572  24.425  53.766  0.00  0.00    -0.302 OA
ATOM      8  C   UNL d   1      44.880  23.038  53.624  0.00  0.00     0.063 A 
ATOM      9  C   UNL d   1      44.708  23.774  53.279  0.00  0.00     0.103 A 
ATOM     10  O   UNL d   1      44.315  25.698  55.111  0.00  0.00    -0.264 OA
ATOM     11  O   UNL d   1      45.087  22.220  54.783  0.00  0.00    -0.286 OA
ATOM     12  C   UNL d   1      45.017  22.381  53.144  0.00  0.00     0.017 A 
ATOM     13  C   UNL d   1      44.677  23.839  52.462  0.00  0.00     0.026 A 
ATOM     14  C   UNL d   1      44.984  22.455  52.326  0.00  0.00     0.058 A 
ATOM     15  C   UNL d   1      44.814  23.185  51.985  0.00  0.00     0.013 A 
ATOM     16 CL   UNL d   1      45.121  21.800  51.850  0.00  0.00    -0.082 Cl
ENDROOT
BRANCH   3  17
ATOM     17  C   UNL d   1      44.540  24.833  56.669  0.00  0.00     0.102 C 
BRANCH  17  18
ATOM     18  C   UNL d   1      44.908  25.553  56.837  0.00  0.00     0.100 C 
BRANCH  18  19
ATOM     19  N   UNL d   1      44.865  25.879  57.591  0.00  0.00    -0.298 N 
ATOM     20  C   UNL d   1      44.358  25.554  58.142  0.00  0.00     0.107 A 
ATOM     21  C   UNL d   1      44.314  25.881  58.897  0.00  0.00     0.142 A 
ATOM     22  O   UNL d   1      44.778  26.529  59.092  0.00  0.00    -0.300 OA
ATOM     23  C   UNL d   1      45.286  26.851  58.533  0.00  0.00     0.142 A 
ATOM     24  C   UNL d   1      45.330  26.525  57.778  0.00  0.00     0.107 A 
ENDBRANCH  18  19
ENDBRANCH  17  18
ENDBRANCH   3  17
BRANCH   5  25
ATOM     25  C   UNL d   1      44.923  23.087  56.278  0.00  0.00     0.116 A 
ATOM     26  O   UNL d   1      44.357  22.646  56.698  0.00  0.00    -0.304 OA
ATOM     27  C   UNL d   1      44.754  22.085  57.154  0.00  0.00     0.123 A 
ATOM     28  C   UNL d   1      45.565  22.172  57.023  0.00  0.00     0.029 A 
ATOM     29  C   UNL d   1      45.671  22.791  56.481  0.00  0.00     0.028 A 
ENDBRANCH   5  25
TORSDOF 4
ENDMDL
MODEL 8
REMARK VINA RESULT:      -4.2      2.206      4.929
REMARK  4 active torsions:
REMARK  status: ('A' for Active; 'I' for Inactive)
REMARK    1  A    between atoms: C_11  and  N_3 
REMARK    2  A    between atoms: C_10  and  C_5 
REMARK    3  A    between atoms: C_21  and  C_11 
REMARK    4  A    between atoms: N_12  and  C_21 
ROOT
ATOM      1  C   UNL d   1      52.446  32.786  53.517  0.00  0.00     0.085 A 
ATOM      2  C   UNL d   1      51.985  32.311  53.005  0.00  0.00     0.161 A 
ATOM      3  N   UNL d   1      53.024  31.583  53.439  0.00  0.00    -0.268 N 
ATOM      4  C   UNL d   1      52.345  31.572  52.960  0.00  0.00     0.288 A 
ATOM      5  C   UNL d   1      53.082  32.332  53.779  0.00  0.00     0.095 A 
ATOM      6  C   UNL d   1      52.214  33.570  53.669  0.00  0.00     0.201 A 
ATOM      7  O   UNL d   1      51.306  32.622  52.656  0.00  0.00    -0.302 OA
ATOM      8  C   UNL d   1      51.531  33.871  53.312  0.00  0.00     0.063 A 
ATOM      9  C   UNL d   1      51.073  33.399  52.804  0.00  0.00     0.103 A 
ATOM     10  O   UNL d   1      52.078  30.926  52.515  0.00  0.00    -0.264 OA
ATOM     11  O   UNL d   1      52.665  34.041  54.172  0.00  0.00    -0.286 OA
ATOM     12  C   UNL d   1      51.305  34.649  53.466  0.00  0.00     0.017 A 
ATOM     13  C   UNL d   1      50.398  33.715  52.459  0.00  0.00     0.026 A 
ATOM     14  C   UNL d   1      50.628  34.957  53.117  0.00  0.00     0.058 A 
ATOM     15  C   UNL d   1      50.174  34.490  52.613  0.00  0.00     0.013 A 
ATOM     16 CL   UNL d   1      50.405  35.733  53.271  0.00  0.00    -0.082 Cl
ENDROOT
BRANCH   3  17
ATOM     17  C   UNL d   1      53.545  30.956  53.552  0.00  0.00     0.102 C 
BRANCH  17  18
ATOM     18  C   UNL d   1      53.304  30.179  53.409  0.00  0.00     0.100 C 
BRANCH  18  19
ATOM     19  N   UNL d   1      53.538  29.569  53.911  0.00  0.00    -0.298 N 
ATOM     20  C   UNL d   1      54.269  29.221  53.809  0.00  0.00     0.107 A 
ATOM     21  C   UNL d   1      54.502  28.612  54.310  0.00  0.00     0.142 A 
ATOM     22  O   UNL d   1      54.002  28.357  54.909  0.00  0.00    -0.300 OA
ATOM     23  C   UNL d   1      53.267  28.712  55.006  0.00  0.00     0.142 A 
ATOM     24  C   UNL d   1      53.034  29.321  54.505  0.00  0.00     0.107 A 
ENDBRANCH  18  19
ENDBRANCH  17  18
ENDBRANCH   3  17
BRANCH   5  25
ATOM     25  C   UNL d   1      53.657  32.623  54.297  0.00  0.00     0.116 A 
ATOM     26  O   UNL d   1      53.624  32.618  55.128  0.00  0.00    -0.304 OA
ATOM     27  C   UNL d   1      54.315  32.964  55.415  0.00  0.00     0.123 A 
ATOM     28  C   UNL d   1      54.782  33.184  54.771  0.00  0.00     0.029 A 
ATOM     29  C   UNL d   1      54.376  32.974  54.078  0.00  0.00     0.028 A 
ENDBRANCH   5  25
TORSDOF 4
ENDMDL
MODEL 9
REMARK VINA RESULT:      -4.1      9.516     10.317
REMARK  4 active torsions:
REMARK  status: ('A' for Active; 'I' for Inactive)
REMARK    1  A    between atoms: C_11  and  N_3 
REMARK    2  A    between atoms: C_10  and  C_5 
REMARK    3  A    between atoms: C_21  and  C_11 
REMARK    4  A    between atoms: N_12  and  C_21 
ROOT
ATOM      1  C   UNL d   1      44.640  26.540  57.120  0.00  0.00     0.085 A 
ATOM      2  C   UNL d   1      44.486  26.797  56.340  0.00  0.00     0.161 A 
ATOM      3  N   UNL d   1      44.593  27.876  57.129  0.00  0.00    -0.268 N 
ATOM      4  C   UNL d   1      44.459  27.620  56.350  0.00  0.00     0.288 A 
ATOM      5  C   UNL d   1      44.704  27.208  57.600  0.00  0.00     0.095 A 
ATOM      6  C   UNL d   1      44.699  25.726  57.281  0.00  0.00     0.201 A 
ATOM      7  O   UNL d   1      44.395  26.243  55.735  0.00  0.00    -0.302 OA
ATOM      8  C   UNL d   1      44.605  25.180  56.665  0.00  0.00     0.063 A 
ATOM      9  C   UNL d   1      44.452  25.436  55.890  0.00  0.00     0.103 A 
ATOM     10  O   UNL d   1      44.321  28.111  55.697  0.00  0.00    -0.264 OA
ATOM     11  O   UNL d   1      44.850  25.467  58.049  0.00  0.00    -0.286 OA
ATOM     12  C   UNL d   1      44.664  24.374  56.829  0.00  0.00     0.017 A 
ATOM     13  C   UNL d   1      44.362  24.880  55.292  0.00  0.00     0.026 A 
ATOM     14  C   UNL d   1      44.572  23.824  56.225  0.00  0.00     0.058 A 
ATOM     15  C   UNL d   1      44.421  24.077  55.457  0.00  0.00     0.013 A 
ATOM     16 CL   UNL d   1      44.631  23.021  56.390  0.00  0.00    -0.082 Cl
ENDROOT
BRANCH   3  17
ATOM     17  C   UNL d   1      44.612  28.658  57.383  0.00  0.00     0.102 C 
BRANCH  17  18
ATOM     18  C   UNL d   1      44.667  29.276  56.837  0.00  0.00     0.100 C 
BRANCH  18  19
ATOM     19  N   UNL d   1      44.673  30.059  57.091  0.00  0.00    -0.298 N 
ATOM     20  C   UNL d   1      45.032  30.251  57.798  0.00  0.00     0.107 A 
ATOM     21  C   UNL d   1      45.038  31.034  58.051  0.00  0.00     0.142 A 
ATOM     22  O   UNL d   1      44.683  31.617  57.595  0.00  0.00    -0.300 OA
ATOM     23  C   UNL d   1      44.323  31.417  56.884  0.00  0.00     0.142 A 
ATOM     24  C   UNL d   1      44.318  30.634  56.631  0.00  0.00     0.107 A 
ENDBRANCH  18  19
ENDBRANCH  17  18
ENDBRANCH   3  17
BRANCH   5  25
ATOM     25  C   UNL d   1      44.855  27.165  58.411  0.00  0.00     0.116 A 
ATOM     26  O   UNL d   1      45.572  26.943  58.771  0.00  0.00    -0.304 OA
ATOM     27  C   UNL d   1      45.471  26.979  59.588  0.00  0.00     0.123 A 
ATOM     28  C   UNL d   1      44.697  27.221  59.744  0.00  0.00     0.029 A 
ATOM     29  C   UNL d   1      44.315  27.337  59.017  0.00  0.00     0.028 A 
ENDBRANCH   5  25
TORSDOF 4
ENDMDL
