MODEL 1
REMARK VINA RESULT:      -5.2      0.000      0.000
REMARK  4 active torsions:
REMARK  status: ('A' for Active; 'I' for Inactive)
REMARK    1  A    between atoms: S_8  and  C_1 
REMARK    2  A    between atoms: C_2  and  S_7 
REMARK    3  A    between atoms: S_7  and  C_13 
REMARK    4  A    between atoms: C_13  and  S_8 
ROOT
ATOM      1  C   UNL d   1      58.144  -0.737  30.306  0.00  0.00     0.128 C 
ENDROOT
BRANCH   1   2
ATOM      2  S   UNL d   1      57.792  -0.057  30.612  0.00  0.00    -0.076 SA
BRANCH   2   3
ATOM      3  C   UNL d   1      57.285  -0.144  31.237  0.00  0.00     0.137 A 
ATOM      4  N   UNL d   1      56.904  -0.829  31.538  0.00  0.00    -0.232 NA
ATOM      5  C   UNL d   1      56.454  -0.608  32.174  0.00  0.00     0.088 A 
ATOM      6  C   UNL d   1      55.962  -1.019  32.691  0.00  0.00     0.020 A 
ATOM      7  C   UNL d   1      56.543   0.209  32.283  0.00  0.00     0.049 A 
ATOM      8  C   UNL d   1      55.574  -0.642  33.290  0.00  0.00     0.002 A 
ATOM      9  C   UNL d   1      55.646   0.165  33.419  0.00  0.00     0.001 A 
ATOM     10  C   UNL d   1      56.145   0.595  32.897  0.00  0.00     0.008 A 
ATOM     11  S   UNL d   1      57.052   0.498  31.711  0.00  0.00    -0.060 SA
ENDBRANCH   2   3
ENDBRANCH   1   2
BRANCH   1  12
ATOM     12  S   UNL d   1      58.511  -0.706  29.568  0.00  0.00    -0.076 SA
BRANCH  12  13
ATOM     13  C   UNL d   1      59.048  -1.278  29.313  0.00  0.00     0.137 A 
ATOM     14  N   UNL d   1      58.872  -2.037  29.155  0.00  0.00    -0.232 NA
ATOM     15  C   UNL d   1      59.565  -2.397  28.923  0.00  0.00     0.088 A 
ATOM     16  C   UNL d   1      59.756  -3.150  28.692  0.00  0.00     0.020 A 
ATOM     17  C   UNL d   1      60.153  -1.822  28.950  0.00  0.00     0.049 A 
ATOM     18  C   UNL d   1      60.528  -3.361  28.481  0.00  0.00     0.002 A 
ATOM     19  C   UNL d   1      61.133  -2.768  28.509  0.00  0.00     0.001 A 
ATOM     20  C   UNL d   1      60.933  -1.998  28.747  0.00  0.00     0.008 A 
ATOM     21  S   UNL d   1      59.814  -1.115  29.199  0.00  0.00    -0.060 SA
ENDBRANCH  12  13
ENDBRANCH   1  12
TORSDOF 4
ENDMDL
MODEL 2
REMARK VINA RESULT:      -4.8      0.233      5.201
REMARK  4 active torsions:
REMARK  status: ('A' for Active; 'I' for Inactive)
REMARK    1  A    between atoms: S_8  and  C_1 
REMARK    2  A    between atoms: C_2  and  S_7 
REMARK    3  A    between atoms: S_7  and  C_13 
REMARK    4  A    between atoms: C_13  and  S_8 
ROOT
ATOM      1  C   UNL d   1      58.317  -0.576  30.228  0.00  0.00     0.128 C 
ENDROOT
BRANCH   1   2
ATOM      2  S   UNL d   1      58.568  -0.617  29.444  0.00  0.00    -0.076 SA
BRANCH   2   3
ATOM      3  C   UNL d   1      59.056  -1.229  29.237  0.00  0.00     0.137 A 
ATOM      4  N   UNL d   1      58.897  -2.050  29.160  0.00  0.00    -0.232 NA
ATOM      5  C   UNL d   1      59.583  -2.419  28.938  0.00  0.00     0.088 A 
ATOM      6  C   UNL d   1      59.779  -3.203  28.779  0.00  0.00     0.020 A 
ATOM      7  C   UNL d   1      60.177  -1.844  28.872  0.00  0.00     0.049 A 
ATOM      8  C   UNL d   1      60.528  -3.413  28.564  0.00  0.00     0.002 A 
ATOM      9  C   UNL d   1      61.133  -2.863  28.491  0.00  0.00     0.001 A 
ATOM     10  C   UNL d   1      60.945  -2.060  28.651  0.00  0.00     0.008 A 
ATOM     11  S   UNL d   1      59.859  -1.113  29.054  0.00  0.00    -0.060 SA
ENDBRANCH   2   3
ENDBRANCH   1   2
BRANCH   1  12
ATOM     12  S   UNL d   1      57.743  -0.023  30.442  0.00  0.00    -0.076 SA
BRANCH  12  13
ATOM     13  C   UNL d   1      57.322  -0.067  31.149  0.00  0.00     0.137 A 
ATOM     14  N   UNL d   1      56.865  -0.678  31.374  0.00  0.00    -0.232 NA
ATOM     15  C   UNL d   1      56.558  -0.487  32.105  0.00  0.00     0.088 A 
ATOM     16  C   UNL d   1      56.063  -0.866  32.622  0.00  0.00     0.020 A 
ATOM     17  C   UNL d   1      56.852   0.257  32.299  0.00  0.00     0.049 A 
ATOM     18  C   UNL d   1      55.840  -0.527  33.343  0.00  0.00     0.002 A 
ATOM     19  C   UNL d   1      56.143   0.239  33.543  0.00  0.00     0.001 A 
ATOM     20  C   UNL d   1      56.651   0.624  33.010  0.00  0.00     0.008 A 
ATOM     21  S   UNL d   1      57.336   0.514  31.685  0.00  0.00    -0.060 SA
ENDBRANCH  12  13
ENDBRANCH   1  12
TORSDOF 4
ENDMDL
MODEL 3
REMARK VINA RESULT:      -3.3      1.775      5.518
REMARK  4 active torsions:
REMARK  status: ('A' for Active; 'I' for Inactive)
REMARK    1  A    between atoms: S_8  and  C_1 
REMARK    2  A    between atoms: C_2  and  S_7 
REMARK    3  A    between atoms: S_7  and  C_13 
REMARK    4  A    between atoms: C_13  and  S_8 
ROOT
ATOM      1  C   UNL d   1      57.671  -0.091  31.215  0.00  0.00     0.128 C 
ENDROOT
BRANCH   1   2
ATOM      2  S   UNL d   1      57.720  -0.041  30.394  0.00  0.00    -0.076 SA
BRANCH   2   3
ATOM      3  C   UNL d   1      58.450   0.088  30.067  0.00  0.00     0.137 A 
ATOM      4  N   UNL d   1      59.141   0.432  30.397  0.00  0.00    -0.232 NA
ATOM      5  C   UNL d   1      59.720   0.426  29.830  0.00  0.00     0.088 A 
ATOM      6  C   UNL d   1      60.503   0.681  29.816  0.00  0.00     0.020 A 
ATOM      7  C   UNL d   1      59.406   0.084  29.143  0.00  0.00     0.049 A 
ATOM      8  C   UNL d   1      60.958   0.602  29.155  0.00  0.00     0.002 A 
ATOM      9  C   UNL d   1      60.672   0.267  28.463  0.00  0.00     0.001 A 
ATOM     10  C   UNL d   1      59.874   0.003  28.465  0.00  0.00     0.008 A 
ATOM     11  S   UNL d   1      58.628  -0.126  29.283  0.00  0.00    -0.060 SA
ENDBRANCH   2   3
ENDBRANCH   1   2
BRANCH   1  12
ATOM     12  S   UNL d   1      56.995  -0.412  31.562  0.00  0.00    -0.076 SA
BRANCH  12  13
ATOM     13  C   UNL d   1      56.700  -0.154  32.287  0.00  0.00     0.137 A 
ATOM     14  N   UNL d   1      57.136  -0.013  32.937  0.00  0.00    -0.232 NA
ATOM     15  C   UNL d   1      56.621   0.230  33.519  0.00  0.00     0.088 A 
ATOM     16  C   UNL d   1      56.712   0.453  34.293  0.00  0.00     0.020 A 
ATOM     17  C   UNL d   1      55.867   0.227  33.186  0.00  0.00     0.049 A 
ATOM     18  C   UNL d   1      56.070   0.679  34.763  0.00  0.00     0.002 A 
ATOM     19  C   UNL d   1      55.294   0.676  34.420  0.00  0.00     0.001 A 
ATOM     20  C   UNL d   1      55.205   0.447  33.627  0.00  0.00     0.008 A 
ATOM     21  S   UNL d   1      55.930  -0.018  32.404  0.00  0.00    -0.060 SA
ENDBRANCH  12  13
ENDBRANCH   1  12
TORSDOF 4
ENDMDL
MODEL 4
REMARK VINA RESULT:      -2.9      1.300      2.102
REMARK  4 active torsions:
REMARK  status: ('A' for Active; 'I' for Inactive)
REMARK    1  A    between atoms: S_8  and  C_1 
REMARK    2  A    between atoms: C_2  and  S_7 
REMARK    3  A    between atoms: S_7  and  C_13 
REMARK    4  A    between atoms: C_13  and  S_8 
ROOT
ATOM      1  C   UNL d   1      57.110   0.077  31.616  0.00  0.00     0.128 C 
ENDROOT
BRANCH   1   2
ATOM      2  S   UNL d   1      56.343   0.172  31.901  0.00  0.00    -0.076 SA
BRANCH   2   3
ATOM      3  C   UNL d   1      56.249   0.287  32.698  0.00  0.00     0.137 A 
ATOM      4  N   UNL d   1      56.821   0.398  33.303  0.00  0.00    -0.232 NA
ATOM      5  C   UNL d   1      56.428   0.487  34.006  0.00  0.00     0.088 A 
ATOM      6  C   UNL d   1      56.676   0.612  34.781  0.00  0.00     0.020 A 
ATOM      7  C   UNL d   1      55.614   0.434  33.857  0.00  0.00     0.049 A 
ATOM      8  C   UNL d   1      56.145   0.681  35.386  0.00  0.00     0.002 A 
ATOM      9  C   UNL d   1      55.334   0.631  35.264  0.00  0.00     0.001 A 
ATOM     10  C   UNL d   1      55.071   0.504  34.477  0.00  0.00     0.008 A 
ATOM     11  S   UNL d   1      55.499   0.311  33.057  0.00  0.00    -0.060 SA
ENDBRANCH   2   3
ENDBRANCH   1   2
BRANCH   1  12
ATOM     12  S   UNL d   1      57.287   0.308  30.844  0.00  0.00    -0.076 SA
BRANCH  12  13
ATOM     13  C   UNL d   1      57.882  -0.047  30.397  0.00  0.00     0.137 A 
ATOM     14  N   UNL d   1      57.804  -0.718  29.978  0.00  0.00    -0.232 NA
ATOM     15  C   UNL d   1      58.525  -0.863  29.627  0.00  0.00     0.088 A 
ATOM     16  C   UNL d   1      58.805  -1.446  29.139  0.00  0.00     0.020 A 
ATOM     17  C   UNL d   1      59.028  -0.252  29.855  0.00  0.00     0.049 A 
ATOM     18  C   UNL d   1      59.584  -1.449  28.862  0.00  0.00     0.002 A 
ATOM     19  C   UNL d   1      60.102  -0.819  29.097  0.00  0.00     0.001 A 
ATOM     20  C   UNL d   1      59.811  -0.223  29.597  0.00  0.00     0.008 A 
ATOM     21  S   UNL d   1      58.609   0.260  30.344  0.00  0.00    -0.060 SA
ENDBRANCH  12  13
ENDBRANCH   1  12
TORSDOF 4
ENDMDL
