MODEL 1
REMARK VINA RESULT:      81.8      0.000      0.000
REMARK  6 active torsions:
REMARK  status: ('A' for Active; 'I' for Inactive)
REMARK    1  A    between atoms: C_3  and  S_1 
REMARK    2  A    between atoms: N_5  and  S_1 
REMARK    3  A    between atoms: S_2  and  N_6 
REMARK    4  A    between atoms: C_4  and  S_2 
REMARK    5  A    between atoms: O_25  and  C_15 
REMARK    6  A    between atoms: O_26  and  C_16 
ROOT
ATOM      1  N   UNL d   1     -48.916  28.924  34.353  0.00  0.00    -0.226 N 
ATOM      2  N   UNL d   1     -49.897  27.647  34.009  0.00  0.00    -0.226 N 
ATOM      3  C   UNL d   1     -48.913  28.266  34.852  0.00  0.00     0.111 A 
ATOM      4  C   UNL d   1     -49.891  28.312  33.516  0.00  0.00     0.111 A 
ATOM      5  C   UNL d   1     -49.409  27.623  34.676  0.00  0.00     0.111 A 
ATOM      6  C   UNL d   1     -49.403  28.948  33.686  0.00  0.00     0.111 A 
ENDROOT
BRANCH   1   7
ATOM      7  S   UNL d   1     -48.417  29.570  34.531  0.00  0.00     0.273 S 
ATOM      8  O   UNL d   1     -47.640  29.427  34.775  0.00  0.00    -0.200 OA
ATOM      9  O   UNL d   1     -48.695  30.339  34.463  0.00  0.00    -0.200 OA
BRANCH   7  10
ATOM     10  C   UNL d   1     -47.926  30.212  34.705  0.00  0.00     0.126 A 
ATOM     11  C   UNL d   1     -47.503  30.225  35.407  0.00  0.00     0.106 A 
ATOM     12  C   UNL d   1     -47.014  30.871  35.575  0.00  0.00     0.025 A 
ATOM     13  C   UNL d   1     -46.953  31.497  35.038  0.00  0.00     0.002 A 
ATOM     14  C   UNL d   1     -47.385  31.475  34.331  0.00  0.00     0.001 A 
ATOM     15  C   UNL d   1     -47.870  30.838  34.161  0.00  0.00     0.015 A 
ATOM     16  C   UNL d   1     -47.323  32.107  33.791  0.00  0.00     0.000 C 
BRANCH  11  17
ATOM     17  O   UNL d   1     -47.562  29.604  35.941  0.00  0.00    -0.327 OA
ATOM     18  C   UNL d   1     -47.604  29.762  36.751  0.00  0.00     0.181 C 
ENDBRANCH  11  17
ENDBRANCH   7  10
ENDBRANCH   1   7
BRANCH   2  19
ATOM     19  S   UNL d   1     -50.389  27.006  33.837  0.00  0.00     0.273 S 
ATOM     20  O   UNL d   1     -50.077  26.240  33.825  0.00  0.00    -0.200 OA
ATOM     21  O   UNL d   1     -51.189  27.124  33.678  0.00  0.00    -0.200 OA
BRANCH  19  22
ATOM     22  C   UNL d   1     -50.856  26.344  33.668  0.00  0.00     0.126 A 
ATOM     23  C   UNL d   1     -50.503  25.605  33.585  0.00  0.00     0.106 A 
ATOM     24  C   UNL d   1     -50.964  24.950  33.418  0.00  0.00     0.025 A 
ATOM     25  C   UNL d   1     -51.781  25.031  33.334  0.00  0.00     0.002 A 
ATOM     26  C   UNL d   1     -52.132  25.772  33.419  0.00  0.00     0.001 A 
ATOM     27  C   UNL d   1     -51.659  26.430  33.587  0.00  0.00     0.015 A 
ATOM     28  C   UNL d   1     -52.942  25.863  33.337  0.00  0.00     0.000 C 
BRANCH  23  29
ATOM     29  O   UNL d   1     -49.686  25.525  33.669  0.00  0.00    -0.327 OA
ATOM     30  C   UNL d   1     -49.298  24.886  33.320  0.00  0.00     0.181 C 
ENDBRANCH  23  29
ENDBRANCH  19  22
ENDBRANCH   2  19
TORSDOF 6
ENDMDL
MODEL 2
REMARK VINA RESULT:      82.9      0.525      5.560
REMARK  6 active torsions:
REMARK  status: ('A' for Active; 'I' for Inactive)
REMARK    1  A    between atoms: C_3  and  S_1 
REMARK    2  A    between atoms: N_5  and  S_1 
REMARK    3  A    between atoms: S_2  and  N_6 
REMARK    4  A    between atoms: C_4  and  S_2 
REMARK    5  A    between atoms: O_25  and  C_15 
REMARK    6  A    between atoms: O_26  and  C_16 
ROOT
ATOM      1  N   UNL d   1     -49.591  27.519  34.246  0.00  0.00    -0.226 N 
ATOM      2  N   UNL d   1     -48.700  28.824  34.705  0.00  0.00    -0.226 N 
ATOM      3  C   UNL d   1     -49.358  28.069  33.676  0.00  0.00     0.111 A 
ATOM      4  C   UNL d   1     -48.938  28.266  35.267  0.00  0.00     0.111 A 
ATOM      5  C   UNL d   1     -48.909  28.727  33.911  0.00  0.00     0.111 A 
ATOM      6  C   UNL d   1     -49.382  27.615  35.040  0.00  0.00     0.111 A 
ENDROOT
BRANCH   1   7
ATOM      7  S   UNL d   1     -50.043  26.857  34.010  0.00  0.00     0.273 S 
ATOM      8  O   UNL d   1     -50.662  26.596  34.493  0.00  0.00    -0.200 OA
ATOM      9  O   UNL d   1     -49.876  26.470  33.307  0.00  0.00    -0.200 OA
BRANCH   7  10
ATOM     10  C   UNL d   1     -50.489  26.202  33.773  0.00  0.00     0.126 A 
ATOM     11  C   UNL d   1     -50.112  25.511  33.544  0.00  0.00     0.106 A 
ATOM     12  C   UNL d   1     -50.565  24.860  33.309  0.00  0.00     0.025 A 
ATOM     13  C   UNL d   1     -51.390  24.907  33.305  0.00  0.00     0.002 A 
ATOM     14  C   UNL d   1     -51.763  25.610  33.539  0.00  0.00     0.001 A 
ATOM     15  C   UNL d   1     -51.319  26.256  33.772  0.00  0.00     0.015 A 
ATOM     16  C   UNL d   1     -52.594  25.655  33.535  0.00  0.00     0.000 C 
BRANCH  11  17
ATOM     17  O   UNL d   1     -49.292  25.463  33.547  0.00  0.00    -0.327 OA
ATOM     18  C   UNL d   1     -48.924  24.724  33.576  0.00  0.00     0.181 C 
ENDBRANCH  11  17
ENDBRANCH   7  10
ENDBRANCH   1   7
BRANCH   2  19
ATOM     19  S   UNL d   1     -48.252  29.480  34.934  0.00  0.00     0.273 S 
ATOM     20  O   UNL d   1     -47.551  29.371  35.360  0.00  0.00    -0.200 OA
ATOM     21  O   UNL d   1     -48.499  30.243  34.741  0.00  0.00    -0.200 OA
BRANCH  19  22
ATOM     22  C   UNL d   1     -47.782  30.116  35.178  0.00  0.00     0.126 A 
ATOM     23  C   UNL d   1     -47.361  30.067  35.883  0.00  0.00     0.106 A 
ATOM     24  C   UNL d   1     -46.896  30.697  36.124  0.00  0.00     0.025 A 
ATOM     25  C   UNL d   1     -46.851  31.378  35.661  0.00  0.00     0.002 A 
ATOM     26  C   UNL d   1     -47.274  31.424  34.954  0.00  0.00     0.001 A 
ATOM     27  C   UNL d   1     -47.742  30.784  34.718  0.00  0.00     0.015 A 
ATOM     28  C   UNL d   1     -47.235  32.096  34.488  0.00  0.00     0.000 C 
BRANCH  23  29
ATOM     29  O   UNL d   1     -47.407  29.386  36.346  0.00  0.00    -0.327 OA
ATOM     30  C   UNL d   1     -47.057  29.372  37.093  0.00  0.00     0.181 C 
ENDBRANCH  23  29
ENDBRANCH  19  22
ENDBRANCH   2  19
TORSDOF 6
ENDMDL
MODEL 3
REMARK VINA RESULT:      84.4      1.096      5.729
REMARK  6 active torsions:
REMARK  status: ('A' for Active; 'I' for Inactive)
REMARK    1  A    between atoms: C_3  and  S_1 
REMARK    2  A    between atoms: N_5  and  S_1 
REMARK    3  A    between atoms: S_2  and  N_6 
REMARK    4  A    between atoms: C_4  and  S_2 
REMARK    5  A    between atoms: O_25  and  C_15 
REMARK    6  A    between atoms: O_26  and  C_16 
ROOT
ATOM      1  N   UNL d   1     -50.339  26.633  34.226  0.00  0.00    -0.226 N 
ATOM      2  N   UNL d   1     -49.321  27.843  34.684  0.00  0.00    -0.226 N 
ATOM      3  C   UNL d   1     -49.761  26.897  33.698  0.00  0.00     0.111 A 
ATOM      4  C   UNL d   1     -49.903  27.571  35.204  0.00  0.00     0.111 A 
ATOM      5  C   UNL d   1     -49.249  27.507  33.931  0.00  0.00     0.111 A 
ATOM      6  C   UNL d   1     -50.411  26.969  34.978  0.00  0.00     0.111 A 
ENDROOT
BRANCH   1   7
ATOM      7  S   UNL d   1     -50.854  26.019  33.991  0.00  0.00     0.273 S 
ATOM      8  O   UNL d   1     -51.369  26.143  33.355  0.00  0.00    -0.200 OA
ATOM      9  O   UNL d   1     -50.850  25.300  34.387  0.00  0.00    -0.200 OA
BRANCH   7  10
ATOM     10  C   UNL d   1     -51.363  25.409  33.761  0.00  0.00     0.126 A 
ATOM     11  C   UNL d   1     -51.057  24.679  33.546  0.00  0.00     0.106 A 
ATOM     12  C   UNL d   1     -51.573  24.074  33.318  0.00  0.00     0.025 A 
ATOM     13  C   UNL d   1     -52.389  24.205  33.306  0.00  0.00     0.002 A 
ATOM     14  C   UNL d   1     -52.689  24.946  33.525  0.00  0.00     0.001 A 
ATOM     15  C   UNL d   1     -52.183  25.548  33.752  0.00  0.00     0.015 A 
ATOM     16  C   UNL d   1     -53.512  25.076  33.513  0.00  0.00     0.000 C 
BRANCH  11  17
ATOM     17  O   UNL d   1     -50.247  24.548  33.557  0.00  0.00    -0.327 OA
ATOM     18  C   UNL d   1     -49.946  23.819  33.311  0.00  0.00     0.181 C 
ENDBRANCH  11  17
ENDBRANCH   7  10
ENDBRANCH   1   7
BRANCH   2  19
ATOM     19  S   UNL d   1     -48.809  28.451  34.912  0.00  0.00     0.273 S 
ATOM     20  O   UNL d   1     -48.049  28.492  34.587  0.00  0.00    -0.200 OA
ATOM     21  O   UNL d   1     -49.050  29.016  35.462  0.00  0.00    -0.200 OA
BRANCH  19  22
ATOM     22  C   UNL d   1     -48.274  29.046  35.121  0.00  0.00     0.126 A 
ATOM     23  C   UNL d   1     -48.385  29.812  34.840  0.00  0.00     0.106 A 
ATOM     24  C   UNL d   1     -47.855  30.401  35.047  0.00  0.00     0.025 A 
ATOM     25  C   UNL d   1     -47.212  30.227  35.534  0.00  0.00     0.002 A 
ATOM     26  C   UNL d   1     -47.104  29.459  35.813  0.00  0.00     0.001 A 
ATOM     27  C   UNL d   1     -47.643  28.869  35.600  0.00  0.00     0.015 A 
ATOM     28  C   UNL d   1     -46.469  29.276  36.297  0.00  0.00     0.000 C 
BRANCH  23  29
ATOM     29  O   UNL d   1     -49.027  29.986  34.353  0.00  0.00    -0.327 OA
ATOM     30  C   UNL d   1     -49.005  30.650  33.865  0.00  0.00     0.181 C 
ENDBRANCH  23  29
ENDBRANCH  19  22
ENDBRANCH   2  19
TORSDOF 6
ENDMDL
