MODEL 1
REMARK VINA RESULT:      -5.9      0.000      0.000
REMARK  2 active torsions:
REMARK  status: ('A' for Active; 'I' for Inactive)
REMARK    1  A    between atoms: C_7  and  C_1 
REMARK    2  A    between atoms: O_19  and  C_15 
ROOT
ATOM      1  C   UNL d   1      57.402  -0.012  31.455  0.00  0.00     0.064 A 
ATOM      2  C   UNL d   1      57.511  -0.650  30.929  0.00  0.00     0.199 A 
ATOM      3  C   UNL d   1      58.110  -0.624  30.359  0.00  0.00     0.062 A 
ATOM      4  C   UNL d   1      57.903   0.657  31.406  0.00  0.00     0.126 A 
ATOM      5  C   UNL d   1      58.610   0.046  30.313  0.00  0.00     0.106 A 
ATOM      6  O   UNL d   1      58.509   0.682  30.830  0.00  0.00    -0.305 OA
ATOM      7  C   UNL d   1      58.216  -1.252  29.842  0.00  0.00     0.009 A 
ATOM      8  C   UNL d   1      59.208   0.071  29.744  0.00  0.00     0.067 A 
ATOM      9  O   UNL d   1      57.017  -1.309  30.977  0.00  0.00    -0.286 OA
ATOM     10  C   UNL d   1      59.307  -0.567  29.227  0.00  0.00     0.198 A 
ATOM     11  C   UNL d   1      58.813  -1.226  29.276  0.00  0.00     0.042 A 
ATOM     12  O   UNL d   1      59.904  -0.540  28.661  0.00  0.00    -0.286 OA
ENDROOT
BRANCH   1  13
ATOM     13  C   UNL d   1      56.807  -0.041  32.018  0.00  0.00     0.005 A 
ATOM     14  C   UNL d   1      56.345   0.628  32.159  0.00  0.00     0.002 A 
ATOM     15  C   UNL d   1      55.748   0.595  32.725  0.00  0.00     0.024 A 
ATOM     16  C   UNL d   1      55.608  -0.098  33.150  0.00  0.00     0.094 A 
ATOM     17  C   UNL d   1      56.079  -0.769  33.002  0.00  0.00     0.024 A 
ATOM     18  C   UNL d   1      56.676  -0.738  32.437  0.00  0.00     0.002 A 
BRANCH  16  19
ATOM     19  O   UNL d   1      55.011  -0.130  33.716  0.00  0.00    -0.328 OA
ATOM     20  C   UNL d   1      54.776   0.558  34.109  0.00  0.00     0.181 C 
ENDBRANCH  16  19
ENDBRANCH   1  13
TORSDOF 2
ENDMDL
MODEL 2
REMARK VINA RESULT:      -5.8      0.850      4.188
REMARK  2 active torsions:
REMARK  status: ('A' for Active; 'I' for Inactive)
REMARK    1  A    between atoms: C_7  and  C_1 
REMARK    2  A    between atoms: O_19  and  C_15 
ROOT
ATOM      1  C   UNL d   1      57.615  -0.015  31.220  0.00  0.00     0.064 A 
ATOM      2  C   UNL d   1      57.087  -0.631  31.415  0.00  0.00     0.199 A 
ATOM      3  C   UNL d   1      56.638  -0.593  32.109  0.00  0.00     0.062 A 
ATOM      4  C   UNL d   1      57.690   0.644  31.730  0.00  0.00     0.126 A 
ATOM      5  C   UNL d   1      56.716   0.068  32.617  0.00  0.00     0.106 A 
ATOM      6  O   UNL d   1      57.236   0.682  32.432  0.00  0.00    -0.305 OA
ATOM      7  C   UNL d   1      56.119  -1.199  32.299  0.00  0.00     0.009 A 
ATOM      8  C   UNL d   1      56.267   0.105  33.310  0.00  0.00     0.067 A 
ATOM      9  O   UNL d   1      57.013  -1.280  30.912  0.00  0.00    -0.286 OA
ATOM     10  C   UNL d   1      55.747  -0.511  33.493  0.00  0.00     0.198 A 
ATOM     11  C   UNL d   1      55.673  -1.160  32.990  0.00  0.00     0.042 A 
ATOM     12  O   UNL d   1      55.301  -0.472  34.184  0.00  0.00    -0.286 OA
ENDROOT
BRANCH   1  13
ATOM     13  C   UNL d   1      58.058  -0.057  30.531  0.00  0.00     0.005 A 
ATOM     14  C   UNL d   1      57.803   0.345  29.857  0.00  0.00     0.002 A 
ATOM     15  C   UNL d   1      58.250   0.301  29.167  0.00  0.00     0.024 A 
ATOM     16  C   UNL d   1      58.948  -0.139  29.145  0.00  0.00     0.094 A 
ATOM     17  C   UNL d   1      59.198  -0.541  29.830  0.00  0.00     0.024 A 
ATOM     18  C   UNL d   1      58.752  -0.499  30.520  0.00  0.00     0.002 A 
BRANCH  16  19
ATOM     19  O   UNL d   1      59.394  -0.182  28.455  0.00  0.00    -0.328 OA
ATOM     20  C   UNL d   1      60.195   0.021  28.467  0.00  0.00     0.181 C 
ENDBRANCH  16  19
ENDBRANCH   1  13
TORSDOF 2
ENDMDL
MODEL 3
REMARK VINA RESULT:      -5.6      1.106      4.335
REMARK  2 active torsions:
REMARK  status: ('A' for Active; 'I' for Inactive)
REMARK    1  A    between atoms: C_7  and  C_1 
REMARK    2  A    between atoms: O_19  and  C_15 
ROOT
ATOM      1  C   UNL d   1      57.143   0.211  32.224  0.00  0.00     0.064 A 
ATOM      2  C   UNL d   1      56.341   0.056  32.397  0.00  0.00     0.199 A 
ATOM      3  C   UNL d   1      56.038   0.211  33.151  0.00  0.00     0.062 A 
ATOM      4  C   UNL d   1      57.641   0.525  32.819  0.00  0.00     0.126 A 
ATOM      5  C   UNL d   1      56.539   0.525  33.743  0.00  0.00     0.106 A 
ATOM      6  O   UNL d   1      57.333   0.682  33.581  0.00  0.00    -0.305 OA
ATOM      7  C   UNL d   1      55.249   0.057  33.318  0.00  0.00     0.009 A 
ATOM      8  C   UNL d   1      56.235   0.680  34.495  0.00  0.00     0.067 A 
ATOM      9  O   UNL d   1      55.850  -0.254  31.811  0.00  0.00    -0.286 OA
ATOM     10  C   UNL d   1      55.439   0.522  34.654  0.00  0.00     0.198 A 
ATOM     11  C   UNL d   1      54.948   0.212  34.068  0.00  0.00     0.042 A 
ATOM     12  O   UNL d   1      55.138   0.677  35.405  0.00  0.00    -0.286 OA
ENDROOT
BRANCH   1  13
ATOM     13  C   UNL d   1      57.440   0.056  31.476  0.00  0.00     0.005 A 
ATOM     14  C   UNL d   1      57.710   0.679  31.008  0.00  0.00     0.002 A 
ATOM     15  C   UNL d   1      58.008   0.519  30.257  0.00  0.00     0.024 A 
ATOM     16  C   UNL d   1      58.038  -0.254  29.970  0.00  0.00     0.094 A 
ATOM     17  C   UNL d   1      57.762  -0.877  30.450  0.00  0.00     0.024 A 
ATOM     18  C   UNL d   1      57.465  -0.720  31.201  0.00  0.00     0.002 A 
BRANCH  16  19
ATOM     19  O   UNL d   1      58.335  -0.413  29.220  0.00  0.00    -0.328 OA
ATOM     20  C   UNL d   1      58.852  -1.048  29.105  0.00  0.00     0.181 C 
ENDBRANCH  16  19
ENDBRANCH   1  13
TORSDOF 2
ENDMDL
