MODEL 1
REMARK VINA RESULT:     -10.3      0.000      0.000
REMARK  3 active torsions:
REMARK  status: ('A' for Active; 'I' for Inactive)
REMARK    1  A    between atoms: C_5  and  C_1 
REMARK    2  A    between atoms: C_7  and  C_5 
REMARK    3  A    between atoms: C_10  and  C_7 
ROOT
ATOM      1  C   UNL d   1      53.449  33.168  54.486  0.00  0.00     0.220 A 
ATOM      2  C   UNL d   1      54.063  33.346  54.967  0.00  0.00     0.315 A 
ATOM      3  N   UNL d   1      54.138  34.159  55.024  0.00  0.00    -0.205 NA
ATOM      4  C   UNL d   1      53.114  33.869  54.222  0.00  0.00     0.059 A 
ATOM      5  C   UNL d   1      53.549  34.495  54.562  0.00  0.00     0.088 A 
ATOM      6  O   UNL d   1      54.528  32.768  55.333  0.00  0.00    -0.262 OA
ATOM      7  O   UNL d   1      52.807  33.167  53.983  0.00  0.00    -0.285 OA
ATOM      8  C   UNL d   1      52.480  34.049  53.725  0.00  0.00     0.005 A 
ATOM      9  C   UNL d   1      53.344  35.292  54.400  0.00  0.00     0.019 A 
ATOM     10  C   UNL d   1      52.266  34.819  53.556  0.00  0.00     0.000 A 
ATOM     11  C   UNL d   1      52.702  35.446  53.896  0.00  0.00     0.002 A 
ENDROOT
BRANCH   1  12
ATOM     12  C   UNL d   1      53.275  32.381  54.351  0.00  0.00     0.086 C 
BRANCH  12  13
ATOM     13  C   UNL d   1      53.712  31.920  53.816  0.00  0.00     0.199 C 
ATOM     14  O   UNL d   1      54.395  32.235  53.480  0.00  0.00    -0.286 OA
BRANCH  13  15
ATOM     15  C   UNL d   1      53.471  31.166  53.626  0.00  0.00     0.039 A 
ATOM     16  C   UNL d   1      53.601  30.517  54.141  0.00  0.00     0.003 A 
ATOM     17  C   UNL d   1      53.360  29.763  53.950  0.00  0.00     0.000 A 
ATOM     18  C   UNL d   1      52.974  29.641  53.222  0.00  0.00     0.000 A 
ATOM     19  C   UNL d   1      52.839  30.265  52.707  0.00  0.00     0.000 A 
ATOM     20  C   UNL d   1      53.083  31.011  52.907  0.00  0.00     0.003 A 
ENDBRANCH  13  15
ENDBRANCH  12  13
ENDBRANCH   1  12
TORSDOF 3
ENDMDL
MODEL 2
REMARK VINA RESULT:     -10.1      1.659      3.912
REMARK  3 active torsions:
REMARK  status: ('A' for Active; 'I' for Inactive)
REMARK    1  A    between atoms: C_5  and  C_1 
REMARK    2  A    between atoms: C_7  and  C_5 
REMARK    3  A    between atoms: C_10  and  C_7 
ROOT
ATOM      1  C   UNL d   1      53.410  31.537  53.338  0.00  0.00     0.220 A 
ATOM      2  C   UNL d   1      52.879  31.774  52.788  0.00  0.00     0.315 A 
ATOM      3  N   UNL d   1      52.396  31.145  52.587  0.00  0.00    -0.205 NA
ATOM      4  C   UNL d   1      53.278  30.744  53.503  0.00  0.00     0.059 A 
ATOM      5  C   UNL d   1      52.637  30.496  53.029  0.00  0.00     0.088 A 
ATOM      6  O   UNL d   1      52.854  32.546  52.493  0.00  0.00    -0.262 OA
ATOM      7  O   UNL d   1      53.868  31.136  53.881  0.00  0.00    -0.285 OA
ATOM      8  C   UNL d   1      53.633  30.197  54.008  0.00  0.00     0.005 A 
ATOM      9  C   UNL d   1      52.361  29.705  53.067  0.00  0.00     0.019 A 
ATOM     10  C   UNL d   1      53.378  29.423  54.059  0.00  0.00     0.000 A 
ATOM     11  C   UNL d   1      52.737  29.175  53.585  0.00  0.00     0.002 A 
ENDROOT
BRANCH   1  12
ATOM     12  C   UNL d   1      53.951  32.082  53.619  0.00  0.00     0.086 C 
BRANCH  12  13
ATOM     13  C   UNL d   1      53.731  32.689  54.142  0.00  0.00     0.199 C 
ATOM     14  O   UNL d   1      52.931  32.847  54.259  0.00  0.00    -0.286 OA
BRANCH  13  15
ATOM     15  C   UNL d   1      54.298  33.122  54.536  0.00  0.00     0.039 A 
ATOM     16  C   UNL d   1      54.949  33.464  54.134  0.00  0.00     0.003 A 
ATOM     17  C   UNL d   1      55.516  33.897  54.527  0.00  0.00     0.000 A 
ATOM     18  C   UNL d   1      55.439  33.998  55.351  0.00  0.00     0.000 A 
ATOM     19  C   UNL d   1      54.806  33.670  55.758  0.00  0.00     0.000 A 
ATOM     20  C   UNL d   1      54.249  33.241  55.357  0.00  0.00     0.003 A 
ENDBRANCH  13  15
ENDBRANCH  12  13
ENDBRANCH   1  12
TORSDOF 3
ENDMDL
MODEL 3
REMARK VINA RESULT:      -9.9      1.472      3.721
REMARK  3 active torsions:
REMARK  status: ('A' for Active; 'I' for Inactive)
REMARK    1  A    between atoms: C_5  and  C_1 
REMARK    2  A    between atoms: C_7  and  C_5 
REMARK    3  A    between atoms: C_10  and  C_7 
ROOT
ATOM      1  C   UNL d   1      53.085  32.185  53.135  0.00  0.00     0.220 A 
ATOM      2  C   UNL d   1      53.752  32.452  53.486  0.00  0.00     0.315 A 
ATOM      3  N   UNL d   1      54.170  31.820  53.795  0.00  0.00    -0.205 NA
ATOM      4  C   UNL d   1      53.059  31.368  53.212  0.00  0.00     0.059 A 
ATOM      5  C   UNL d   1      53.745  31.138  53.629  0.00  0.00     0.088 A 
ATOM      6  O   UNL d   1      53.955  33.254  53.512  0.00  0.00    -0.262 OA
ATOM      7  O   UNL d   1      52.465  31.751  52.830  0.00  0.00    -0.285 OA
ATOM      8  C   UNL d   1      52.525  30.787  52.973  0.00  0.00     0.005 A 
ATOM      9  C   UNL d   1      53.886  30.329  53.801  0.00  0.00     0.019 A 
ATOM     10  C   UNL d   1      52.646  29.994  53.131  0.00  0.00     0.000 A 
ATOM     11  C   UNL d   1      53.332  29.764  53.548  0.00  0.00     0.002 A 
ENDROOT
BRANCH   1  12
ATOM     12  C   UNL d   1      52.582  32.728  52.787  0.00  0.00     0.086 C 
BRANCH  12  13
ATOM     13  C   UNL d   1      52.119  33.250  53.239  0.00  0.00     0.199 C 
ATOM     14  O   UNL d   1      52.285  33.342  54.040  0.00  0.00    -0.286 OA
BRANCH  13  15
ATOM     15  C   UNL d   1      51.508  33.665  52.895  0.00  0.00     0.039 A 
ATOM     16  C   UNL d   1      51.593  34.037  52.148  0.00  0.00     0.003 A 
ATOM     17  C   UNL d   1      50.983  34.452  51.804  0.00  0.00     0.000 A 
ATOM     18  C   UNL d   1      50.258  34.503  52.212  0.00  0.00     0.000 A 
ATOM     19  C   UNL d   1      50.159  34.144  52.943  0.00  0.00     0.000 A 
ATOM     20  C   UNL d   1      50.773  33.735  53.275  0.00  0.00     0.003 A 
ENDBRANCH  13  15
ENDBRANCH  12  13
ENDBRANCH   1  12
TORSDOF 3
ENDMDL
MODEL 4
REMARK VINA RESULT:      -9.6      1.728      3.356
REMARK  3 active torsions:
REMARK  status: ('A' for Active; 'I' for Inactive)
REMARK    1  A    between atoms: C_5  and  C_1 
REMARK    2  A    between atoms: C_7  and  C_5 
REMARK    3  A    between atoms: C_10  and  C_7 
ROOT
ATOM      1  C   UNL d   1      52.899  33.173  53.610  0.00  0.00     0.220 A 
ATOM      2  C   UNL d   1      53.184  32.584  53.150  0.00  0.00     0.315 A 
ATOM      3  N   UNL d   1      53.943  32.394  53.389  0.00  0.00    -0.205 NA
ATOM      4  C   UNL d   1      53.474  33.374  54.160  0.00  0.00     0.059 A 
ATOM      5  C   UNL d   1      54.133  32.882  54.021  0.00  0.00     0.088 A 
ATOM      6  O   UNL d   1      52.747  32.246  52.534  0.00  0.00    -0.262 OA
ATOM      7  O   UNL d   1      52.770  33.761  54.161  0.00  0.00    -0.285 OA
ATOM      8  C   UNL d   1      53.513  33.927  54.772  0.00  0.00     0.005 A 
ATOM      9  C   UNL d   1      54.822  32.950  54.494  0.00  0.00     0.019 A 
ATOM     10  C   UNL d   1      54.175  34.007  55.243  0.00  0.00     0.000 A 
ATOM     11  C   UNL d   1      54.835  33.514  55.104  0.00  0.00     0.002 A 
ENDROOT
BRANCH   1  12
ATOM     12  C   UNL d   1      52.143  33.451  53.466  0.00  0.00     0.086 C 
BRANCH  12  13
ATOM     13  C   UNL d   1      51.986  34.003  52.865  0.00  0.00     0.199 C 
ATOM     14  O   UNL d   1      52.617  34.370  52.483  0.00  0.00    -0.286 OA
BRANCH  13  15
ATOM     15  C   UNL d   1      51.219  34.178  52.655  0.00  0.00     0.039 A 
ATOM     16  C   UNL d   1      50.647  34.407  53.223  0.00  0.00     0.003 A 
ATOM     17  C   UNL d   1      49.880  34.583  53.013  0.00  0.00     0.000 A 
ATOM     18  C   UNL d   1      49.666  34.531  52.210  0.00  0.00     0.000 A 
ATOM     19  C   UNL d   1      50.215  34.309  51.641  0.00  0.00     0.000 A 
ATOM     20  C   UNL d   1      50.974  34.137  51.861  0.00  0.00     0.003 A 
ENDBRANCH  13  15
ENDBRANCH  12  13
ENDBRANCH   1  12
TORSDOF 3
ENDMDL
