MODEL 1
REMARK VINA RESULT:      -5.0      0.000      0.000
REMARK  4 active torsions:
REMARK  status: ('A' for Active; 'I' for Inactive)
REMARK    1  A    between atoms: N_2  and  S_1 
REMARK    2  A    between atoms: C_4  and  S_1 
REMARK    3  A    between atoms: C_3  and  N_2 
REMARK    4  A    between atoms: N_5  and  C_6 
REMARK       I    between atoms: C_9  and  N_5 
ROOT
ATOM      1  N   UNL d   1      57.381  -0.685  30.734  0.00  0.00    -0.157 NA
ENDROOT
BRANCH   1   2
ATOM      2  S   UNL d   1      56.918  -0.501  31.425  0.00  0.00     0.285 S 
ATOM      3  O   UNL d   1      57.201  -1.197  31.800  0.00  0.00    -0.198 OA
ATOM      4  O   UNL d   1      56.634   0.195  31.049  0.00  0.00    -0.198 OA
BRANCH   2   5
ATOM      5  C   UNL d   1      56.461  -0.316  32.101  0.00  0.00     0.105 A 
ATOM      6  C   UNL d   1      56.210  -0.919  32.609  0.00  0.00     0.013 A 
ATOM      7  C   UNL d   1      55.765  -0.740  33.268  0.00  0.00     0.001 A 
ATOM      8  C   UNL d   1      55.563   0.042  33.430  0.00  0.00     0.000 A 
ATOM      9  C   UNL d   1      55.815   0.645  32.922  0.00  0.00     0.001 A 
ATOM     10  C   UNL d   1      55.104   0.220  34.112  0.00  0.00     0.000 C 
ATOM     11  C   UNL d   1      56.264   0.459  32.257  0.00  0.00     0.013 A 
ENDBRANCH   2   5
ENDBRANCH   1   2
BRANCH   1  12
ATOM     12  C   UNL d   1      58.113  -0.301  30.613  0.00  0.00     0.112 A 
ATOM     13  C   UNL d   1      58.583  -0.504  29.964  0.00  0.00     0.103 A 
ATOM     14  C   UNL d   1      59.306  -0.125  29.846  0.00  0.00     0.021 A 
ATOM     15  C   UNL d   1      59.558   0.456  30.375  0.00  0.00     0.002 A 
ATOM     16  C   UNL d   1      59.080   0.656  31.029  0.00  0.00     0.002 A 
ATOM     17  C   UNL d   1      58.369   0.287  31.150  0.00  0.00     0.021 A 
BRANCH  13  18
ATOM     18  N   UNL d   1      58.339  -1.082  29.429  0.00  0.00    -0.206 NA
ATOM     19  C   UNL d   1      58.907  -1.512  29.014  0.00  0.00     0.280 C 
ATOM     20  O   UNL d   1      59.700  -1.361  29.137  0.00  0.00    -0.265 OA
ATOM     21  C   UNL d   1      58.673  -2.092  28.478  0.00  0.00     0.068 C 
ENDBRANCH  13  18
ENDBRANCH   1  12
TORSDOF 4
ENDMDL
MODEL 2
REMARK VINA RESULT:      -3.9      1.595      4.351
REMARK  4 active torsions:
REMARK  status: ('A' for Active; 'I' for Inactive)
REMARK    1  A    between atoms: N_2  and  S_1 
REMARK    2  A    between atoms: C_4  and  S_1 
REMARK    3  A    between atoms: C_3  and  N_2 
REMARK    4  A    between atoms: N_5  and  C_6 
REMARK       I    between atoms: C_9  and  N_5 
ROOT
ATOM      1  N   UNL d   1      56.347  -0.091  32.228  0.00  0.00    -0.157 NA
ENDROOT
BRANCH   1   2
ATOM      2  S   UNL d   1      56.896  -0.153  31.579  0.00  0.00     0.285 S 
ATOM      3  O   UNL d   1      56.923  -0.986  31.680  0.00  0.00    -0.198 OA
ATOM      4  O   UNL d   1      56.869   0.681  31.479  0.00  0.00    -0.198 OA
BRANCH   2   5
ATOM      5  C   UNL d   1      57.435  -0.206  30.942  0.00  0.00     0.105 A 
ATOM      6  C   UNL d   1      57.682  -0.948  30.670  0.00  0.00     0.013 A 
ATOM      7  C   UNL d   1      58.207  -1.002  30.049  0.00  0.00     0.001 A 
ATOM      8  C   UNL d   1      58.493  -0.318  29.690  0.00  0.00     0.000 A 
ATOM      9  C   UNL d   1      58.246   0.424  29.962  0.00  0.00     0.001 A 
ATOM     10  C   UNL d   1      59.035  -0.381  29.049  0.00  0.00     0.000 C 
ATOM     11  C   UNL d   1      57.716   0.473  30.590  0.00  0.00     0.013 A 
ENDBRANCH   2   5
ENDBRANCH   1   2
BRANCH   1  12
ATOM     12  C   UNL d   1      56.618   0.164  32.976  0.00  0.00     0.112 A 
ATOM     13  C   UNL d   1      56.077   0.431  33.541  0.00  0.00     0.103 A 
ATOM     14  C   UNL d   1      56.346   0.682  34.280  0.00  0.00     0.021 A 
ATOM     15  C   UNL d   1      57.152   0.666  34.452  0.00  0.00     0.002 A 
ATOM     16  C   UNL d   1      57.694   0.395  33.878  0.00  0.00     0.002 A 
ATOM     17  C   UNL d   1      57.436   0.147  33.151  0.00  0.00     0.021 A 
BRANCH  13  18
ATOM     18  N   UNL d   1      55.270   0.451  33.378  0.00  0.00    -0.206 NA
ATOM     19  C   UNL d   1      54.737   0.578  33.995  0.00  0.00     0.280 C 
ATOM     20  O   UNL d   1      55.015   0.682  34.756  0.00  0.00    -0.265 OA
ATOM     21  C   UNL d   1      53.927   0.599  33.842  0.00  0.00     0.068 C 
ENDBRANCH  13  18
ENDBRANCH   1  12
TORSDOF 4
ENDMDL
MODEL 3
REMARK VINA RESULT:      -2.3      1.521      4.457
REMARK  4 active torsions:
REMARK  status: ('A' for Active; 'I' for Inactive)
REMARK    1  A    between atoms: N_2  and  S_1 
REMARK    2  A    between atoms: C_4  and  S_1 
REMARK    3  A    between atoms: C_3  and  N_2 
REMARK    4  A    between atoms: N_5  and  C_6 
REMARK       I    between atoms: C_9  and  N_5 
ROOT
ATOM      1  N   UNL d   1      57.854  -1.734  29.970  0.00  0.00    -0.157 NA
ENDROOT
BRANCH   1   2
ATOM      2  S   UNL d   1      58.498  -2.196  29.658  0.00  0.00     0.285 S 
ATOM      3  O   UNL d   1      58.431  -1.795  28.924  0.00  0.00    -0.198 OA
ATOM      4  O   UNL d   1      58.565  -2.597  30.394  0.00  0.00    -0.198 OA
BRANCH   2   5
ATOM      5  C   UNL d   1      59.131  -2.653  29.358  0.00  0.00     0.105 A 
ATOM      6  C   UNL d   1      58.979  -3.279  28.839  0.00  0.00     0.013 A 
ATOM      7  C   UNL d   1      59.595  -3.725  28.545  0.00  0.00     0.001 A 
ATOM      8  C   UNL d   1      60.370  -3.555  28.765  0.00  0.00     0.000 A 
ATOM      9  C   UNL d   1      60.522  -2.929  29.285  0.00  0.00     0.001 A 
ATOM     10  C   UNL d   1      61.001  -4.019  28.459  0.00  0.00     0.000 C 
ATOM     11  C   UNL d   1      59.896  -2.480  29.579  0.00  0.00     0.013 A 
ENDBRANCH   2   5
ENDBRANCH   1   2
BRANCH   1  12
ATOM     12  C   UNL d   1      57.971  -0.924  30.140  0.00  0.00     0.112 A 
ATOM     13  C   UNL d   1      57.533  -0.562  30.740  0.00  0.00     0.103 A 
ATOM     14  C   UNL d   1      57.649   0.238  30.907  0.00  0.00     0.021 A 
ATOM     15  C   UNL d   1      58.201   0.673  30.475  0.00  0.00     0.002 A 
ATOM     16  C   UNL d   1      58.640   0.302  29.871  0.00  0.00     0.002 A 
ATOM     17  C   UNL d   1      58.531  -0.482  29.702  0.00  0.00     0.021 A 
BRANCH  13  18
ATOM     18  N   UNL d   1      56.979  -0.988  31.177  0.00  0.00    -0.206 NA
ATOM     19  C   UNL d   1      56.747  -0.708  31.918  0.00  0.00     0.280 C 
ATOM     20  O   UNL d   1      57.068  -0.015  32.207  0.00  0.00    -0.265 OA
ATOM     21  C   UNL d   1      56.195  -1.127  32.362  0.00  0.00     0.068 C 
ENDBRANCH  13  18
ENDBRANCH   1  12
TORSDOF 4
ENDMDL
