MODEL 1
REMARK VINA RESULT:      49.8      0.000      0.000
REMARK  6 active torsions:
REMARK  status: ('A' for Active; 'I' for Inactive)
REMARK    1  A    between atoms: C_21  and  N_1 
REMARK       I    between atoms: N_7  and  C_10 
REMARK    2  A    between atoms: C_15  and  N_8 
REMARK    3  A    between atoms: C_10  and  C_27 
REMARK    4  A    between atoms: C_29  and  C_21 
REMARK    5  A    between atoms: O_28  and  C_24 
REMARK    6  A    between atoms: C_27  and  C_29 
ROOT
ATOM      1  N   UNL d   1     -54.807-100.532 -43.091  0.00  0.00    -0.269 N 
ATOM      2  N   UNL d   1     -54.810-101.292 -41.646  0.00  0.00    -0.301 N 
ATOM      3  C   UNL d   1     -54.805-100.135 -43.827  0.00  0.00     0.265 C 
ATOM      4  C   UNL d   1     -54.888-101.343 -43.071  0.00  0.00     0.102 A 
ATOM      5  C   UNL d   1     -54.727-100.084 -42.407  0.00  0.00     0.102 A 
ATOM      6  C   UNL d   1     -54.890-101.736 -42.343  0.00  0.00     0.100 A 
ATOM      7  C   UNL d   1     -54.729-100.481 -41.671  0.00  0.00     0.100 A 
ATOM      8  O   UNL d   1     -54.884-100.558 -44.537  0.00  0.00    -0.267 OA
ENDROOT
BRANCH   3   9
ATOM      9  C   UNL d   1     -54.721 -99.306 -43.828  0.00  0.00     0.063 C 
BRANCH   9  10
ATOM     10  C   UNL d   1     -55.418 -98.839 -43.830  0.00  0.00     0.024 C 
BRANCH  10  11
ATOM     11  C   UNL d   1     -55.855 -98.772 -44.541  0.00  0.00     0.088 C 
BRANCH  11  12
ATOM     12  N   UNL d   1     -56.690 -98.774 -44.518  0.00  0.00    -0.224 N 
ATOM     13  C   UNL d   1     -57.096 -98.779 -43.787  0.00  0.00     0.276 A 
ATOM     14  C   UNL d   1     -57.921 -98.780 -43.782  0.00  0.00     0.104 A 
ATOM     15  O   UNL d   1     -56.676 -98.782 -43.093  0.00  0.00    -0.266 OA
ATOM     16  S   UNL d   1     -58.461 -98.785 -43.162  0.00  0.00    -0.080 SA
ATOM     17  C   UNL d   1     -58.349 -98.777 -44.490  0.00  0.00     0.097 A 
ATOM     18  C   UNL d   1     -59.200 -98.784 -43.487  0.00  0.00     0.037 A 
ATOM     19  C   UNL d   1     -59.146 -98.780 -44.306  0.00  0.00     0.027 A 
ATOM     20  N   UNL d   1     -57.948 -98.772 -45.210  0.00  0.00    -0.191 NA
ATOM     21  C   UNL d   1     -57.124 -98.771 -45.230  0.00  0.00     0.356 A 
ATOM     22  O   UNL d   1     -56.710 -98.766 -45.957  0.00  0.00    -0.244 OA
ENDBRANCH  11  12
ENDBRANCH  10  11
ENDBRANCH   9  10
ENDBRANCH   3   9
BRANCH   2  23
ATOM     23  C   UNL d   1     -54.810-101.672 -40.911  0.00  0.00     0.064 A 
ATOM     24  C   UNL d   1     -54.738-102.491 -40.844  0.00  0.00     0.020 A 
ATOM     25  C   UNL d   1     -54.740-102.855 -40.115  0.00  0.00     0.026 A 
ATOM     26  C   UNL d   1     -54.815-102.408 -39.427  0.00  0.00     0.094 A 
ATOM     27  C   UNL d   1     -54.887-101.583 -39.492  0.00  0.00     0.026 A 
ATOM     28  C   UNL d   1     -54.886-101.214 -40.230  0.00  0.00     0.020 A 
BRANCH  26  29
ATOM     29  O   UNL d   1     -54.820-102.750 -38.672  0.00  0.00    -0.328 OA
ATOM     30  C   UNL d   1     -54.882-102.255 -38.004  0.00  0.00     0.181 C 
ENDBRANCH  26  29
ENDBRANCH   2  23
TORSDOF 6
ENDMDL
