MODEL 1
REMARK VINA RESULT:      24.0      0.000      0.000
REMARK  4 active torsions:
REMARK  status: ('A' for Active; 'I' for Inactive)
REMARK    1  A    between atoms: C_6  and  C_1 
REMARK    2  A    between atoms: C_7  and  C_4 
REMARK    3  A    between atoms: O_10  and  C_6 
REMARK    4  A    between atoms: C_13  and  O_10 
ROOT
ATOM      1  C   UNL d   1     -50.886  25.088  33.730  0.00  0.00     0.112 A 
ATOM      2  S   UNL d   1     -51.723  25.074  33.708  0.00  0.00    -0.080 SA
ATOM      3  C   UNL d   1     -50.621  24.331  33.537  0.00  0.00     0.115 A 
ATOM      4  C   UNL d   1     -51.951  24.303  33.500  0.00  0.00     0.031 A 
ATOM      5  C   UNL d   1     -51.269  23.861  33.399  0.00  0.00     0.028 A 
ATOM      6  N   UNL d   1     -49.818  24.089  33.492  0.00  0.00    -0.147 N 
ENDROOT
BRANCH   4   7
ATOM      7  C   UNL d   1     -52.757  24.131  33.436  0.00  0.00     0.006 A 
ATOM      8  C   UNL d   1     -53.298  24.759  33.371  0.00  0.00     0.001 A 
ATOM      9  C   UNL d   1     -54.101  24.585  33.307  0.00  0.00     0.000 A 
ATOM     10  C   UNL d   1     -54.364  23.806  33.307  0.00  0.00     0.000 A 
ATOM     11  C   UNL d   1     -53.828  23.191  33.371  0.00  0.00     0.000 A 
ATOM     12  C   UNL d   1     -53.021  23.352  33.436  0.00  0.00     0.001 A 
ENDBRANCH   4   7
BRANCH   1  13
ATOM     13  C   UNL d   1     -50.402  25.748  33.915  0.00  0.00     0.308 C 
ATOM     14  O   UNL d   1     -49.963  25.787  34.626  0.00  0.00    -0.258 OA
BRANCH  13  15
ATOM     15  O   UNL d   1     -50.362  26.379  33.372  0.00  0.00    -0.271 OA
BRANCH  15  16
ATOM     16  C   UNL d   1     -50.998  26.922  33.310  0.00  0.00     0.126 C 
ATOM     17  C   UNL d   1     -50.865  27.714  33.500  0.00  0.00     0.029 C 
ENDBRANCH  15  16
ENDBRANCH  13  15
ENDBRANCH   1  13
TORSDOF 4
ENDMDL
