MODEL 1
REMARK VINA RESULT:      -2.0      0.000      0.000
REMARK  4 active torsions:
REMARK  status: ('A' for Active; 'I' for Inactive)
REMARK    1  A    between atoms: C_8  and  C_1 
REMARK    2  A    between atoms: C_10  and  C_7 
REMARK    3  A    between atoms: N_9  and  C_10 
REMARK    4  A    between atoms: O_23  and  C_15 
ROOT
ATOM      1  C   UNL d   1     -41.670-122.369 -53.642  0.00  0.00     0.064 A 
ATOM      2  C   UNL d   1     -41.490-122.570 -52.009  0.00  0.00     0.107 A 
ATOM      3  C   UNL d   1     -41.489-121.723 -53.162  0.00  0.00     0.199 A 
ATOM      4  C   UNL d   1     -41.398-121.819 -52.343  0.00  0.00     0.062 A 
ATOM      5  C   UNL d   1     -41.763-123.128 -53.304  0.00  0.00     0.103 A 
ATOM      6  O   UNL d   1     -41.672-123.228 -52.482  0.00  0.00    -0.307 OA
ATOM      7  C   UNL d   1     -41.401-122.673 -51.195  0.00  0.00     0.079 A 
ATOM      8  C   UNL d   1     -41.217-121.176 -51.861  0.00  0.00     0.009 A 
ATOM      9  C   UNL d   1     -41.221-122.030 -50.723  0.00  0.00     0.199 A 
ATOM     10  O   UNL d   1     -41.398-120.980 -53.493  0.00  0.00    -0.286 OA
ATOM     11  C   UNL d   1     -41.129-121.280 -51.058  0.00  0.00     0.042 A 
ATOM     12  C   UNL d   1     -41.944-123.774 -53.783  0.00  0.00     0.027 C 
ATOM     13  O   UNL d   1     -41.131-122.131 -49.903  0.00  0.00    -0.286 OA
ENDROOT
BRANCH   1  14
ATOM     14  C   UNL d   1     -41.759-122.265 -54.455  0.00  0.00     0.027 A 
ATOM     15  C   UNL d   1     -42.472-121.979 -54.761  0.00  0.00     0.094 A 
ATOM     16  C   UNL d   1     -42.553-121.878 -55.575  0.00  0.00     0.024 A 
ATOM     17  C   UNL d   1     -41.929-122.061 -56.083  0.00  0.00     0.002 A 
ATOM     18  C   UNL d   1     -41.218-122.348 -55.774  0.00  0.00     0.000 A 
ATOM     19  C   UNL d   1     -41.128-122.451 -54.961  0.00  0.00     0.002 A 
BRANCH  15  20
ATOM     20  O   UNL d   1     -43.095-121.796 -54.252  0.00  0.00    -0.328 OA
ATOM     21  C   UNL d   1     -43.875-121.847 -54.523  0.00  0.00     0.181 C 
ENDBRANCH  15  20
ENDBRANCH   1  14
BRANCH   7  22
ATOM     22  C   UNL d   1     -41.493-123.424 -50.860  0.00  0.00     0.086 C 
BRANCH  22  23
ATOM     23  N   UNL d   1     -41.956-123.522 -50.186  0.00  0.00    -0.300 N 
ATOM     24  C   UNL d   1     -41.598-123.701 -49.464  0.00  0.00     0.100 A 
ATOM     25  C   UNL d   1     -42.062-123.801 -48.776  0.00  0.00     0.100 A 
ATOM     26  N   UNL d   1     -42.876-123.721 -48.822  0.00  0.00    -0.299 N 
ATOM     27  C   UNL d   1     -43.233-123.539 -49.556  0.00  0.00     0.100 A 
ATOM     28  C   UNL d   1     -43.347-123.816 -48.155  0.00  0.00     0.100 C 
ATOM     29  C   UNL d   1     -42.770-123.441 -50.231  0.00  0.00     0.100 A 
ENDBRANCH  22  23
ENDBRANCH   7  22
TORSDOF 4
ENDMDL
