MODEL 1
REMARK VINA RESULT:      -6.1      0.000      0.000
REMARK  7 active torsions:
REMARK  status: ('A' for Active; 'I' for Inactive)
REMARK    1  A    between atoms: C_6  and  N_1 
REMARK    2  A    between atoms: C_7  and  C_6 
REMARK    3  A    between atoms: O_10  and  C_7 
REMARK    4  A    between atoms: C_13  and  O_10 
REMARK    5  A    between atoms: C_14  and  C_13 
REMARK    6  A    between atoms: C_16  and  C_14 
REMARK    7  A    between atoms: C_15  and  C_16 
ROOT
ATOM      1  N   UNL d   1     -49.514  14.294  23.097  0.00  0.00    -0.246 N 
ATOM      2  C   UNL d   1     -50.108  14.794  22.797  0.00  0.00     0.378 A 
ATOM      3  O   UNL d   1     -50.785  14.335  22.657  0.00  0.00    -0.258 OA
ATOM      4  C   UNL d   1     -49.827  13.530  23.141  0.00  0.00     0.092 A 
ATOM      5  C   UNL d   1     -50.612  13.557  22.869  0.00  0.00     0.121 A 
ATOM      6  O   UNL d   1     -50.026  15.603  22.667  0.00  0.00    -0.237 OA
ATOM      7  C   UNL d   1     -49.500  12.812  23.393  0.00  0.00     0.020 A 
ATOM      8  C   UNL d   1     -51.063  12.858  22.853  0.00  0.00     0.026 A 
ATOM      9  C   UNL d   1     -49.958  12.126  23.372  0.00  0.00     0.002 A 
ATOM     10  C   UNL d   1     -50.734  12.148  23.104  0.00  0.00     0.002 A 
ENDROOT
BRANCH   1  11
ATOM     11  C   UNL d   1     -48.742  14.481  23.323  0.00  0.00     0.154 C 
BRANCH  11  12
ATOM     12  C   UNL d   1     -48.182  14.657  22.754  0.00  0.00     0.318 C 
ATOM     13  O   UNL d   1     -48.267  15.331  22.284  0.00  0.00    -0.257 OA
BRANCH  12  14
ATOM     14  O   UNL d   1     -47.532  14.161  22.649  0.00  0.00    -0.270 OA
BRANCH  14  15
ATOM     15  C   UNL d   1     -46.717  14.269  22.597  0.00  0.00     0.126 C 
BRANCH  15  16
ATOM     16  C   UNL d   1     -46.210  13.623  22.630  0.00  0.00     0.027 C 
BRANCH  16  17
ATOM     17  C   UNL d   1     -45.510  13.616  22.194  0.00  0.00     0.002 C 
BRANCH  17  18
ATOM     18  C   UNL d   1     -45.112  12.909  22.059  0.00  0.00     0.000 C 
ATOM     19  C   UNL d   1     -44.321  12.921  21.840  0.00  0.00     0.000 C 
ENDBRANCH  17  18
ENDBRANCH  16  17
ENDBRANCH  15  16
ENDBRANCH  14  15
ENDBRANCH  12  14
ENDBRANCH  11  12
ENDBRANCH   1  11
TORSDOF 7
ENDMDL
MODEL 2
REMARK VINA RESULT:      -6.1      1.184      2.051
REMARK  7 active torsions:
REMARK  status: ('A' for Active; 'I' for Inactive)
REMARK    1  A    between atoms: C_6  and  N_1 
REMARK    2  A    between atoms: C_7  and  C_6 
REMARK    3  A    between atoms: O_10  and  C_7 
REMARK    4  A    between atoms: C_13  and  O_10 
REMARK    5  A    between atoms: C_14  and  C_13 
REMARK    6  A    between atoms: C_16  and  C_14 
REMARK    7  A    between atoms: C_15  and  C_16 
ROOT
ATOM      1  N   UNL d   1     -47.793  13.269  22.748  0.00  0.00    -0.246 N 
ATOM      2  C   UNL d   1     -47.964  14.076  22.853  0.00  0.00     0.378 A 
ATOM      3  O   UNL d   1     -48.744  14.140  23.132  0.00  0.00    -0.258 OA
ATOM      4  C   UNL d   1     -48.466  12.839  22.962  0.00  0.00     0.092 A 
ATOM      5  C   UNL d   1     -49.052  13.378  23.198  0.00  0.00     0.121 A 
ATOM      6  O   UNL d   1     -47.443  14.695  22.703  0.00  0.00    -0.237 OA
ATOM      7  C   UNL d   1     -48.622  12.025  22.972  0.00  0.00     0.020 A 
ATOM      8  C   UNL d   1     -49.794  13.092  23.444  0.00  0.00     0.026 A 
ATOM      9  C   UNL d   1     -49.362  11.755  23.218  0.00  0.00     0.002 A 
ATOM     10  C   UNL d   1     -49.944  12.285  23.453  0.00  0.00     0.002 A 
ENDROOT
BRANCH   1  11
ATOM     11  C   UNL d   1     -47.095  12.915  22.482  0.00  0.00     0.154 C 
BRANCH  11  12
ATOM     12  C   UNL d   1     -46.392  13.058  22.872  0.00  0.00     0.318 C 
ATOM     13  O   UNL d   1     -46.369  13.066  23.698  0.00  0.00    -0.257 OA
BRANCH  12  14
ATOM     14  O   UNL d   1     -45.702  13.196  22.441  0.00  0.00    -0.270 OA
BRANCH  14  15
ATOM     15  C   UNL d   1     -44.999  12.785  22.316  0.00  0.00     0.126 C 
BRANCH  15  16
ATOM     16  C   UNL d   1     -44.431  13.082  21.801  0.00  0.00     0.027 C 
BRANCH  16  17
ATOM     17  C   UNL d   1     -43.720  12.681  21.684  0.00  0.00     0.002 C 
BRANCH  17  18
ATOM     18  C   UNL d   1     -43.224  12.889  21.062  0.00  0.00     0.000 C 
ATOM     19  C   UNL d   1     -42.441  13.086  21.212  0.00  0.00     0.000 C 
ENDBRANCH  17  18
ENDBRANCH  16  17
ENDBRANCH  15  16
ENDBRANCH  14  15
ENDBRANCH  12  14
ENDBRANCH  11  12
ENDBRANCH   1  11
TORSDOF 7
ENDMDL
MODEL 3
REMARK VINA RESULT:      -5.8      1.791      4.011
REMARK  7 active torsions:
REMARK  status: ('A' for Active; 'I' for Inactive)
REMARK    1  A    between atoms: C_6  and  N_1 
REMARK    2  A    between atoms: C_7  and  C_6 
REMARK    3  A    between atoms: O_10  and  C_7 
REMARK    4  A    between atoms: C_13  and  O_10 
REMARK    5  A    between atoms: C_14  and  C_13 
REMARK    6  A    between atoms: C_16  and  C_14 
REMARK    7  A    between atoms: C_15  and  C_16 
ROOT
ATOM      1  N   UNL d   1     -46.567  13.069  22.606  0.00  0.00    -0.246 N 
ATOM      2  C   UNL d   1     -45.748  13.072  22.757  0.00  0.00     0.378 A 
ATOM      3  O   UNL d   1     -45.561  12.383  23.181  0.00  0.00    -0.258 OA
ATOM      4  C   UNL d   1     -46.880  12.379  22.937  0.00  0.00     0.092 A 
ATOM      5  C   UNL d   1     -46.259  11.956  23.292  0.00  0.00     0.121 A 
ATOM      6  O   UNL d   1     -45.225  13.662  22.521  0.00  0.00    -0.237 OA
ATOM      7  C   UNL d   1     -47.652  12.079  22.963  0.00  0.00     0.020 A 
ATOM      8  C   UNL d   1     -46.420  11.233  23.671  0.00  0.00     0.026 A 
ATOM      9  C   UNL d   1     -47.799  11.361  23.341  0.00  0.00     0.002 A 
ATOM     10  C   UNL d   1     -47.187  10.941  23.693  0.00  0.00     0.002 A 
ENDROOT
BRANCH   1  11
ATOM     11  C   UNL d   1     -47.024  13.627  22.205  0.00  0.00     0.154 C 
BRANCH  11  12
ATOM     12  C   UNL d   1     -47.191  14.345  22.557  0.00  0.00     0.318 C 
ATOM     13  O   UNL d   1     -46.637  14.703  23.054  0.00  0.00    -0.257 OA
BRANCH  12  14
ATOM     14  O   UNL d   1     -47.916  14.713  22.416  0.00  0.00    -0.270 OA
BRANCH  14  15
ATOM     15  C   UNL d   1     -48.377  15.268  22.814  0.00  0.00     0.126 C 
BRANCH  15  16
ATOM     16  C   UNL d   1     -49.181  15.332  22.653  0.00  0.00     0.027 C 
BRANCH  16  17
ATOM     17  C   UNL d   1     -49.708  15.573  23.239  0.00  0.00     0.002 C 
BRANCH  17  18
ATOM     18  C   UNL d   1     -50.519  15.552  23.103  0.00  0.00     0.000 C 
ATOM     19  C   UNL d   1     -50.927  14.844  23.178  0.00  0.00     0.000 C 
ENDBRANCH  17  18
ENDBRANCH  16  17
ENDBRANCH  15  16
ENDBRANCH  14  15
ENDBRANCH  12  14
ENDBRANCH  11  12
ENDBRANCH   1  11
TORSDOF 7
ENDMDL
MODEL 4
REMARK VINA RESULT:      -5.8      1.617      1.962
REMARK  7 active torsions:
REMARK  status: ('A' for Active; 'I' for Inactive)
REMARK    1  A    between atoms: C_6  and  N_1 
REMARK    2  A    between atoms: C_7  and  C_6 
REMARK    3  A    between atoms: O_10  and  C_7 
REMARK    4  A    between atoms: C_13  and  O_10 
REMARK    5  A    between atoms: C_14  and  C_13 
REMARK    6  A    between atoms: C_16  and  C_14 
REMARK    7  A    between atoms: C_15  and  C_16 
ROOT
ATOM      1  N   UNL d   1     -48.539  13.779  22.851  0.00  0.00    -0.246 N 
ATOM      2  C   UNL d   1     -48.455  14.501  22.445  0.00  0.00     0.378 A 
ATOM      3  O   UNL d   1     -49.088  14.573  21.913  0.00  0.00    -0.258 OA
ATOM      4  C   UNL d   1     -49.223  13.410  22.568  0.00  0.00     0.092 A 
ATOM      5  C   UNL d   1     -49.561  13.901  21.989  0.00  0.00     0.121 A 
ATOM      6  O   UNL d   1     -47.845  15.041  22.560  0.00  0.00    -0.237 OA
ATOM      7  C   UNL d   1     -49.582  12.689  22.761  0.00  0.00     0.020 A 
ATOM      8  C   UNL d   1     -50.261  13.662  21.608  0.00  0.00     0.026 A 
ATOM      9  C   UNL d   1     -50.277  12.463  22.377  0.00  0.00     0.002 A 
ATOM     10  C   UNL d   1     -50.614  12.947  21.804  0.00  0.00     0.002 A 
ENDROOT
BRANCH   1  11
ATOM     11  C   UNL d   1     -48.056  13.451  23.434  0.00  0.00     0.154 C 
BRANCH  11  12
ATOM     12  C   UNL d   1     -47.257  13.352  23.294  0.00  0.00     0.318 C 
ATOM     13  O   UNL d   1     -46.771  14.010  23.182  0.00  0.00    -0.257 OA
BRANCH  12  14
ATOM     14  O   UNL d   1     -46.935  12.593  23.264  0.00  0.00    -0.270 OA
BRANCH  14  15
ATOM     15  C   UNL d   1     -46.241  12.241  23.533  0.00  0.00     0.126 C 
BRANCH  15  16
ATOM     16  C   UNL d   1     -46.159  11.423  23.522  0.00  0.00     0.027 C 
BRANCH  16  17
ATOM     17  C   UNL d   1     -45.444  11.076  23.301  0.00  0.00     0.002 C 
BRANCH  17  18
ATOM     18  C   UNL d   1     -45.207  10.365  23.638  0.00  0.00     0.000 C 
ATOM     19  C   UNL d   1     -44.407  10.188  23.698  0.00  0.00     0.000 C 
ENDBRANCH  17  18
ENDBRANCH  16  17
ENDBRANCH  15  16
ENDBRANCH  14  15
ENDBRANCH  12  14
ENDBRANCH  11  12
ENDBRANCH   1  11
TORSDOF 7
ENDMDL
MODEL 5
REMARK VINA RESULT:      -4.7      9.450     10.051
REMARK  7 active torsions:
REMARK  status: ('A' for Active; 'I' for Inactive)
REMARK    1  A    between atoms: C_6  and  N_1 
REMARK    2  A    between atoms: C_7  and  C_6 
REMARK    3  A    between atoms: O_10  and  C_7 
REMARK    4  A    between atoms: C_13  and  O_10 
REMARK    5  A    between atoms: C_14  and  C_13 
REMARK    6  A    between atoms: C_16  and  C_14 
REMARK    7  A    between atoms: C_15  and  C_16 
ROOT
ATOM      1  N   UNL d   1     -40.006  14.481  18.444  0.00  0.00    -0.246 N 
ATOM      2  C   UNL d   1     -39.431  14.064  18.012  0.00  0.00     0.378 A 
ATOM      3  O   UNL d   1     -39.490  14.292  17.216  0.00  0.00    -0.258 OA
ATOM      4  C   UNL d   1     -40.418  14.964  17.914  0.00  0.00     0.092 A 
ATOM      5  C   UNL d   1     -40.098  14.847  17.156  0.00  0.00     0.121 A 
ATOM      6  O   UNL d   1     -38.900  13.521  18.329  0.00  0.00    -0.237 OA
ATOM      7  C   UNL d   1     -41.043  15.496  18.022  0.00  0.00     0.020 A 
ATOM      8  C   UNL d   1     -40.412  15.268  16.511  0.00  0.00     0.026 A 
ATOM      9  C   UNL d   1     -41.345  15.908  17.375  0.00  0.00     0.002 A 
ATOM     10  C   UNL d   1     -41.031  15.795  16.623  0.00  0.00     0.002 A 
ENDROOT
BRANCH   1  11
ATOM     11  C   UNL d   1     -40.173  14.450  19.253  0.00  0.00     0.154 C 
BRANCH  11  12
ATOM     12  C   UNL d   1     -39.609  14.688  19.794  0.00  0.00     0.318 C 
ATOM     13  O   UNL d   1     -39.186  15.387  19.673  0.00  0.00    -0.257 OA
BRANCH  12  14
ATOM     14  O   UNL d   1     -39.462  14.228  20.463  0.00  0.00    -0.270 OA
BRANCH  14  15
ATOM     15  C   UNL d   1     -39.345  14.381  21.264  0.00  0.00     0.126 C 
BRANCH  15  16
ATOM     16  C   UNL d   1     -39.305  13.763  21.803  0.00  0.00     0.027 C 
BRANCH  16  17
ATOM     17  C   UNL d   1     -38.765  13.784  22.427  0.00  0.00     0.002 C 
BRANCH  17  18
ATOM     18  C   UNL d   1     -38.841  13.265  23.060  0.00  0.00     0.000 C 
ATOM     19  C   UNL d   1     -38.278  13.263  23.657  0.00  0.00     0.000 C 
ENDBRANCH  17  18
ENDBRANCH  16  17
ENDBRANCH  15  16
ENDBRANCH  14  15
ENDBRANCH  12  14
ENDBRANCH  11  12
ENDBRANCH   1  11
TORSDOF 7
ENDMDL
MODEL 6
REMARK VINA RESULT:      -4.7      9.261     10.539
REMARK  7 active torsions:
REMARK  status: ('A' for Active; 'I' for Inactive)
REMARK    1  A    between atoms: C_6  and  N_1 
REMARK    2  A    between atoms: C_7  and  C_6 
REMARK    3  A    between atoms: O_10  and  C_7 
REMARK    4  A    between atoms: C_13  and  O_10 
REMARK    5  A    between atoms: C_14  and  C_13 
REMARK    6  A    between atoms: C_16  and  C_14 
REMARK    7  A    between atoms: C_15  and  C_16 
ROOT
ATOM      1  N   UNL d   1     -40.022  15.287  17.874  0.00  0.00    -0.246 N 
ATOM      2  C   UNL d   1     -40.529  15.027  17.267  0.00  0.00     0.378 A 
ATOM      3  O   UNL d   1     -40.114  15.067  16.549  0.00  0.00    -0.258 OA
ATOM      4  C   UNL d   1     -39.297  15.485  17.527  0.00  0.00     0.092 A 
ATOM      5  C   UNL d   1     -39.355  15.349  16.710  0.00  0.00     0.121 A 
ATOM      6  O   UNL d   1     -41.306  14.777  17.373  0.00  0.00    -0.237 OA
ATOM      7  C   UNL d   1     -38.591  15.772  17.850  0.00  0.00     0.020 A 
ATOM      8  C   UNL d   1     -38.699  15.504  16.222  0.00  0.00     0.026 A 
ATOM      9  C   UNL d   1     -37.947  15.922  17.356  0.00  0.00     0.002 A 
ATOM     10  C   UNL d   1     -38.001  15.789  16.547  0.00  0.00     0.002 A 
ENDROOT
BRANCH   1  11
ATOM     11  C   UNL d   1     -40.170  15.351  18.683  0.00  0.00     0.154 C 
BRANCH  11  12
ATOM     12  C   UNL d   1     -40.222  14.678  19.143  0.00  0.00     0.318 C 
ATOM     13  O   UNL d   1     -40.702  14.050  18.905  0.00  0.00    -0.257 OA
BRANCH  12  14
ATOM     14  O   UNL d   1     -39.794  14.625  19.846  0.00  0.00    -0.270 OA
BRANCH  14  15
ATOM     15  C   UNL d   1     -39.874  14.204  20.549  0.00  0.00     0.126 C 
BRANCH  15  16
ATOM     16  C   UNL d   1     -39.273  14.214  21.110  0.00  0.00     0.027 C 
BRANCH  16  17
ATOM     17  C   UNL d   1     -39.370  13.835  21.836  0.00  0.00     0.002 C 
BRANCH  17  18
ATOM     18  C   UNL d   1     -38.730  13.736  22.342  0.00  0.00     0.000 C 
ATOM     19  C   UNL d   1     -38.851  13.470  23.109  0.00  0.00     0.000 C 
ENDBRANCH  17  18
ENDBRANCH  16  17
ENDBRANCH  15  16
ENDBRANCH  14  15
ENDBRANCH  12  14
ENDBRANCH  11  12
ENDBRANCH   1  11
TORSDOF 7
ENDMDL
MODEL 7
REMARK VINA RESULT:      -4.6      9.196     11.213
REMARK  7 active torsions:
REMARK  status: ('A' for Active; 'I' for Inactive)
REMARK    1  A    between atoms: C_6  and  N_1 
REMARK    2  A    between atoms: C_7  and  C_6 
REMARK    3  A    between atoms: O_10  and  C_7 
REMARK    4  A    between atoms: C_13  and  O_10 
REMARK    5  A    between atoms: C_14  and  C_13 
REMARK    6  A    between atoms: C_16  and  C_14 
REMARK    7  A    between atoms: C_15  and  C_16 
ROOT
ATOM      1  N   UNL d   1     -38.942  13.952  17.331  0.00  0.00    -0.246 N 
ATOM      2  C   UNL d   1     -38.832  13.127  17.323  0.00  0.00     0.378 A 
ATOM      3  O   UNL d   1     -38.457  12.924  16.611  0.00  0.00    -0.258 OA
ATOM      4  C   UNL d   1     -38.634  14.253  16.625  0.00  0.00     0.092 A 
ATOM      5  C   UNL d   1     -38.335  13.617  16.181  0.00  0.00     0.121 A 
ATOM      6  O   UNL d   1     -39.061  12.613  17.924  0.00  0.00    -0.237 OA
ATOM      7  C   UNL d   1     -38.587  15.025  16.327  0.00  0.00     0.020 A 
ATOM      8  C   UNL d   1     -37.989  13.764  15.439  0.00  0.00     0.026 A 
ATOM      9  C   UNL d   1     -38.242  15.157  15.590  0.00  0.00     0.002 A 
ATOM     10  C   UNL d   1     -37.945  14.530  15.148  0.00  0.00     0.002 A 
ENDROOT
BRANCH   1  11
ATOM     11  C   UNL d   1     -39.288  14.425  17.913  0.00  0.00     0.154 C 
BRANCH  11  12
ATOM     12  C   UNL d   1     -40.015  14.223  18.224  0.00  0.00     0.318 C 
ATOM     13  O   UNL d   1     -40.636  14.010  17.722  0.00  0.00    -0.257 OA
BRANCH  12  14
ATOM     14  O   UNL d   1     -40.130  14.230  19.040  0.00  0.00    -0.270 OA
BRANCH  14  15
ATOM     15  C   UNL d   1     -40.470  14.753  19.578  0.00  0.00     0.126 C 
BRANCH  15  16
ATOM     16  C   UNL d   1     -40.323  14.674  20.383  0.00  0.00     0.027 C 
BRANCH  16  17
ATOM     17  C   UNL d   1     -40.296  15.338  20.872  0.00  0.00     0.002 C 
BRANCH  17  18
ATOM     18  C   UNL d   1     -40.038  15.270  21.650  0.00  0.00     0.000 C 
ATOM     19  C   UNL d   1     -39.662  15.904  22.012  0.00  0.00     0.000 C 
ENDBRANCH  17  18
ENDBRANCH  16  17
ENDBRANCH  15  16
ENDBRANCH  14  15
ENDBRANCH  12  14
ENDBRANCH  11  12
ENDBRANCH   1  11
TORSDOF 7
ENDMDL
MODEL 8
REMARK VINA RESULT:      -3.8      6.847      9.774
REMARK  7 active torsions:
REMARK  status: ('A' for Active; 'I' for Inactive)
REMARK    1  A    between atoms: C_6  and  N_1 
REMARK    2  A    between atoms: C_7  and  C_6 
REMARK    3  A    between atoms: O_10  and  C_7 
REMARK    4  A    between atoms: C_13  and  O_10 
REMARK    5  A    between atoms: C_14  and  C_13 
REMARK    6  A    between atoms: C_16  and  C_14 
REMARK    7  A    between atoms: C_15  and  C_16 
ROOT
ATOM      1  N   UNL d   1     -39.713  15.775  18.894  0.00  0.00    -0.246 N 
ATOM      2  C   UNL d   1     -38.891  15.660  18.826  0.00  0.00     0.378 A 
ATOM      3  O   UNL d   1     -38.712  15.545  18.024  0.00  0.00    -0.258 OA
ATOM      4  C   UNL d   1     -40.036  15.730  18.134  0.00  0.00     0.092 A 
ATOM      5  C   UNL d   1     -39.418  15.587  17.598  0.00  0.00     0.121 A 
ATOM      6  O   UNL d   1     -38.358  15.664  19.453  0.00  0.00    -0.237 OA
ATOM      7  C   UNL d   1     -40.815  15.799  17.860  0.00  0.00     0.020 A 
ATOM      8  C   UNL d   1     -39.589  15.516  16.787  0.00  0.00     0.026 A 
ATOM      9  C   UNL d   1     -40.971  15.726  17.053  0.00  0.00     0.002 A 
ATOM     10  C   UNL d   1     -40.362  15.586  16.520  0.00  0.00     0.002 A 
ENDROOT
BRANCH   1  11
ATOM     11  C   UNL d   1     -40.165  15.912  19.571  0.00  0.00     0.154 C 
BRANCH  11  12
ATOM     12  C   UNL d   1     -40.138  15.382  20.193  0.00  0.00     0.318 C 
ATOM     13  O   UNL d   1     -39.515  15.408  20.734  0.00  0.00    -0.257 OA
BRANCH  12  14
ATOM     14  O   UNL d   1     -40.735  14.820  20.279  0.00  0.00    -0.270 OA
BRANCH  14  15
ATOM     15  C   UNL d   1     -41.121  14.470  20.918  0.00  0.00     0.126 C 
BRANCH  15  16
ATOM     16  C   UNL d   1     -41.532  13.765  20.819  0.00  0.00     0.027 C 
BRANCH  16  17
ATOM     17  C   UNL d   1     -42.290  13.673  21.132  0.00  0.00     0.002 C 
BRANCH  17  18
ATOM     18  C   UNL d   1     -42.550  12.933  21.378  0.00  0.00     0.000 C 
ATOM     19  C   UNL d   1     -43.354  12.769  21.397  0.00  0.00     0.000 C 
ENDBRANCH  17  18
ENDBRANCH  16  17
ENDBRANCH  15  16
ENDBRANCH  14  15
ENDBRANCH  12  14
ENDBRANCH  11  12
ENDBRANCH   1  11
TORSDOF 7
ENDMDL
