MODEL 1
REMARK VINA RESULT:      60.4      0.000      0.000
REMARK  4 active torsions:
REMARK  status: ('A' for Active; 'I' for Inactive)
REMARK       I    between atoms: N_2  and  C_1 
REMARK    1  A    between atoms: C_4  and  C_1 
REMARK    2  A    between atoms: C_14  and  N_3 
REMARK    3  A    between atoms: C_5  and  C_6 
REMARK    4  A    between atoms: C_17  and  C_14 
ROOT
ATOM      1  C   UNL d   1     -50.060  24.845  33.382  0.00  0.00     0.265 C 
ATOM      2  N   UNL d   1     -49.847  25.630  33.459  0.00  0.00    -0.269 N 
ATOM      3  N   UNL d   1     -49.412  27.206  33.615  0.00  0.00    -0.300 N 
ATOM      4  O   UNL d   1     -49.476  24.269  33.318  0.00  0.00    -0.267 OA
ATOM      5  C   UNL d   1     -50.421  26.211  33.523  0.00  0.00     0.102 A 
ATOM      6  C   UNL d   1     -49.041  25.841  33.474  0.00  0.00     0.102 A 
ATOM      7  C   UNL d   1     -48.829  26.628  33.552  0.00  0.00     0.100 A 
ATOM      8  C   UNL d   1     -50.197  27.001  33.601  0.00  0.00     0.100 A 
ENDROOT
BRANCH   1   9
ATOM      9  C   UNL d   1     -50.867  24.633  33.367  0.00  0.00     0.057 A 
ATOM     10  C   UNL d   1     -51.080  23.849  33.320  0.00  0.00     0.004 A 
ATOM     11  C   UNL d   1     -51.887  23.637  33.306  0.00  0.00    -0.004 A 
ATOM     12  C   UNL d   1     -52.459  24.216  33.339  0.00  0.00    -0.023 A 
ATOM     13  C   UNL d   1     -52.248  25.010  33.387  0.00  0.00    -0.004 A 
ATOM     14  C   UNL d   1     -51.441  25.221  33.401  0.00  0.00     0.004 A 
BRANCH  12  15
ATOM     15  C   UNL d   1     -53.254  24.007  33.325  0.00  0.00     0.019 C 
ATOM     16  C   UNL d   1     -53.045  23.210  33.334  0.00  0.00     0.004 C 
ATOM     17  C   UNL d   1     -54.054  23.798  33.311  0.00  0.00     0.004 C 
ATOM     18  C   UNL d   1     -53.465  24.814  33.315  0.00  0.00     0.004 C 
ENDBRANCH  12  15
ENDBRANCH   1   9
BRANCH   3  19
ATOM     19  C   UNL d   1     -49.206  27.997  33.694  0.00  0.00     0.080 C 
BRANCH  19  20
ATOM     20  C   UNL d   1     -49.043  28.314  34.433  0.00  0.00     0.018 A 
ATOM     21  C   UNL d   1     -49.013  27.824  35.117  0.00  0.00     0.002 A 
ATOM     22  C   UNL d   1     -48.849  28.157  35.850  0.00  0.00     0.000 A 
ATOM     23  C   UNL d   1     -48.713  28.978  35.920  0.00  0.00     0.000 A 
ATOM     24  C   UNL d   1     -48.744  29.459  35.243  0.00  0.00     0.000 A 
ATOM     25  C   UNL d   1     -48.909  29.127  34.502  0.00  0.00     0.002 A 
ENDBRANCH  19  20
ENDBRANCH   3  19
TORSDOF 4
ENDMDL
