MODEL 1
REMARK VINA RESULT:      -4.9      0.000      0.000
REMARK  2 active torsions:
REMARK  status: ('A' for Active; 'I' for Inactive)
REMARK    1  A    between atoms: C_3  and  C_1 
REMARK       I    between atoms: C_2  and  N_4 
REMARK    2  A    between atoms: N_4  and  C_9 
ROOT
ATOM      1  C   UNL d   1     -41.894-122.209 -54.902  0.00  0.00     0.065 A 
ATOM      2  C   UNL d   1     -42.387-122.097 -54.251  0.00  0.00     0.008 A 
ATOM      3  C   UNL d   1     -41.275-122.748 -54.860  0.00  0.00     0.008 A 
ATOM      4  C   UNL d   1     -41.636-123.070 -53.509  0.00  0.00     0.085 A 
ATOM      5  C   UNL d   1     -42.257-122.530 -53.551  0.00  0.00     0.019 A 
ATOM      6  C   UNL d   1     -41.146-123.177 -54.166  0.00  0.00     0.019 A 
ENDROOT
BRANCH   4   7
ATOM      7  N   UNL d   1     -41.505-123.501 -52.817  0.00  0.00    -0.208 NA
ATOM      8  C   UNL d   1     -41.255-123.109 -52.133  0.00  0.00     0.279 C 
ATOM      9  O   UNL d   1     -41.124-123.540 -51.443  0.00  0.00    -0.265 OA
ATOM     10  C   UNL d   1     -41.139-122.295 -52.144  0.00  0.00     0.068 C 
ENDBRANCH   4   7
BRANCH   1  11
ATOM     11  C   UNL d   1     -42.024-121.777 -55.599  0.00  0.00     0.211 C 
ATOM     12  O   UNL d   1     -41.486-121.198 -55.830  0.00  0.00    -0.644 OA
ATOM     13  O   UNL d   1     -42.688-121.928 -56.060  0.00  0.00    -0.644 OA
ENDBRANCH   1  11
TORSDOF 2
ENDMDL
MODEL 2
REMARK VINA RESULT:      -4.6      0.901      3.336
REMARK  2 active torsions:
REMARK  status: ('A' for Active; 'I' for Inactive)
REMARK    1  A    between atoms: C_3  and  C_1 
REMARK       I    between atoms: C_2  and  N_4 
REMARK    2  A    between atoms: N_4  and  C_9 
ROOT
ATOM      1  C   UNL d   1     -41.159-122.890 -52.147  0.00  0.00     0.065 A 
ATOM      2  C   UNL d   1     -41.159-122.114 -52.422  0.00  0.00     0.008 A 
ATOM      3  C   UNL d   1     -41.164-123.515 -52.682  0.00  0.00     0.008 A 
ATOM      4  C   UNL d   1     -41.171-122.588 -53.777  0.00  0.00     0.085 A 
ATOM      5  C   UNL d   1     -41.166-121.962 -53.241  0.00  0.00     0.019 A 
ATOM      6  C   UNL d   1     -41.171-123.365 -53.493  0.00  0.00     0.019 A 
ENDROOT
BRANCH   4   7
ATOM      7  N   UNL d   1     -41.178-122.441 -54.589  0.00  0.00    -0.208 NA
ATOM      8  C   UNL d   1     -41.863-122.147 -54.945  0.00  0.00     0.279 C 
ATOM      9  O   UNL d   1     -41.868-122.000 -55.757  0.00  0.00    -0.265 OA
ATOM     10  C   UNL d   1     -42.534-122.001 -54.492  0.00  0.00     0.068 C 
ENDBRANCH   4   7
BRANCH   1  11
ATOM     11  C   UNL d   1     -41.152-123.042 -51.331  0.00  0.00     0.211 C 
ATOM     12  O   UNL d   1     -41.123-123.817 -51.056  0.00  0.00    -0.644 OA
ATOM     13  O   UNL d   1     -41.175-122.417 -50.796  0.00  0.00    -0.644 OA
ENDBRANCH   1  11
TORSDOF 2
ENDMDL
MODEL 3
REMARK VINA RESULT:      -4.4      1.843      2.759
REMARK  2 active torsions:
REMARK  status: ('A' for Active; 'I' for Inactive)
REMARK    1  A    between atoms: C_3  and  C_1 
REMARK       I    between atoms: C_2  and  N_4 
REMARK    2  A    between atoms: N_4  and  C_9 
ROOT
ATOM      1  C   UNL d   1     -41.197-122.793 -52.520  0.00  0.00     0.065 A 
ATOM      2  C   UNL d   1     -41.235-123.546 -52.189  0.00  0.00     0.008 A 
ATOM      3  C   UNL d   1     -41.141-122.133 -52.032  0.00  0.00     0.008 A 
ATOM      4  C   UNL d   1     -41.160-122.978 -50.873  0.00  0.00     0.085 A 
ATOM      5  C   UNL d   1     -41.217-123.639 -51.361  0.00  0.00     0.019 A 
ATOM      6  C   UNL d   1     -41.123-122.225 -51.213  0.00  0.00     0.019 A 
ENDROOT
BRANCH   4   7
ATOM      7  N   UNL d   1     -41.141-123.066 -50.053  0.00  0.00    -0.208 NA
ATOM      8  C   UNL d   1     -41.849-123.052 -49.624  0.00  0.00     0.279 C 
ATOM      9  O   UNL d   1     -41.829-123.140 -48.804  0.00  0.00    -0.265 OA
ATOM     10  C   UNL d   1     -42.565-122.951 -50.015  0.00  0.00     0.068 C 
ENDBRANCH   4   7
BRANCH   1  11
ATOM     11  C   UNL d   1     -41.216-122.700 -53.345  0.00  0.00     0.211 C 
ATOM     12  O   UNL d   1     -41.261-123.362 -53.832  0.00  0.00    -0.644 OA
ATOM     13  O   UNL d   1     -41.190-121.948 -53.675  0.00  0.00    -0.644 OA
ENDBRANCH   1  11
TORSDOF 2
ENDMDL
MODEL 4
REMARK VINA RESULT:      -4.0      2.756      5.136
REMARK  2 active torsions:
REMARK  status: ('A' for Active; 'I' for Inactive)
REMARK    1  A    between atoms: C_3  and  C_1 
REMARK       I    between atoms: C_2  and  N_4 
REMARK    2  A    between atoms: N_4  and  C_9 
ROOT
ATOM      1  C   UNL d   1     -42.334-123.132 -48.985  0.00  0.00     0.065 A 
ATOM      2  C   UNL d   1     -41.669-123.496 -49.307  0.00  0.00     0.008 A 
ATOM      3  C   UNL d   1     -42.832-122.688 -49.467  0.00  0.00     0.008 A 
ATOM      4  C   UNL d   1     -41.999-122.970 -50.601  0.00  0.00     0.085 A 
ATOM      5  C   UNL d   1     -41.501-123.415 -50.118  0.00  0.00     0.019 A 
ATOM      6  C   UNL d   1     -42.665-122.607 -50.270  0.00  0.00     0.019 A 
ENDROOT
BRANCH   4   7
ATOM      7  N   UNL d   1     -41.835-122.886 -51.405  0.00  0.00    -0.208 NA
ATOM      8  C   UNL d   1     -41.395-122.237 -51.667  0.00  0.00     0.279 C 
ATOM      9  O   UNL d   1     -41.232-122.155 -52.472  0.00  0.00    -0.265 OA
ATOM     10  C   UNL d   1     -41.123-121.679 -51.128  0.00  0.00     0.068 C 
ENDBRANCH   4   7
BRANCH   1  11
ATOM     11  C   UNL d   1     -42.502-123.213 -48.176  0.00  0.00     0.211 C 
ATOM     12  O   UNL d   1     -42.999-123.817 -47.917  0.00  0.00    -0.644 OA
ATOM     13  O   UNL d   1     -42.173-122.691 -47.633  0.00  0.00    -0.644 OA
ENDBRANCH   1  11
TORSDOF 2
ENDMDL
