MODEL 1
REMARK VINA RESULT:      -0.2      0.000      0.000
REMARK  8 active torsions:
REMARK  status: ('A' for Active; 'I' for Inactive)
REMARK    1  A    between atoms: N_7  and  N_1 
REMARK    2  A    between atoms: S_9  and  C_2 
REMARK       I    between atoms: C_8  and  N_7 
REMARK    3  A    between atoms: C_21  and  C_8 
REMARK    4  A    between atoms: C_20  and  S_9 
REMARK    5  A    between atoms: C_10  and  C_20 
REMARK       I    between atoms: N_14  and  C_10 
REMARK    6  A    between atoms: C_12  and  C_22 
REMARK    7  A    between atoms: C_22  and  N_14 
REMARK    8  A    between atoms: C_24  and  C_21 
ROOT
ATOM      1  N   UNL d   1      58.208  -0.518  30.541  0.00  0.00    -0.168 N 
ATOM      2  C   UNL d   1      58.525  -1.020  29.979  0.00  0.00     0.199 A 
ATOM      3  C   UNL d   1      58.697   0.044  30.924  0.00  0.00     0.283 A 
ATOM      4  N   UNL d   1      59.341  -0.977  29.781  0.00  0.00    -0.221 NA
ATOM      5  C   UNL d   1      59.513   0.082  30.722  0.00  0.00     0.076 A 
ATOM      6  C   UNL d   1      59.825  -0.429  30.153  0.00  0.00     0.088 A 
ATOM      7  O   UNL d   1      58.376   0.551  31.492  0.00  0.00    -0.265 OA
ATOM      8  C   UNL d   1      59.992   0.640  31.103  0.00  0.00     0.006 A 
ATOM      9  C   UNL d   1      60.632  -0.374  29.969  0.00  0.00     0.019 A 
ATOM     10  C   UNL d   1      60.792   0.681  30.908  0.00  0.00     0.000 A 
ATOM     11  C   UNL d   1      61.112   0.173  30.340  0.00  0.00     0.002 A 
ENDROOT
BRANCH   2  12
ATOM     12  S   UNL d   1      58.058  -1.564  29.606  0.00  0.00    -0.043 SA
BRANCH  12  13
ATOM     13  C   UNL d   1      58.262  -1.849  28.861  0.00  0.00     0.101 C 
BRANCH  13  14
ATOM     14  C   UNL d   1      58.407  -2.653  28.752  0.00  0.00     0.286 C 
ATOM     15  N   UNL d   1      59.168  -2.915  28.584  0.00  0.00    -0.204 NA
ATOM     16  O   UNL d   1      57.786  -3.199  28.810  0.00  0.00    -0.265 OA
BRANCH  15  17
ATOM     17  C   UNL d   1      59.306  -3.722  28.476  0.00  0.00     0.127 C 
BRANCH  17  18
ATOM     18  C   UNL d   1      59.990  -4.062  28.805  0.00  0.00     0.119 A 
ATOM     19  O   UNL d   1      60.551  -3.677  29.261  0.00  0.00    -0.304 OA
ATOM     20  C   UNL d   1      61.133  -4.225  29.470  0.00  0.00     0.123 A 
ATOM     21  C   UNL d   1      60.928  -4.956  29.139  0.00  0.00     0.029 A 
ATOM     22  C   UNL d   1      60.216  -4.854  28.726  0.00  0.00     0.028 A 
ENDBRANCH  17  18
ENDBRANCH  15  17
ENDBRANCH  13  14
ENDBRANCH  12  13
ENDBRANCH   2  12
BRANCH   1  23
ATOM     23  N   UNL d   1      57.422  -0.557  30.734  0.00  0.00    -0.119 NA
ATOM     24  C   UNL d   1      57.189  -0.878  31.463  0.00  0.00     0.296 C 
ATOM     25  O   UNL d   1      57.761  -1.155  31.987  0.00  0.00    -0.264 OA
BRANCH  24  26
ATOM     26  C   UNL d   1      56.389  -0.918  31.659  0.00  0.00     0.064 C 
BRANCH  26  27
ATOM     27  C   UNL d   1      56.148  -0.731  32.420  0.00  0.00     0.005 A 
ATOM     28  C   UNL d   1      55.853   0.016  32.571  0.00  0.00     0.000 A 
ATOM     29  C   UNL d   1      55.610   0.204  33.338  0.00  0.00     0.000 A 
ATOM     30  C   UNL d   1      55.666  -0.353  33.936  0.00  0.00     0.000 A 
ATOM     31  C   UNL d   1      55.966  -1.100  33.767  0.00  0.00     0.000 A 
ATOM     32  C   UNL d   1      56.203  -1.284  33.016  0.00  0.00     0.000 A 
ENDBRANCH  26  27
ENDBRANCH  24  26
ENDBRANCH   1  23
TORSDOF 8
ENDMDL
MODEL 2
REMARK VINA RESULT:       2.0      1.636      4.342
REMARK  8 active torsions:
REMARK  status: ('A' for Active; 'I' for Inactive)
REMARK    1  A    between atoms: N_7  and  N_1 
REMARK    2  A    between atoms: S_9  and  C_2 
REMARK       I    between atoms: C_8  and  N_7 
REMARK    3  A    between atoms: C_21  and  C_8 
REMARK    4  A    between atoms: C_20  and  S_9 
REMARK    5  A    between atoms: C_10  and  C_20 
REMARK       I    between atoms: N_14  and  C_10 
REMARK    6  A    between atoms: C_12  and  C_22 
REMARK    7  A    between atoms: C_22  and  N_14 
REMARK    8  A    between atoms: C_24  and  C_21 
ROOT
ATOM      1  N   UNL d   1      57.068  -0.295  31.557  0.00  0.00    -0.168 N 
ATOM      2  C   UNL d   1      57.646   0.114  31.967  0.00  0.00     0.199 A 
ATOM      3  C   UNL d   1      56.354  -0.508  31.941  0.00  0.00     0.283 A 
ATOM      4  N   UNL d   1      57.529   0.325  32.772  0.00  0.00    -0.221 NA
ATOM      5  C   UNL d   1      56.243  -0.294  32.748  0.00  0.00     0.076 A 
ATOM      6  C   UNL d   1      56.832   0.119  33.153  0.00  0.00     0.088 A 
ATOM      7  O   UNL d   1      55.770  -0.921  31.528  0.00  0.00    -0.265 OA
ATOM      8  C   UNL d   1      55.536  -0.507  33.122  0.00  0.00     0.006 A 
ATOM      9  C   UNL d   1      56.702   0.319  33.947  0.00  0.00     0.019 A 
ATOM     10  C   UNL d   1      55.423  -0.300  33.912  0.00  0.00     0.000 A 
ATOM     11  C   UNL d   1      56.007   0.114  34.325  0.00  0.00     0.002 A 
ENDROOT
BRANCH   2  12
ATOM     12  S   UNL d   1      58.336   0.322  31.601  0.00  0.00    -0.043 SA
BRANCH  12  13
ATOM     13  C   UNL d   1      58.981   0.576  32.044  0.00  0.00     0.101 C 
BRANCH  13  14
ATOM     14  C   UNL d   1      59.739   0.554  31.719  0.00  0.00     0.286 C 
ATOM     15  N   UNL d   1      59.837   0.485  30.906  0.00  0.00    -0.204 NA
ATOM     16  O   UNL d   1      60.404   0.602  32.213  0.00  0.00    -0.265 OA
BRANCH  15  17
ATOM     17  C   UNL d   1      60.599   0.464  30.588  0.00  0.00     0.127 C 
BRANCH  17  18
ATOM     18  C   UNL d   1      60.696   0.269  29.785  0.00  0.00     0.119 A 
ATOM     19  O   UNL d   1      60.380   0.674  29.147  0.00  0.00    -0.304 OA
ATOM     20  C   UNL d   1      60.617   0.288  28.456  0.00  0.00     0.123 A 
ATOM     21  C   UNL d   1      61.084  -0.361  28.671  0.00  0.00     0.029 A 
ATOM     22  C   UNL d   1      61.133  -0.373  29.498  0.00  0.00     0.028 A 
ENDBRANCH  17  18
ENDBRANCH  15  17
ENDBRANCH  13  14
ENDBRANCH  12  13
ENDBRANCH   2  12
BRANCH   1  23
ATOM     23  N   UNL d   1      57.177  -0.499  30.781  0.00  0.00    -0.119 NA
ATOM     24  C   UNL d   1      57.474  -1.250  30.588  0.00  0.00     0.296 C 
ATOM     25  O   UNL d   1      57.655  -1.784  31.188  0.00  0.00    -0.264 OA
BRANCH  24  26
ATOM     26  C   UNL d   1      57.585  -1.458  29.797  0.00  0.00     0.064 C 
BRANCH  26  27
ATOM     27  C   UNL d   1      58.078  -2.085  29.609  0.00  0.00     0.005 A 
ATOM     28  C   UNL d   1      57.988  -2.458  28.886  0.00  0.00     0.000 A 
ATOM     29  C   UNL d   1      58.485  -3.090  28.696  0.00  0.00     0.000 A 
ATOM     30  C   UNL d   1      59.058  -3.336  29.227  0.00  0.00     0.000 A 
ATOM     31  C   UNL d   1      59.136  -2.951  29.949  0.00  0.00     0.000 A 
ATOM     32  C   UNL d   1      58.649  -2.332  30.135  0.00  0.00     0.000 A 
ENDBRANCH  26  27
ENDBRANCH  24  26
ENDBRANCH   1  23
TORSDOF 8
ENDMDL
