MODEL 1
REMARK VINA RESULT:      43.9      0.000      0.000
REMARK  3 active torsions:
REMARK  status: ('A' for Active; 'I' for Inactive)
REMARK       I    between atoms: N_2  and  C_1 
REMARK    1  A    between atoms: C_8  and  C_1 
REMARK    2  A    between atoms: C_6  and  N_2 
REMARK    3  A    between atoms: N_4  and  C_8 
ROOT
ATOM      1  N   UNL d   1     -55.021-100.027 -41.917  0.00  0.00    -0.191 NA
ATOM      2  C   UNL d   1     -55.027-100.503 -42.556  0.00  0.00     0.102 C 
ATOM      3  C   UNL d   1     -55.364-100.723 -43.924  0.00  0.00     0.094 A 
ATOM      4  C   UNL d   1     -55.031-100.995 -43.210  0.00  0.00     0.086 A 
ATOM      5  C   UNL d   1     -54.711-101.760 -43.175  0.00  0.00     0.012 A 
ATOM      6  C   UNL d   1     -55.371-101.211 -44.580  0.00  0.00     0.020 A 
ATOM      7  C   UNL d   1     -54.721-102.250 -43.844  0.00  0.00     0.001 A 
ATOM      8  C   UNL d   1     -55.050-101.974 -44.541  0.00  0.00     0.002 A 
ENDROOT
BRANCH   3   9
ATOM      9  N   UNL d   1     -55.682 -99.965 -43.962  0.00  0.00    -0.206 NA
ATOM     10  C   UNL d   1     -56.327 -99.848 -44.445  0.00  0.00     0.297 C 
ATOM     11  O   UNL d   1     -56.646-100.478 -44.880  0.00  0.00    -0.264 OA
BRANCH  10  12
ATOM     12  C   UNL d   1     -56.685 -99.098 -44.517  0.00  0.00     0.144 C 
BRANCH  12  13
ATOM     13  N   UNL d   1     -57.484 -99.012 -44.637  0.00  0.00    -0.299 N 
ATOM     14  C   UNL d   1     -57.987 -98.870 -44.014  0.00  0.00     0.080 A 
ATOM     15  C   UNL d   1     -58.796 -98.784 -44.140  0.00  0.00     0.019 A 
ATOM     16  C   UNL d   1     -59.095 -98.842 -44.896  0.00  0.00     0.003 A 
ATOM     17  C   UNL d   1     -58.584 -98.984 -45.518  0.00  0.00     0.019 A 
ATOM     18  C   UNL d   1     -59.941 -98.755 -45.058  0.00  0.00     0.000 C 
ATOM     19  C   UNL d   1     -57.772 -99.070 -45.388  0.00  0.00     0.080 A 
ENDBRANCH  12  13
ENDBRANCH  10  12
ENDBRANCH   3   9
TORSDOF 3
ENDMDL
MODEL 2
REMARK VINA RESULT:      44.7      1.392      2.206
REMARK  3 active torsions:
REMARK  status: ('A' for Active; 'I' for Inactive)
REMARK       I    between atoms: N_2  and  C_1 
REMARK    1  A    between atoms: C_8  and  C_1 
REMARK    2  A    between atoms: C_6  and  N_2 
REMARK    3  A    between atoms: N_4  and  C_8 
ROOT
ATOM      1  N   UNL d   1     -56.704-100.979 -43.167  0.00  0.00    -0.191 NA
ATOM      2  C   UNL d   1     -56.310-100.474 -43.642  0.00  0.00     0.102 C 
ATOM      3  C   UNL d   1     -56.288 -99.277 -44.416  0.00  0.00     0.094 A 
ATOM      4  C   UNL d   1     -55.903 -99.959 -44.129  0.00  0.00     0.086 A 
ATOM      5  C   UNL d   1     -55.114-100.101 -44.344  0.00  0.00     0.012 A 
ATOM      6  C   UNL d   1     -55.885 -98.758 -44.902  0.00  0.00     0.020 A 
ATOM      7  C   UNL d   1     -54.712 -99.571 -44.838  0.00  0.00     0.001 A 
ATOM      8  C   UNL d   1     -55.097 -98.904 -45.115  0.00  0.00     0.002 A 
ENDROOT
BRANCH   3   9
ATOM      9  N   UNL d   1     -57.070 -99.132 -44.205  0.00  0.00    -0.206 NA
ATOM     10  C   UNL d   1     -57.591 -98.930 -44.796  0.00  0.00     0.297 C 
ATOM     11  O   UNL d   1     -57.334 -98.875 -45.582  0.00  0.00    -0.264 OA
BRANCH  10  12
ATOM     12  C   UNL d   1     -58.395 -98.774 -44.632  0.00  0.00     0.144 C 
BRANCH  12  13
ATOM     13  N   UNL d   1     -58.687 -98.770 -43.874  0.00  0.00    -0.299 N 
ATOM     14  C   UNL d   1     -58.187 -98.763 -43.234  0.00  0.00     0.080 A 
ATOM     15  C   UNL d   1     -58.489 -98.759 -42.467  0.00  0.00     0.019 A 
ATOM     16  C   UNL d   1     -59.295 -98.762 -42.351  0.00  0.00     0.003 A 
ATOM     17  C   UNL d   1     -59.793 -98.769 -42.999  0.00  0.00     0.019 A 
ATOM     18  C   UNL d   1     -59.639 -98.758 -41.556  0.00  0.00     0.000 C 
ATOM     19  C   UNL d   1     -59.487 -98.773 -43.768  0.00  0.00     0.080 A 
ENDBRANCH  12  13
ENDBRANCH  10  12
ENDBRANCH   3   9
TORSDOF 3
ENDMDL
