MODEL 1
REMARK VINA RESULT:      -7.0      0.000      0.000
REMARK  6 active torsions:
REMARK  status: ('A' for Active; 'I' for Inactive)
REMARK    1  A    between atoms: N_2  and  S_1 
REMARK    2  A    between atoms: C_3  and  S_1 
REMARK    3  A    between atoms: C_9  and  N_2 
REMARK    4  A    between atoms: C_13  and  C_9 
REMARK    5  A    between atoms: O_14  and  C_10 
REMARK    6  A    between atoms: C_17  and  O_14 
ROOT
ATOM      1  S   UNL d   1     -47.760  13.203  23.310  0.00  0.00     0.285 S 
ATOM      2  O   UNL d   1     -47.290  13.862  23.157  0.00  0.00    -0.198 OA
ATOM      3  O   UNL d   1     -48.231  12.543  23.464  0.00  0.00    -0.198 OA
ENDROOT
BRANCH   1   4
ATOM      4  N   UNL d   1     -48.431  13.682  23.315  0.00  0.00    -0.157 NA
BRANCH   4   5
ATOM      5  C   UNL d   1     -48.663  14.078  22.627  0.00  0.00     0.112 C 
BRANCH   5   6
ATOM      6  C   UNL d   1     -49.379  14.487  22.606  0.00  0.00     0.023 A 
ATOM      7  C   UNL d   1     -49.475  15.184  23.050  0.00  0.00     0.022 A 
ATOM      8  C   UNL d   1     -50.191  15.593  23.030  0.00  0.00     0.099 A 
ATOM      9  N   UNL d   1     -50.809  15.314  22.573  0.00  0.00    -0.242 NA
ATOM     10  C   UNL d   1     -50.718  14.623  22.130  0.00  0.00     0.099 A 
ATOM     11  C   UNL d   1     -49.997  14.208  22.149  0.00  0.00     0.022 A 
ENDBRANCH   5   6
ENDBRANCH   4   5
ENDBRANCH   1   4
BRANCH   1  12
ATOM     12  C   UNL d   1     -47.089  12.723  23.306  0.00  0.00     0.105 A 
ATOM     13  C   UNL d   1     -46.397  12.986  22.943  0.00  0.00     0.015 A 
ATOM     14  C   UNL d   1     -45.726  12.506  22.938  0.00  0.00     0.025 A 
ATOM     15  C   UNL d   1     -45.748  11.761  23.298  0.00  0.00     0.100 A 
ATOM     16  C   UNL d   1     -46.440  11.498  23.662  0.00  0.00     0.025 A 
ATOM     17  C   UNL d   1     -47.110  11.978  23.666  0.00  0.00     0.015 A 
BRANCH  15  18
ATOM     18  O   UNL d   1     -45.077  11.281  23.294  0.00  0.00    -0.305 OA
BRANCH  18  19
ATOM     19  C   UNL d   1     -45.084  10.562  23.698  0.00  0.00     0.123 C 
ATOM     20  C   UNL d   1     -44.410  10.080  23.697  0.00  0.00     0.029 C 
ENDBRANCH  18  19
ENDBRANCH  15  18
ENDBRANCH   1  12
TORSDOF 6
ENDMDL
MODEL 2
REMARK VINA RESULT:      -6.3      2.058      5.084
REMARK  6 active torsions:
REMARK  status: ('A' for Active; 'I' for Inactive)
REMARK    1  A    between atoms: N_2  and  S_1 
REMARK    2  A    between atoms: C_3  and  S_1 
REMARK    3  A    between atoms: C_9  and  N_2 
REMARK    4  A    between atoms: C_13  and  C_9 
REMARK    5  A    between atoms: O_14  and  C_10 
REMARK    6  A    between atoms: C_17  and  O_14 
ROOT
ATOM      1  S   UNL d   1     -46.527  13.621  22.761  0.00  0.00     0.285 S 
ATOM      2  O   UNL d   1     -46.219  14.130  23.332  0.00  0.00    -0.198 OA
ATOM      3  O   UNL d   1     -46.835  13.113  22.190  0.00  0.00    -0.198 OA
ENDROOT
BRANCH   1   4
ATOM      4  N   UNL d   1     -45.812  13.210  22.741  0.00  0.00    -0.157 NA
BRANCH   4   5
ATOM      5  C   UNL d   1     -45.433  13.074  22.018  0.00  0.00     0.112 C 
BRANCH   5   6
ATOM      6  C   UNL d   1     -44.681  12.735  22.004  0.00  0.00     0.023 A 
ATOM      7  C   UNL d   1     -44.097  13.035  21.493  0.00  0.00     0.022 A 
ATOM      8  C   UNL d   1     -43.345  12.696  21.479  0.00  0.00     0.099 A 
ATOM      9  N   UNL d   1     -43.171  12.064  21.968  0.00  0.00    -0.242 NA
ATOM     10  C   UNL d   1     -43.747  11.763  22.476  0.00  0.00     0.099 A 
ATOM     11  C   UNL d   1     -44.507  12.103  22.493  0.00  0.00     0.022 A 
ENDBRANCH   5   6
ENDBRANCH   4   5
ENDBRANCH   1   4
BRANCH   1  12
ATOM     12  C   UNL d   1     -47.243  14.032  22.782  0.00  0.00     0.105 A 
ATOM     13  C   UNL d   1     -47.931  13.646  23.022  0.00  0.00     0.015 A 
ATOM     14  C   UNL d   1     -48.646  14.056  23.042  0.00  0.00     0.025 A 
ATOM     15  C   UNL d   1     -48.673  14.853  22.822  0.00  0.00     0.100 A 
ATOM     16  C   UNL d   1     -47.985  15.239  22.582  0.00  0.00     0.025 A 
ATOM     17  C   UNL d   1     -47.269  14.828  22.562  0.00  0.00     0.015 A 
BRANCH  15  18
ATOM     18  O   UNL d   1     -49.389  15.263  22.842  0.00  0.00    -0.305 OA
BRANCH  18  19
ATOM     19  C   UNL d   1     -49.785  15.363  23.559  0.00  0.00     0.123 C 
ATOM     20  C   UNL d   1     -50.458  15.845  23.597  0.00  0.00     0.029 C 
ENDBRANCH  18  19
ENDBRANCH  15  18
ENDBRANCH   1  12
TORSDOF 6
ENDMDL
MODEL 3
REMARK VINA RESULT:      -6.1      1.754      2.140
REMARK  6 active torsions:
REMARK  status: ('A' for Active; 'I' for Inactive)
REMARK    1  A    between atoms: N_2  and  S_1 
REMARK    2  A    between atoms: C_3  and  S_1 
REMARK    3  A    between atoms: C_9  and  N_2 
REMARK    4  A    between atoms: C_13  and  C_9 
REMARK    5  A    between atoms: O_14  and  C_10 
REMARK    6  A    between atoms: C_17  and  O_14 
ROOT
ATOM      1  S   UNL d   1     -47.361  12.960  22.939  0.00  0.00     0.285 S 
ATOM      2  O   UNL d   1     -47.516  13.244  22.181  0.00  0.00    -0.198 OA
ATOM      3  O   UNL d   1     -47.206  12.676  23.698  0.00  0.00    -0.198 OA
ENDROOT
BRANCH   1   4
ATOM      4  N   UNL d   1     -48.161  13.029  23.129  0.00  0.00    -0.157 NA
BRANCH   4   5
ATOM      5  C   UNL d   1     -48.708  12.489  22.822  0.00  0.00     0.112 C 
BRANCH   5   6
ATOM      6  C   UNL d   1     -49.489  12.497  23.087  0.00  0.00     0.023 A 
ATOM      7  C   UNL d   1     -49.822  11.815  23.428  0.00  0.00     0.022 A 
ATOM      8  C   UNL d   1     -50.603  11.823  23.693  0.00  0.00     0.099 A 
ATOM      9  N   UNL d   1     -51.053  12.502  23.621  0.00  0.00    -0.242 NA
ATOM     10  C   UNL d   1     -50.727  13.181  23.284  0.00  0.00     0.099 A 
ATOM     11  C   UNL d   1     -49.939  13.176  23.016  0.00  0.00     0.022 A 
ENDBRANCH   5   6
ENDBRANCH   4   5
ENDBRANCH   1   4
BRANCH   1  12
ATOM     12  C   UNL d   1     -46.561  12.892  22.750  0.00  0.00     0.105 A 
ATOM     13  C   UNL d   1     -46.173  13.513  22.371  0.00  0.00     0.015 A 
ATOM     14  C   UNL d   1     -45.373  13.444  22.182  0.00  0.00     0.025 A 
ATOM     15  C   UNL d   1     -44.960  12.753  22.373  0.00  0.00     0.100 A 
ATOM     16  C   UNL d   1     -45.348  12.132  22.752  0.00  0.00     0.025 A 
ATOM     17  C   UNL d   1     -46.148  12.201  22.941  0.00  0.00     0.015 A 
BRANCH  15  18
ATOM     18  O   UNL d   1     -44.160  12.684  22.184  0.00  0.00    -0.305 OA
BRANCH  18  19
ATOM     19  C   UNL d   1     -43.903  12.849  21.417  0.00  0.00     0.123 C 
ATOM     20  C   UNL d   1     -43.092  12.887  21.251  0.00  0.00     0.029 C 
ENDBRANCH  18  19
ENDBRANCH  15  18
ENDBRANCH   1  12
TORSDOF 6
ENDMDL
MODEL 4
REMARK VINA RESULT:      -5.9      1.833      5.153
REMARK  6 active torsions:
REMARK  status: ('A' for Active; 'I' for Inactive)
REMARK    1  A    between atoms: N_2  and  S_1 
REMARK    2  A    between atoms: C_3  and  S_1 
REMARK    3  A    between atoms: C_9  and  N_2 
REMARK    4  A    between atoms: C_13  and  C_9 
REMARK    5  A    between atoms: O_14  and  C_10 
REMARK    6  A    between atoms: C_17  and  O_14 
ROOT
ATOM      1  S   UNL d   1     -46.664  12.247  23.523  0.00  0.00     0.285 S 
ATOM      2  O   UNL d   1     -47.136  11.574  23.582  0.00  0.00    -0.198 OA
ATOM      3  O   UNL d   1     -46.192  12.921  23.463  0.00  0.00    -0.198 OA
ENDROOT
BRANCH   1   4
ATOM      4  N   UNL d   1     -45.993  11.791  23.668  0.00  0.00    -0.157 NA
BRANCH   4   5
ATOM      5  C   UNL d   1     -45.546  11.497  23.037  0.00  0.00     0.112 C 
BRANCH   5   6
ATOM      6  C   UNL d   1     -44.852  11.076  23.183  0.00  0.00     0.023 A 
ATOM      7  C   UNL d   1     -44.116  11.390  22.955  0.00  0.00     0.022 A 
ATOM      8  C   UNL d   1     -43.422  10.968  23.101  0.00  0.00     0.099 A 
ATOM      9  N   UNL d   1     -43.456  10.239  23.471  0.00  0.00    -0.242 NA
ATOM     10  C   UNL d   1     -44.184   9.923  23.698  0.00  0.00     0.099 A 
ATOM     11  C   UNL d   1     -44.886  10.347  23.552  0.00  0.00     0.022 A 
ENDBRANCH   5   6
ENDBRANCH   4   5
ENDBRANCH   1   4
BRANCH   1  12
ATOM     12  C   UNL d   1     -47.335  12.705  23.377  0.00  0.00     0.105 A 
ATOM     13  C   UNL d   1     -48.085  12.389  23.513  0.00  0.00     0.015 A 
ATOM     14  C   UNL d   1     -48.756  12.847  23.368  0.00  0.00     0.025 A 
ATOM     15  C   UNL d   1     -48.677  13.620  23.086  0.00  0.00     0.100 A 
ATOM     16  C   UNL d   1     -47.927  13.935  22.950  0.00  0.00     0.025 A 
ATOM     17  C   UNL d   1     -47.256  13.478  23.095  0.00  0.00     0.015 A 
BRANCH  15  18
ATOM     18  O   UNL d   1     -49.348  14.077  22.941  0.00  0.00    -0.305 OA
BRANCH  18  19
ATOM     19  C   UNL d   1     -49.365  14.869  23.173  0.00  0.00     0.123 C 
ATOM     20  C   UNL d   1     -50.081  15.285  23.177  0.00  0.00     0.029 C 
ENDBRANCH  18  19
ENDBRANCH  15  18
ENDBRANCH   1  12
TORSDOF 6
ENDMDL
MODEL 5
REMARK VINA RESULT:      -4.7      8.628      9.202
REMARK  6 active torsions:
REMARK  status: ('A' for Active; 'I' for Inactive)
REMARK    1  A    between atoms: N_2  and  S_1 
REMARK    2  A    between atoms: C_3  and  S_1 
REMARK    3  A    between atoms: C_9  and  N_2 
REMARK    4  A    between atoms: C_13  and  C_9 
REMARK    5  A    between atoms: O_14  and  C_10 
REMARK    6  A    between atoms: C_17  and  O_14 
ROOT
ATOM      1  S   UNL d   1     -39.718  15.290  19.865  0.00  0.00     0.285 S 
ATOM      2  O   UNL d   1     -40.287  15.787  20.195  0.00  0.00    -0.198 OA
ATOM      3  O   UNL d   1     -39.149  14.793  19.535  0.00  0.00    -0.198 OA
ENDROOT
BRANCH   1   4
ATOM      4  N   UNL d   1     -39.901  15.579  19.114  0.00  0.00    -0.157 NA
BRANCH   4   5
ATOM      5  C   UNL d   1     -40.061  15.053  18.496  0.00  0.00     0.112 C 
BRANCH   5   6
ATOM      6  C   UNL d   1     -40.275  15.343  17.753  0.00  0.00     0.023 A 
ATOM      7  C   UNL d   1     -41.073  15.343  17.519  0.00  0.00     0.022 A 
ATOM      8  C   UNL d   1     -41.287  15.632  16.776  0.00  0.00     0.099 A 
ATOM      9  N   UNL d   1     -40.714  15.919  16.268  0.00  0.00    -0.242 NA
ATOM     10  C   UNL d   1     -39.921  15.921  16.497  0.00  0.00     0.099 A 
ATOM     11  C   UNL d   1     -39.702  15.630  17.245  0.00  0.00     0.022 A 
ENDBRANCH   5   6
ENDBRANCH   4   5
ENDBRANCH   1   4
BRANCH   1  12
ATOM     12  C   UNL d   1     -39.534  15.001  20.616  0.00  0.00     0.105 A 
ATOM     13  C   UNL d   1     -39.919  14.331  20.904  0.00  0.00     0.015 A 
ATOM     14  C   UNL d   1     -39.735  14.042  21.655  0.00  0.00     0.025 A 
ATOM     15  C   UNL d   1     -39.166  14.424  22.117  0.00  0.00     0.100 A 
ATOM     16  C   UNL d   1     -38.781  15.094  21.829  0.00  0.00     0.025 A 
ATOM     17  C   UNL d   1     -38.965  15.383  21.079  0.00  0.00     0.015 A 
BRANCH  15  18
ATOM     18  O   UNL d   1     -38.982  14.135  22.868  0.00  0.00    -0.305 OA
BRANCH  18  19
ATOM     19  C   UNL d   1     -38.548  13.437  22.945  0.00  0.00     0.123 C 
ATOM     20  C   UNL d   1     -38.388  13.130  23.697  0.00  0.00     0.029 C 
ENDBRANCH  18  19
ENDBRANCH  15  18
ENDBRANCH   1  12
TORSDOF 6
ENDMDL
MODEL 6
REMARK VINA RESULT:      -4.3      9.127     10.459
REMARK  6 active torsions:
REMARK  status: ('A' for Active; 'I' for Inactive)
REMARK    1  A    between atoms: N_2  and  S_1 
REMARK    2  A    between atoms: C_3  and  S_1 
REMARK    3  A    between atoms: C_9  and  N_2 
REMARK    4  A    between atoms: C_13  and  C_9 
REMARK    5  A    between atoms: O_14  and  C_10 
REMARK    6  A    between atoms: C_17  and  O_14 
ROOT
ATOM      1  S   UNL d   1     -39.148  15.156  18.088  0.00  0.00     0.285 S 
ATOM      2  O   UNL d   1     -39.865  15.353  17.732  0.00  0.00    -0.198 OA
ATOM      3  O   UNL d   1     -38.431  14.959  18.445  0.00  0.00    -0.198 OA
ENDROOT
BRANCH   1   4
ATOM      4  N   UNL d   1     -39.449  15.387  18.822  0.00  0.00    -0.157 NA
BRANCH   4   5
ATOM      5  C   UNL d   1     -39.985  14.901  19.222  0.00  0.00     0.112 C 
BRANCH   5   6
ATOM      6  C   UNL d   1     -40.195  15.072  20.001  0.00  0.00     0.023 A 
ATOM      7  C   UNL d   1     -39.879  14.625  20.627  0.00  0.00     0.022 A 
ATOM      8  C   UNL d   1     -40.089  14.795  21.406  0.00  0.00     0.099 A 
ATOM      9  N   UNL d   1     -40.610  15.405  21.565  0.00  0.00    -0.242 NA
ATOM     10  C   UNL d   1     -40.927  15.851  20.947  0.00  0.00     0.099 A 
ATOM     11  C   UNL d   1     -40.717  15.682  20.160  0.00  0.00     0.022 A 
ENDBRANCH   5   6
ENDBRANCH   4   5
ENDBRANCH   1   4
BRANCH   1  12
ATOM     12  C   UNL d   1     -38.848  14.925  17.356  0.00  0.00     0.105 A 
ATOM     13  C   UNL d   1     -38.954  15.409  16.696  0.00  0.00     0.015 A 
ATOM     14  C   UNL d   1     -38.653  15.179  15.964  0.00  0.00     0.025 A 
ATOM     15  C   UNL d   1     -38.245  14.463  15.891  0.00  0.00     0.100 A 
ATOM     16  C   UNL d   1     -38.139  13.979  16.550  0.00  0.00     0.025 A 
ATOM     17  C   UNL d   1     -38.440  14.209  17.282  0.00  0.00     0.015 A 
BRANCH  15  18
ATOM     18  O   UNL d   1     -37.945  14.232  15.158  0.00  0.00    -0.305 OA
BRANCH  18  19
ATOM     19  C   UNL d   1     -38.288  13.601  14.752  0.00  0.00     0.123 C 
ATOM     20  C   UNL d   1     -37.993  13.373  14.013  0.00  0.00     0.029 C 
ENDBRANCH  18  19
ENDBRANCH  15  18
ENDBRANCH   1  12
TORSDOF 6
ENDMDL
