MODEL 1
REMARK VINA RESULT:      64.6      0.000      0.000
REMARK  7 active torsions:
REMARK  status: ('A' for Active; 'I' for Inactive)
REMARK    1  A    between atoms: N_2  and  S_1 
REMARK    2  A    between atoms: C_5  and  S_1 
REMARK    3  A    between atoms: C_3  and  N_2 
REMARK    4  A    between atoms: C_4  and  C_3 
REMARK    5  A    between atoms: C_8  and  C_3 
REMARK    6  A    between atoms: C_17  and  C_8 
REMARK    7  A    between atoms: C_9  and  C_10 
ROOT
ATOM      1  S   UNL d   1     -50.948  26.660  35.199  0.00  0.00     0.285 S 
ATOM      2  O   UNL d   1     -50.521  27.242  35.586  0.00  0.00    -0.198 OA
ATOM      3  O   UNL d   1     -50.601  26.888  34.474  0.00  0.00    -0.198 OA
ENDROOT
BRANCH   1   4
ATOM      4  N   UNL d   1     -51.374  26.079  34.813  0.00  0.00    -0.152 NA
BRANCH   4   5
ATOM      5  C   UNL d   1     -51.357  26.027  34.004  0.00  0.00     0.158 C 
BRANCH   5   6
ATOM      6  C   UNL d   1     -51.735  26.589  33.546  0.00  0.00     0.230 C 
ATOM      7  O   UNL d   1     -51.347  27.266  33.323  0.00  0.00    -0.643 OA
ATOM      8  O   UNL d   1     -52.516  26.467  33.308  0.00  0.00    -0.643 OA
ENDBRANCH   5   6
BRANCH   5   9
ATOM      9  C   UNL d   1     -50.956  25.404  33.640  0.00  0.00     0.026 C 
BRANCH   9  10
ATOM     10  C   UNL d   1     -51.327  24.675  33.533  0.00  0.00     0.002 A 
ATOM     11  C   UNL d   1     -52.154  24.617  33.542  0.00  0.00     0.000 A 
ATOM     12  C   UNL d   1     -52.521  23.890  33.435  0.00  0.00     0.000 A 
ATOM     13  C   UNL d   1     -52.067  23.213  33.318  0.00  0.00     0.000 A 
ATOM     14  C   UNL d   1     -51.222  23.259  33.306  0.00  0.00     0.000 A 
ATOM     15  C   UNL d   1     -50.875  24.003  33.416  0.00  0.00     0.000 A 
ENDBRANCH   9  10
ENDBRANCH   5   9
ENDBRANCH   4   5
ENDBRANCH   1   4
BRANCH   1  16
ATOM     16  C   UNL d   1     -51.287  26.437  35.910  0.00  0.00     0.105 A 
ATOM     17  C   UNL d   1     -50.810  26.316  36.572  0.00  0.00     0.013 A 
ATOM     18  C   UNL d   1     -51.150  26.093  37.283  0.00  0.00    -0.004 A 
ATOM     19  C   UNL d   1     -51.966  25.991  37.332  0.00  0.00    -0.023 A 
ATOM     20  C   UNL d   1     -52.459  26.112  36.663  0.00  0.00    -0.004 A 
ATOM     21  C   UNL d   1     -52.104  26.335  35.959  0.00  0.00     0.013 A 
BRANCH  19  22
ATOM     22  C   UNL d   1     -52.286  25.766  38.061  0.00  0.00     0.019 C 
ATOM     23  C   UNL d   1     -53.025  25.724  37.710  0.00  0.00     0.004 C 
ATOM     24  C   UNL d   1     -52.603  25.544  38.774  0.00  0.00     0.004 C 
ATOM     25  C   UNL d   1     -51.543  25.810  38.401  0.00  0.00     0.004 C 
ENDBRANCH  19  22
ENDBRANCH   1  16
TORSDOF 7
ENDMDL
MODEL 2
REMARK VINA RESULT:      65.9      5.259      6.467
REMARK  7 active torsions:
REMARK  status: ('A' for Active; 'I' for Inactive)
REMARK    1  A    between atoms: N_2  and  S_1 
REMARK    2  A    between atoms: C_5  and  S_1 
REMARK    3  A    between atoms: C_3  and  N_2 
REMARK    4  A    between atoms: C_4  and  C_3 
REMARK    5  A    between atoms: C_8  and  C_3 
REMARK    6  A    between atoms: C_17  and  C_8 
REMARK    7  A    between atoms: C_9  and  C_10 
ROOT
ATOM      1  S   UNL d   1     -47.642  30.297  35.686  0.00  0.00     0.285 S 
ATOM      2  O   UNL d   1     -47.347  30.749  36.302  0.00  0.00    -0.198 OA
ATOM      3  O   UNL d   1     -47.605  29.616  36.167  0.00  0.00    -0.198 OA
ENDROOT
BRANCH   1   4
ATOM      4  N   UNL d   1     -47.937  29.846  35.071  0.00  0.00    -0.152 NA
BRANCH   4   5
ATOM      5  C   UNL d   1     -47.956  29.037  35.128  0.00  0.00     0.158 C 
BRANCH   5   6
ATOM      6  C   UNL d   1     -47.269  28.601  35.050  0.00  0.00     0.230 C 
ATOM      7  O   UNL d   1     -47.147  27.943  35.508  0.00  0.00    -0.643 OA
ATOM      8  O   UNL d   1     -46.696  28.833  34.503  0.00  0.00    -0.643 OA
ENDBRANCH   5   6
BRANCH   5   9
ATOM      9  C   UNL d   1     -48.673  28.652  35.265  0.00  0.00     0.026 C 
BRANCH   9  10
ATOM     10  C   UNL d   1     -49.043  28.230  34.660  0.00  0.00     0.002 A 
ATOM     11  C   UNL d   1     -49.390  28.627  34.020  0.00  0.00     0.000 A 
ATOM     12  C   UNL d   1     -49.757  28.205  33.418  0.00  0.00     0.000 A 
ATOM     13  C   UNL d   1     -49.783  27.383  33.449  0.00  0.00     0.000 A 
ATOM     14  C   UNL d   1     -49.433  26.967  34.097  0.00  0.00     0.000 A 
ATOM     15  C   UNL d   1     -49.068  27.413  34.691  0.00  0.00     0.000 A 
ENDBRANCH   9  10
ENDBRANCH   5   9
ENDBRANCH   4   5
ENDBRANCH   1   4
BRANCH   1  16
ATOM     16  C   UNL d   1     -47.679  30.966  35.214  0.00  0.00     0.105 A 
ATOM     17  C   UNL d   1     -48.346  31.102  34.749  0.00  0.00     0.013 A 
ATOM     18  C   UNL d   1     -48.383  31.770  34.277  0.00  0.00    -0.004 A 
ATOM     19  C   UNL d   1     -47.752  32.301  34.270  0.00  0.00    -0.023 A 
ATOM     20  C   UNL d   1     -47.070  32.170  34.741  0.00  0.00    -0.004 A 
ATOM     21  C   UNL d   1     -47.048  31.497  35.208  0.00  0.00     0.013 A 
BRANCH  19  22
ATOM     22  C   UNL d   1     -47.813  32.969  33.785  0.00  0.00     0.019 C 
ATOM     23  C   UNL d   1     -47.065  32.808  33.492  0.00  0.00     0.004 C 
ATOM     24  C   UNL d   1     -47.868  33.622  33.308  0.00  0.00     0.004 C 
ATOM     25  C   UNL d   1     -48.559  33.120  34.085  0.00  0.00     0.004 C 
ENDBRANCH  19  22
ENDBRANCH   1  16
TORSDOF 7
ENDMDL
MODEL 3
REMARK VINA RESULT:      66.1      1.823      3.932
REMARK  7 active torsions:
REMARK  status: ('A' for Active; 'I' for Inactive)
REMARK    1  A    between atoms: N_2  and  S_1 
REMARK    2  A    between atoms: C_5  and  S_1 
REMARK    3  A    between atoms: C_3  and  N_2 
REMARK    4  A    between atoms: C_4  and  C_3 
REMARK    5  A    between atoms: C_8  and  C_3 
REMARK    6  A    between atoms: C_17  and  C_8 
REMARK    7  A    between atoms: C_9  and  C_10 
ROOT
ATOM      1  S   UNL d   1     -51.370  26.715  33.620  0.00  0.00     0.285 S 
ATOM      2  O   UNL d   1     -52.028  27.111  33.336  0.00  0.00    -0.198 OA
ATOM      3  O   UNL d   1     -50.960  27.440  33.680  0.00  0.00    -0.198 OA
ENDROOT
BRANCH   1   4
ATOM      4  N   UNL d   1     -50.713  26.319  33.904  0.00  0.00    -0.152 NA
BRANCH   4   5
ATOM      5  C   UNL d   1     -50.030  26.725  34.068  0.00  0.00     0.158 C 
BRANCH   5   6
ATOM      6  C   UNL d   1     -49.772  27.320  33.570  0.00  0.00     0.230 C 
ATOM      7  O   UNL d   1     -50.288  27.888  33.309  0.00  0.00    -0.643 OA
ATOM      8  O   UNL d   1     -48.982  27.343  33.332  0.00  0.00    -0.643 OA
ENDBRANCH   5   6
BRANCH   5   9
ATOM      9  C   UNL d   1     -49.592  26.536  34.742  0.00  0.00     0.026 C 
BRANCH   9  10
ATOM     10  C   UNL d   1     -49.570  27.053  35.384  0.00  0.00     0.002 A 
ATOM     11  C   UNL d   1     -49.113  27.745  35.353  0.00  0.00     0.000 A 
ATOM     12  C   UNL d   1     -49.092  28.259  35.994  0.00  0.00     0.000 A 
ATOM     13  C   UNL d   1     -49.527  28.088  36.672  0.00  0.00     0.000 A 
ATOM     14  C   UNL d   1     -49.997  27.386  36.716  0.00  0.00     0.000 A 
ATOM     15  C   UNL d   1     -50.002  26.884  36.058  0.00  0.00     0.000 A 
ENDBRANCH   9  10
ENDBRANCH   5   9
ENDBRANCH   4   5
ENDBRANCH   1   4
BRANCH   1  16
ATOM     16  C   UNL d   1     -51.773  26.004  33.562  0.00  0.00     0.105 A 
ATOM     17  C   UNL d   1     -52.590  25.987  33.668  0.00  0.00     0.013 A 
ATOM     18  C   UNL d   1     -52.993  25.276  33.610  0.00  0.00    -0.004 A 
ATOM     19  C   UNL d   1     -52.577  24.583  33.444  0.00  0.00    -0.023 A 
ATOM     20  C   UNL d   1     -51.745  24.592  33.334  0.00  0.00    -0.004 A 
ATOM     21  C   UNL d   1     -51.357  25.311  33.396  0.00  0.00     0.013 A 
BRANCH  19  22
ATOM     22  C   UNL d   1     -53.006  23.878  33.390  0.00  0.00     0.019 C 
ATOM     23  C   UNL d   1     -53.693  24.316  33.306  0.00  0.00     0.004 C 
ATOM     24  C   UNL d   1     -53.430  23.188  33.336  0.00  0.00     0.004 C 
ATOM     25  C   UNL d   1     -52.313  23.450  33.474  0.00  0.00     0.004 C 
ENDBRANCH  19  22
ENDBRANCH   1  16
TORSDOF 7
ENDMDL
