MODEL 1
REMARK VINA RESULT:      11.8      0.000      0.000
REMARK  6 active torsions:
REMARK  status: ('A' for Active; 'I' for Inactive)
REMARK    1  A    between atoms: C_10  and  N_6 
REMARK    2  A    between atoms: S_14  and  C_9 
REMARK    3  A    between atoms: C_17  and  C_10 
REMARK    4  A    between atoms: N_13  and  C_25 
REMARK    5  A    between atoms: C_20  and  S_14 
REMARK    6  A    between atoms: C_25  and  C_20 
ROOT
ATOM      1  C   UNL d   1     -42.847-122.916 -50.640  0.00  0.00     0.174 A 
ATOM      2  C   UNL d   1     -42.161-122.510 -50.403  0.00  0.00     0.158 A 
ATOM      3  N   UNL d   1     -42.919-122.836 -51.458  0.00  0.00    -0.203 NA
ATOM      4  N   UNL d   1     -43.311-123.304 -50.074  0.00  0.00    -0.240 N 
ATOM      5  N   UNL d   1     -42.410-122.881 -49.045  0.00  0.00    -0.223 N 
ATOM      6  N   UNL d   1     -41.815-122.182 -51.077  0.00  0.00    -0.279 N 
ATOM      7  C   UNL d   1     -43.096-123.287 -49.281  0.00  0.00     0.343 A 
ATOM      8  C   UNL d   1     -41.947-122.495 -49.603  0.00  0.00     0.287 A 
ATOM      9  C   UNL d   1     -42.287-122.387 -51.721  0.00  0.00     0.181 A 
ATOM     10  O   UNL d   1     -43.564-123.677 -48.714  0.00  0.00    -0.245 OA
ATOM     11  O   UNL d   1     -41.266-122.091 -49.368  0.00  0.00    -0.265 OA
ATOM     12  C   UNL d   1     -43.992-123.707 -50.309  0.00  0.00     0.105 C 
ATOM     13  C   UNL d   1     -42.195-122.865 -48.249  0.00  0.00     0.107 C 
ENDROOT
BRANCH   9  14
ATOM     14  S   UNL d   1     -42.145-122.173 -52.516  0.00  0.00    -0.048 SA
BRANCH  14  15
ATOM     15  C   UNL d   1     -42.258-122.720 -53.116  0.00  0.00     0.057 C 
BRANCH  15  16
ATOM     16  C   UNL d   1     -42.614-122.482 -53.821  0.00  0.00     0.087 C 
BRANCH  16  17
ATOM     17  N   UNL d   1     -42.220-122.602 -54.531  0.00  0.00    -0.302 N 
ATOM     18  C   UNL d   1     -41.975-123.357 -54.741  0.00  0.00     0.080 A 
ATOM     19  C   UNL d   1     -41.581-123.476 -55.450  0.00  0.00     0.019 A 
ATOM     20  C   UNL d   1     -41.432-122.844 -55.949  0.00  0.00     0.003 A 
ATOM     21  C   UNL d   1     -41.677-122.089 -55.739  0.00  0.00     0.019 A 
ATOM     22  C   UNL d   1     -42.072-121.963 -55.029  0.00  0.00     0.080 A 
ENDBRANCH  16  17
ENDBRANCH  15  16
ENDBRANCH  14  15
ENDBRANCH   9  14
BRANCH   6  23
ATOM     23  C   UNL d   1     -41.124-121.733 -51.094  0.00  0.00     0.082 C 
BRANCH  23  24
ATOM     24  C   UNL d   1     -41.146-120.932 -51.311  0.00  0.00     0.018 A 
ATOM     25  C   UNL d   1     -41.190-120.359 -50.717  0.00  0.00     0.002 A 
ATOM     26  C   UNL d   1     -41.213-119.561 -50.921  0.00  0.00     0.011 A 
ATOM     27  C   UNL d   1     -41.190-119.341 -51.720  0.00  0.00     0.058 A 
ATOM     28  C   UNL d   1     -41.144-119.926 -52.314  0.00  0.00     0.011 A 
ATOM     29 CL   UNL d   1     -41.212-118.543 -51.929  0.00  0.00    -0.082 Cl
ATOM     30  C   UNL d   1     -41.123-120.720 -52.097  0.00  0.00     0.002 A 
ENDBRANCH  23  24
ENDBRANCH   6  23
TORSDOF 6
ENDMDL
MODEL 2
REMARK VINA RESULT:      12.8      1.737      3.082
REMARK  6 active torsions:
REMARK  status: ('A' for Active; 'I' for Inactive)
REMARK    1  A    between atoms: C_10  and  N_6 
REMARK    2  A    between atoms: S_14  and  C_9 
REMARK    3  A    between atoms: C_17  and  C_10 
REMARK    4  A    between atoms: N_13  and  C_25 
REMARK    5  A    between atoms: C_20  and  S_14 
REMARK    6  A    between atoms: C_25  and  C_20 
ROOT
ATOM      1  C   UNL d   1     -41.252-121.361 -52.028  0.00  0.00     0.174 A 
ATOM      2  C   UNL d   1     -41.224-121.828 -51.341  0.00  0.00     0.158 A 
ATOM      3  N   UNL d   1     -41.293-121.869 -52.677  0.00  0.00    -0.203 NA
ATOM      4  N   UNL d   1     -41.237-120.536 -51.965  0.00  0.00    -0.240 N 
ATOM      5  N   UNL d   1     -41.166-120.645 -50.540  0.00  0.00    -0.223 N 
ATOM      6  N   UNL d   1     -41.247-122.620 -51.571  0.00  0.00    -0.279 N 
ATOM      7  C   UNL d   1     -41.194-120.178 -51.227  0.00  0.00     0.343 A 
ATOM      8  C   UNL d   1     -41.181-121.464 -50.598  0.00  0.00     0.287 A 
ATOM      9  C   UNL d   1     -41.290-122.637 -52.394  0.00  0.00     0.181 A 
ATOM     10  O   UNL d   1     -41.179-119.348 -51.166  0.00  0.00    -0.245 OA
ATOM     11  O   UNL d   1     -41.152-121.928 -49.915  0.00  0.00    -0.265 OA
ATOM     12  C   UNL d   1     -41.266-120.072 -52.648  0.00  0.00     0.105 C 
ATOM     13  C   UNL d   1     -41.123-120.285 -49.800  0.00  0.00     0.107 C 
ENDROOT
BRANCH   9  14
ATOM     14  S   UNL d   1     -41.324-123.325 -52.865  0.00  0.00    -0.048 SA
BRANCH  14  15
ATOM     15  C   UNL d   1     -41.144-123.287 -53.664  0.00  0.00     0.057 C 
BRANCH  15  16
ATOM     16  C   UNL d   1     -41.727-123.465 -54.221  0.00  0.00     0.087 C 
BRANCH  16  17
ATOM     17  N   UNL d   1     -41.863-122.945 -54.841  0.00  0.00    -0.302 N 
ATOM     18  C   UNL d   1     -42.611-122.894 -55.175  0.00  0.00     0.080 A 
ATOM     19  C   UNL d   1     -42.747-122.374 -55.795  0.00  0.00     0.019 A 
ATOM     20  C   UNL d   1     -42.138-121.906 -56.079  0.00  0.00     0.003 A 
ATOM     21  C   UNL d   1     -41.391-121.957 -55.745  0.00  0.00     0.019 A 
ATOM     22  C   UNL d   1     -41.248-122.476 -55.124  0.00  0.00     0.080 A 
ENDBRANCH  16  17
ENDBRANCH  15  16
ENDBRANCH  14  15
ENDBRANCH   9  14
BRANCH   6  23
ATOM     23  C   UNL d   1     -41.230-123.270 -51.063  0.00  0.00     0.082 C 
BRANCH  23  24
ATOM     24  C   UNL d   1     -41.853-123.407 -50.531  0.00  0.00     0.018 A 
ATOM     25  C   UNL d   1     -41.674-123.542 -49.736  0.00  0.00     0.002 A 
ATOM     26  C   UNL d   1     -42.284-123.679 -49.199  0.00  0.00     0.011 A 
ATOM     27  C   UNL d   1     -43.071-123.680 -49.461  0.00  0.00     0.058 A 
ATOM     28  C   UNL d   1     -43.242-123.542 -50.267  0.00  0.00     0.011 A 
ATOM     29 CL   UNL d   1     -43.684-123.817 -48.928  0.00  0.00    -0.082 Cl
ATOM     30  C   UNL d   1     -42.624-123.407 -50.793  0.00  0.00     0.002 A 
ENDBRANCH  23  24
ENDBRANCH   6  23
TORSDOF 6
ENDMDL
