MODEL 1
REMARK VINA RESULT:      10.4      0.000      0.000
REMARK  0 active torsions:
REMARK  status: ('A' for Active; 'I' for Inactive)
ROOT
ATOM      1  C   UNL d   1      58.104  49.703  50.759  0.00  0.00     0.286 A 
ATOM      2  N   UNL d   1      57.782  49.708  51.484  0.00  0.00    -0.170 NA
ATOM      3  C   UNL d   1      57.492  49.697  50.210  0.00  0.00     0.066 A 
ATOM      4  S   UNL d   1      56.970  49.705  51.442  0.00  0.00     0.017 SA
ATOM      5  C   UNL d   1      56.770  49.698  50.645  0.00  0.00     0.052 A 
ATOM      6  O   UNL d   1      58.901  49.704  50.579  0.00  0.00    -0.265 OA
ATOM      7  C   UNL d   1      57.482  49.691  49.389  0.00  0.00     0.005 A 
ATOM      8  C   UNL d   1      56.049  49.693  50.253  0.00  0.00     0.008 A 
ATOM      9  C   UNL d   1      56.757  49.686  48.989  0.00  0.00     0.000 A 
ATOM     10  C   UNL d   1      56.035  49.687  49.425  0.00  0.00     0.001 A 
ENDROOT
TORSDOF 0
ENDMDL
MODEL 2
REMARK VINA RESULT:      12.5      2.439      3.024
REMARK  0 active torsions:
REMARK  status: ('A' for Active; 'I' for Inactive)
ROOT
ATOM      1  C   UNL d   1      60.555  49.701  51.620  0.00  0.00     0.286 A 
ATOM      2  N   UNL d   1      61.166  49.706  51.113  0.00  0.00    -0.170 NA
ATOM      3  C   UNL d   1      59.861  49.698  51.180  0.00  0.00     0.066 A 
ATOM      4  S   UNL d   1      60.905  49.707  50.344  0.00  0.00     0.017 SA
ATOM      5  C   UNL d   1      60.083  49.701  50.367  0.00  0.00     0.052 A 
ATOM      6  O   UNL d   1      60.598  49.698  52.436  0.00  0.00    -0.265 OA
ATOM      7  C   UNL d   1      59.068  49.692  51.394  0.00  0.00     0.005 A 
ATOM      8  C   UNL d   1      59.510  49.699  49.780  0.00  0.00     0.008 A 
ATOM      9  C   UNL d   1      58.486  49.690  50.804  0.00  0.00     0.000 A 
ATOM     10  C   UNL d   1      58.709  49.694  49.991  0.00  0.00     0.001 A 
ENDROOT
TORSDOF 0
ENDMDL
MODEL 3
REMARK VINA RESULT:      12.5      2.899      3.608
REMARK  0 active torsions:
REMARK  status: ('A' for Active; 'I' for Inactive)
ROOT
ATOM      1  C   UNL d   1      60.133  49.701  50.055  0.00  0.00     0.286 A 
ATOM      2  N   UNL d   1      59.340  49.704  50.081  0.00  0.00    -0.170 NA
ATOM      3  C   UNL d   1      60.412  49.702  50.828  0.00  0.00     0.066 A 
ATOM      4  S   UNL d   1      59.074  49.707  50.849  0.00  0.00     0.017 SA
ATOM      5  C   UNL d   1      59.738  49.706  51.334  0.00  0.00     0.052 A 
ATOM      6  O   UNL d   1      60.600  49.697  49.384  0.00  0.00    -0.265 OA
ATOM      7  C   UNL d   1      61.169  49.700  51.146  0.00  0.00     0.005 A 
ATOM      8  C   UNL d   1      59.830  49.708  52.149  0.00  0.00     0.008 A 
ATOM      9  C   UNL d   1      61.267  49.702  51.968  0.00  0.00     0.000 A 
ATOM     10  C   UNL d   1      60.592  49.706  52.474  0.00  0.00     0.001 A 
ENDROOT
TORSDOF 0
ENDMDL
MODEL 4
REMARK VINA RESULT:      12.6      2.238      2.737
REMARK  0 active torsions:
REMARK  status: ('A' for Active; 'I' for Inactive)
ROOT
ATOM      1  C   UNL d   1      60.757  49.706  50.785  0.00  0.00     0.286 A 
ATOM      2  N   UNL d   1      60.928  49.707  51.560  0.00  0.00    -0.170 NA
ATOM      3  C   UNL d   1      59.939  49.705  50.706  0.00  0.00     0.066 A 
ATOM      4  S   UNL d   1      60.250  49.706  52.007  0.00  0.00     0.017 SA
ATOM      5  C   UNL d   1      59.616  49.706  51.484  0.00  0.00     0.052 A 
ATOM      6  O   UNL d   1      61.292  49.706  50.167  0.00  0.00    -0.265 OA
ATOM      7  C   UNL d   1      59.444  49.705  50.051  0.00  0.00     0.005 A 
ATOM      8  C   UNL d   1      58.803  49.705  51.596  0.00  0.00     0.008 A 
ATOM      9  C   UNL d   1      58.623  49.704  50.160  0.00  0.00     0.000 A 
ATOM     10  C   UNL d   1      58.300  49.705  50.938  0.00  0.00     0.001 A 
ENDROOT
TORSDOF 0
ENDMDL
MODEL 5
REMARK VINA RESULT:      13.4      2.638      3.194
REMARK  0 active torsions:
REMARK  status: ('A' for Active; 'I' for Inactive)
ROOT
ATOM      1  C   UNL d   1      60.849  49.689  52.028  0.00  0.00     0.286 A 
ATOM      2  N   UNL d   1      60.255  49.675  52.553  0.00  0.00    -0.170 NA
ATOM      3  C   UNL d   1      60.523  49.690  51.274  0.00  0.00     0.066 A 
ATOM      4  S   UNL d   1      59.535  49.668  52.176  0.00  0.00     0.017 SA
ATOM      5  C   UNL d   1      59.685  49.677  51.368  0.00  0.00     0.052 A 
ATOM      6  O   UNL d   1      61.649  49.700  52.196  0.00  0.00    -0.265 OA
ATOM      7  C   UNL d   1      60.856  49.701  50.524  0.00  0.00     0.005 A 
ATOM      8  C   UNL d   1      59.194  49.675  50.711  0.00  0.00     0.008 A 
ATOM      9  C   UNL d   1      60.363  49.699  49.858  0.00  0.00     0.000 A 
ATOM     10  C   UNL d   1      59.526  49.686  49.952  0.00  0.00     0.001 A 
ENDROOT
TORSDOF 0
ENDMDL
