MODEL 1
REMARK VINA RESULT:      -4.3      0.000      0.000
REMARK  4 active torsions:
REMARK  status: ('A' for Active; 'I' for Inactive)
REMARK    1  A    between atoms: N_4  and  C_1 
REMARK    2  A    between atoms: S_8  and  C_2 
REMARK    3  A    between atoms: N_6  and  C_9 
REMARK    4  A    between atoms: C_16  and  S_8 
ROOT
ATOM      1  S   UNL d   1      57.679   0.678  30.839  0.00  0.00    -0.066 SA
ENDROOT
BRANCH   1   2
ATOM      2  C   UNL d   1      58.410   0.430  30.544  0.00  0.00     0.136 A 
ATOM      3  C   UNL d   1      58.647   0.152  29.805  0.00  0.00     0.232 A 
ATOM      4  N   UNL d   1      59.462  -0.007  29.861  0.00  0.00    -0.201 NA
ATOM      5  C   UNL d   1      59.710   0.175  30.630  0.00  0.00     0.185 A 
ATOM      6  N   UNL d   1      59.054   0.438  31.027  0.00  0.00    -0.279 N 
ATOM      7  C   UNL d   1      59.053   0.682  31.823  0.00  0.00     0.101 C 
BRANCH   3   8
ATOM      8  N   UNL d   1      58.173   0.049  29.134  0.00  0.00    -0.093 N 
ATOM      9  O   UNL d   1      57.731   0.682  28.836  0.00  0.00    -0.530 OA
ATOM     10  O   UNL d   1      58.138  -0.693  28.753  0.00  0.00    -0.530 OA
ENDBRANCH   3   8
ENDBRANCH   1   2
BRANCH   1  11
ATOM     11  C   UNL d   1      57.250   0.233  31.371  0.00  0.00     0.031 A 
ATOM     12  C   UNL d   1      56.974   0.595  32.066  0.00  0.00     0.008 A 
ATOM     13  C   UNL d   1      56.538   0.152  32.612  0.00  0.00     0.024 A 
ATOM     14  C   UNL d   1      56.382  -0.630  32.469  0.00  0.00     0.127 A 
ATOM     15  C   UNL d   1      56.660  -0.988  31.773  0.00  0.00     0.024 A 
ATOM     16  C   UNL d   1      57.083  -0.556  31.245  0.00  0.00     0.008 A 
BRANCH  14  17
ATOM     17  N   UNL d   1      55.948  -1.070  33.013  0.00  0.00    -0.114 N 
ATOM     18  O   UNL d   1      55.337  -0.707  33.433  0.00  0.00    -0.532 OA
ATOM     19  O   UNL d   1      56.122  -1.862  33.139  0.00  0.00    -0.532 OA
ENDBRANCH  14  17
ENDBRANCH   1  11
TORSDOF 4
ENDMDL
MODEL 2
REMARK VINA RESULT:      -3.5      1.938      2.518
REMARK  4 active torsions:
REMARK  status: ('A' for Active; 'I' for Inactive)
REMARK    1  A    between atoms: N_4  and  C_1 
REMARK    2  A    between atoms: S_8  and  C_2 
REMARK    3  A    between atoms: N_6  and  C_9 
REMARK    4  A    between atoms: C_16  and  S_8 
ROOT
ATOM      1  S   UNL d   1      58.878  -0.339  29.057  0.00  0.00    -0.066 SA
ENDROOT
BRANCH   1   2
ATOM      2  C   UNL d   1      59.548  -0.823  29.040  0.00  0.00     0.136 A 
ATOM      3  C   UNL d   1      60.342  -0.681  29.215  0.00  0.00     0.232 A 
ATOM      4  N   UNL d   1      60.744  -1.399  29.089  0.00  0.00    -0.201 NA
ATOM      5  C   UNL d   1      60.194  -1.966  28.842  0.00  0.00     0.185 A 
ATOM      6  N   UNL d   1      59.474  -1.593  28.819  0.00  0.00    -0.279 N 
ATOM      7  C   UNL d   1      58.761  -1.961  28.598  0.00  0.00     0.101 C 
BRANCH   3   8
ATOM      8  N   UNL d   1      60.679   0.032  29.465  0.00  0.00    -0.093 N 
ATOM      9  O   UNL d   1      60.969   0.107  30.237  0.00  0.00    -0.530 OA
ATOM     10  O   UNL d   1      60.729   0.681  28.943  0.00  0.00    -0.530 OA
ENDBRANCH   3   8
ENDBRANCH   1   2
BRANCH   1  11
ATOM     11  C   UNL d   1      58.414  -0.260  29.723  0.00  0.00     0.031 A 
ATOM     12  C   UNL d   1      58.163   0.499  29.950  0.00  0.00     0.008 A 
ATOM     13  C   UNL d   1      57.693   0.588  30.624  0.00  0.00     0.024 A 
ATOM     14  C   UNL d   1      57.478  -0.060  31.059  0.00  0.00     0.127 A 
ATOM     15  C   UNL d   1      57.731  -0.817  30.828  0.00  0.00     0.024 A 
ATOM     16  C   UNL d   1      58.188  -0.901  30.174  0.00  0.00     0.008 A 
BRANCH  14  17
ATOM     17  N   UNL d   1      57.009   0.031  31.730  0.00  0.00    -0.114 N 
ATOM     18  O   UNL d   1      56.304  -0.395  31.794  0.00  0.00    -0.532 OA
ATOM     19  O   UNL d   1      57.239   0.540  32.331  0.00  0.00    -0.532 OA
ENDBRANCH  14  17
ENDBRANCH   1  11
TORSDOF 4
ENDMDL
MODEL 3
REMARK VINA RESULT:      -3.4      2.313      3.818
REMARK  4 active torsions:
REMARK  status: ('A' for Active; 'I' for Inactive)
REMARK    1  A    between atoms: N_4  and  C_1 
REMARK    2  A    between atoms: S_8  and  C_2 
REMARK    3  A    between atoms: N_6  and  C_9 
REMARK    4  A    between atoms: C_16  and  S_8 
ROOT
ATOM      1  S   UNL d   1      59.112  -0.430  28.875  0.00  0.00    -0.066 SA
ENDROOT
BRANCH   1   2
ATOM      2  C   UNL d   1      59.222   0.008  29.568  0.00  0.00     0.136 A 
ATOM      3  C   UNL d   1      58.701   0.260  30.156  0.00  0.00     0.232 A 
ATOM      4  N   UNL d   1      59.156   0.681  30.711  0.00  0.00    -0.201 NA
ATOM      5  C   UNL d   1      59.945   0.681  30.456  0.00  0.00     0.185 A 
ATOM      6  N   UNL d   1      59.960   0.266  29.760  0.00  0.00    -0.279 N 
ATOM      7  C   UNL d   1      60.647   0.129  29.310  0.00  0.00     0.101 C 
BRANCH   3   8
ATOM      8  N   UNL d   1      57.885   0.124  30.193  0.00  0.00    -0.093 N 
ATOM      9  O   UNL d   1      57.574  -0.384  30.767  0.00  0.00    -0.530 OA
ATOM     10  O   UNL d   1      57.371   0.498  29.653  0.00  0.00    -0.530 OA
ENDBRANCH   3   8
ENDBRANCH   1   2
BRANCH   1  11
ATOM     11  C   UNL d   1      59.197  -1.240  28.854  0.00  0.00     0.031 A 
ATOM     12  C   UNL d   1      58.564  -1.704  28.580  0.00  0.00     0.008 A 
ATOM     13  C   UNL d   1      58.641  -2.526  28.555  0.00  0.00     0.024 A 
ATOM     14  C   UNL d   1      59.330  -2.878  28.796  0.00  0.00     0.127 A 
ATOM     15  C   UNL d   1      59.960  -2.411  29.070  0.00  0.00     0.024 A 
ATOM     16  C   UNL d   1      59.883  -1.613  29.093  0.00  0.00     0.008 A 
BRANCH  14  17
ATOM     17  N   UNL d   1      59.405  -3.698  28.771  0.00  0.00    -0.114 N 
ATOM     18  O   UNL d   1      60.146  -4.042  28.889  0.00  0.00    -0.532 OA
ATOM     19  O   UNL d   1      58.748  -4.170  28.629  0.00  0.00    -0.532 OA
ENDBRANCH  14  17
ENDBRANCH   1  11
TORSDOF 4
ENDMDL
MODEL 4
REMARK VINA RESULT:      -3.2      1.315      1.665
REMARK  4 active torsions:
REMARK  status: ('A' for Active; 'I' for Inactive)
REMARK    1  A    between atoms: N_4  and  C_1 
REMARK    2  A    between atoms: S_8  and  C_2 
REMARK    3  A    between atoms: N_6  and  C_9 
REMARK    4  A    between atoms: C_16  and  S_8 
ROOT
ATOM      1  S   UNL d   1      58.159  -0.267  29.634  0.00  0.00    -0.066 SA
ENDROOT
BRANCH   1   2
ATOM      2  C   UNL d   1      58.919  -0.578  29.539  0.00  0.00     0.136 A 
ATOM      3  C   UNL d   1      59.192  -1.322  29.305  0.00  0.00     0.232 A 
ATOM      4  N   UNL d   1      60.023  -1.285  29.320  0.00  0.00    -0.201 NA
ATOM      5  C   UNL d   1      60.246  -0.524  29.560  0.00  0.00     0.185 A 
ATOM      6  N   UNL d   1      59.559  -0.113  29.688  0.00  0.00    -0.279 N 
ATOM      7  C   UNL d   1      59.526   0.680  29.938  0.00  0.00     0.101 C 
BRANCH   3   8
ATOM      8  N   UNL d   1      58.733  -1.979  29.096  0.00  0.00    -0.093 N 
ATOM      9  O   UNL d   1      58.210  -1.934  28.457  0.00  0.00    -0.530 OA
ATOM     10  O   UNL d   1      58.796  -2.690  29.528  0.00  0.00    -0.530 OA
ENDBRANCH   3   8
ENDBRANCH   1   2
BRANCH   1  11
ATOM     11  C   UNL d   1      57.813  -0.181  30.368  0.00  0.00     0.031 A 
ATOM     12  C   UNL d   1      57.791   0.574  30.715  0.00  0.00     0.008 A 
ATOM     13  C   UNL d   1      57.443   0.671  31.458  0.00  0.00     0.024 A 
ATOM     14  C   UNL d   1      57.125   0.034  31.845  0.00  0.00     0.127 A 
ATOM     15  C   UNL d   1      57.149  -0.719  31.494  0.00  0.00     0.024 A 
ATOM     16  C   UNL d   1      57.488  -0.811  30.773  0.00  0.00     0.008 A 
BRANCH  14  17
ATOM     17  N   UNL d   1      56.778   0.132  32.585  0.00  0.00    -0.114 N 
ATOM     18  O   UNL d   1      55.958   0.207  32.643  0.00  0.00    -0.532 OA
ATOM     19  O   UNL d   1      57.243   0.156  33.262  0.00  0.00    -0.532 OA
ENDBRANCH  14  17
ENDBRANCH   1  11
TORSDOF 4
ENDMDL
MODEL 5
REMARK VINA RESULT:      -3.1      1.289      3.615
REMARK  4 active torsions:
REMARK  status: ('A' for Active; 'I' for Inactive)
REMARK    1  A    between atoms: N_4  and  C_1 
REMARK    2  A    between atoms: S_8  and  C_2 
REMARK    3  A    between atoms: N_6  and  C_9 
REMARK    4  A    between atoms: C_16  and  S_8 
ROOT
ATOM      1  S   UNL d   1      56.656   0.559  32.106  0.00  0.00    -0.066 SA
ENDROOT
BRANCH   1   2
ATOM      2  C   UNL d   1      56.679   0.397  32.917  0.00  0.00     0.136 A 
ATOM      3  C   UNL d   1      56.097   0.168  33.455  0.00  0.00     0.232 A 
ATOM      4  N   UNL d   1      56.473   0.093  34.194  0.00  0.00    -0.201 NA
ATOM      5  C   UNL d   1      57.276   0.276  34.097  0.00  0.00     0.185 A 
ATOM      6  N   UNL d   1      57.377   0.457  33.313  0.00  0.00    -0.279 N 
ATOM      7  C   UNL d   1      58.104   0.675  32.971  0.00  0.00     0.101 C 
BRANCH   3   8
ATOM      8  N   UNL d   1      55.294   0.038  33.299  0.00  0.00    -0.093 N 
ATOM      9  O   UNL d   1      55.010  -0.733  33.204  0.00  0.00    -0.530 OA
ATOM     10  O   UNL d   1      54.767   0.681  33.236  0.00  0.00    -0.530 OA
ENDBRANCH   3   8
ENDBRANCH   1   2
BRANCH   1  11
ATOM     11  C   UNL d   1      57.037   0.090  31.558  0.00  0.00     0.031 A 
ATOM     12  C   UNL d   1      57.471   0.454  30.951  0.00  0.00     0.008 A 
ATOM     13  C   UNL d   1      57.861  -0.013  30.391  0.00  0.00     0.024 A 
ATOM     14  C   UNL d   1      57.820  -0.821  30.435  0.00  0.00     0.127 A 
ATOM     15  C   UNL d   1      57.384  -1.181  31.044  0.00  0.00     0.024 A 
ATOM     16  C   UNL d   1      57.007  -0.725  31.586  0.00  0.00     0.008 A 
BRANCH  14  17
ATOM     17  N   UNL d   1      58.208  -1.284  29.876  0.00  0.00    -0.114 N 
ATOM     18  O   UNL d   1      58.684  -0.921  29.307  0.00  0.00    -0.532 OA
ATOM     19  O   UNL d   1      58.124  -2.101  29.884  0.00  0.00    -0.532 OA
ENDBRANCH  14  17
ENDBRANCH   1  11
TORSDOF 4
ENDMDL
MODEL 6
REMARK VINA RESULT:      -1.9      3.064      3.905
REMARK  4 active torsions:
REMARK  status: ('A' for Active; 'I' for Inactive)
REMARK    1  A    between atoms: N_4  and  C_1 
REMARK    2  A    between atoms: S_8  and  C_2 
REMARK    3  A    between atoms: N_6  and  C_9 
REMARK    4  A    between atoms: C_16  and  S_8 
ROOT
ATOM      1  S   UNL d   1      59.083  -2.404  28.478  0.00  0.00    -0.066 SA
ENDROOT
BRANCH   1   2
ATOM      2  C   UNL d   1      59.522  -3.058  28.730  0.00  0.00     0.136 A 
ATOM      3  C   UNL d   1      60.295  -3.135  29.010  0.00  0.00     0.232 A 
ATOM      4  N   UNL d   1      60.409  -3.943  29.172  0.00  0.00    -0.201 NA
ATOM      5  C   UNL d   1      59.708  -4.347  28.990  0.00  0.00     0.185 A 
ATOM      6  N   UNL d   1      59.185  -3.788  28.723  0.00  0.00    -0.279 N 
ATOM      7  C   UNL d   1      58.407  -3.954  28.477  0.00  0.00     0.101 C 
BRANCH   3   8
ATOM      8  N   UNL d   1      60.852  -2.531  29.113  0.00  0.00    -0.093 N 
ATOM      9  O   UNL d   1      61.133  -2.349  29.869  0.00  0.00    -0.530 OA
ATOM     10  O   UNL d   1      61.133  -2.102  28.455  0.00  0.00    -0.530 OA
ENDBRANCH   3   8
ENDBRANCH   1   2
BRANCH   1  11
ATOM     11  C   UNL d   1      58.756  -1.872  29.002  0.00  0.00     0.031 A 
ATOM     12  C   UNL d   1      58.798  -1.060  28.827  0.00  0.00     0.008 A 
ATOM     13  C   UNL d   1      58.469  -0.513  29.352  0.00  0.00     0.024 A 
ATOM     14  C   UNL d   1      58.109  -0.766  30.033  0.00  0.00     0.127 A 
ATOM     15  C   UNL d   1      58.070  -1.578  30.203  0.00  0.00     0.024 A 
ATOM     16  C   UNL d   1      58.390  -2.108  29.692  0.00  0.00     0.008 A 
BRANCH  14  17
ATOM     17  N   UNL d   1      57.783  -0.219  30.554  0.00  0.00    -0.114 N 
ATOM     18  O   UNL d   1      58.126   0.528  30.627  0.00  0.00    -0.532 OA
ATOM     19  O   UNL d   1      57.121  -0.414  30.999  0.00  0.00    -0.532 OA
ENDBRANCH  14  17
ENDBRANCH   1  11
TORSDOF 4
ENDMDL
