MODEL 1
REMARK VINA RESULT:      57.1      0.000      0.000
REMARK  5 active torsions:
REMARK  status: ('A' for Active; 'I' for Inactive)
REMARK    1  A    between atoms: C_14  and  C_4 
REMARK    2  A    between atoms: S_11  and  C_5 
REMARK    3  A    between atoms: C_10  and  C_12 
REMARK    4  A    between atoms: C_15  and  S_11 
REMARK    5  A    between atoms: C_12  and  C_15 
ROOT
ATOM      1  N   UNL d   1      14.230  14.253  -2.832  0.00  0.00    -0.206 N 
ATOM      2  C   UNL d   1      14.216  13.610  -2.308  0.00  0.00     0.166 A 
ATOM      3  N   UNL d   1      14.882  15.033  -1.852  0.00  0.00    -0.163 NA
ATOM      4  C   UNL d   1      14.532  13.677  -1.562  0.00  0.00     0.055 A 
ATOM      5  C   UNL d   1      13.909  14.164  -3.571  0.00  0.00     0.116 A 
ATOM      6  C   UNL d   1      14.869  14.401  -1.337  0.00  0.00     0.104 A 
ATOM      7  N   UNL d   1      13.882  12.896  -2.536  0.00  0.00    -0.227 NA
ATOM      8  C   UNL d   1      13.571  13.459  -3.816  0.00  0.00     0.045 A 
ATOM      9  C   UNL d   1      13.557  12.819  -3.295  0.00  0.00     0.085 A 
ATOM     10  C   UNL d   1      15.184  14.465  -0.593  0.00  0.00     0.023 C 
ATOM     11  C   UNL d   1      13.209  12.075  -3.532  0.00  0.00     0.021 C 
ENDROOT
BRANCH   5  12
ATOM     12  S   UNL d   1      13.923  14.827  -4.112  0.00  0.00    -0.064 SA
BRANCH  12  13
ATOM     13  C   UNL d   1      13.666  15.431  -4.648  0.00  0.00     0.079 C 
BRANCH  13  14
ATOM     14  C   UNL d   1      14.105  16.146  -4.723  0.00  0.00     0.208 C 
ATOM     15  O   UNL d   1      14.714  16.330  -4.167  0.00  0.00    -0.285 OA
BRANCH  14  16
ATOM     16  C   UNL d   1      13.938  16.686  -5.356  0.00  0.00     0.069 A 
ATOM     17  S   UNL d   1      14.461  17.303  -5.625  0.00  0.00    -0.083 SA
ATOM     18  C   UNL d   1      14.072  17.703  -6.263  0.00  0.00     0.035 A 
ATOM     19  C   UNL d   1      13.321  17.341  -6.389  0.00  0.00     0.008 A 
ATOM     20  C   UNL d   1      13.242  16.708  -5.821  0.00  0.00     0.010 A 
ENDBRANCH  14  16
ENDBRANCH  13  14
ENDBRANCH  12  13
ENDBRANCH   5  12
BRANCH   4  21
ATOM     21  C   UNL d   1      14.519  13.044  -1.046  0.00  0.00     0.004 A 
ATOM     22  C   UNL d   1      13.896  12.946  -0.541  0.00  0.00     0.000 A 
ATOM     23  C   UNL d   1      13.871  12.327  -0.028  0.00  0.00     0.000 A 
ATOM     24  C   UNL d   1      14.492  11.779  -0.014  0.00  0.00     0.000 A 
ATOM     25  C   UNL d   1      15.116  11.880  -0.523  0.00  0.00     0.000 A 
ATOM     26  C   UNL d   1      15.129  12.513  -1.039  0.00  0.00     0.000 A 
ENDBRANCH   4  21
TORSDOF 5
ENDMDL
MODEL 2
REMARK VINA RESULT:      57.5      2.041      3.674
REMARK  5 active torsions:
REMARK  status: ('A' for Active; 'I' for Inactive)
REMARK    1  A    between atoms: C_14  and  C_4 
REMARK    2  A    between atoms: S_11  and  C_5 
REMARK    3  A    between atoms: C_10  and  C_12 
REMARK    4  A    between atoms: C_15  and  S_11 
REMARK    5  A    between atoms: C_12  and  C_15 
ROOT
ATOM      1  N   UNL d   1      14.240  14.366  -2.332  0.00  0.00    -0.206 N 
ATOM      2  C   UNL d   1      14.594  15.050  -2.024  0.00  0.00     0.166 A 
ATOM      3  N   UNL d   1      14.448  13.708  -1.100  0.00  0.00    -0.163 NA
ATOM      4  C   UNL d   1      14.873  15.065  -1.261  0.00  0.00     0.055 A 
ATOM      5  C   UNL d   1      13.969  14.374  -3.096  0.00  0.00     0.116 A 
ATOM      6  C   UNL d   1      14.796  14.381  -0.797  0.00  0.00     0.104 A 
ATOM      7  N   UNL d   1      14.667  15.724  -2.488  0.00  0.00    -0.227 NA
ATOM      8  C   UNL d   1      14.033  15.037  -3.573  0.00  0.00     0.045 A 
ATOM      9  C   UNL d   1      14.385  15.717  -3.267  0.00  0.00     0.085 A 
ATOM     10  C   UNL d   1      15.075  14.398  -0.036  0.00  0.00     0.023 C 
ATOM     11  C   UNL d   1      14.462  16.419  -3.750  0.00  0.00     0.021 C 
ENDROOT
BRANCH   5  12
ATOM     12  S   UNL d   1      13.603  13.668  -3.414  0.00  0.00    -0.064 SA
BRANCH  12  13
ATOM     13  C   UNL d   1      13.042  13.151  -3.783  0.00  0.00     0.079 C 
BRANCH  13  14
ATOM     14  C   UNL d   1      13.263  12.366  -3.994  0.00  0.00     0.208 C 
ATOM     15  O   UNL d   1      13.366  11.780  -3.396  0.00  0.00    -0.285 OA
BRANCH  14  16
ATOM     16  C   UNL d   1      13.384  12.160  -4.809  0.00  0.00     0.069 A 
ATOM     17  S   UNL d   1      12.769  11.943  -5.356  0.00  0.00    -0.083 SA
ATOM     18  C   UNL d   1      13.138  11.784  -6.101  0.00  0.00     0.035 A 
ATOM     19  C   UNL d   1      13.969  11.900  -6.019  0.00  0.00     0.008 A 
ATOM     20  C   UNL d   1      14.118  12.135  -5.211  0.00  0.00     0.010 A 
ENDBRANCH  14  16
ENDBRANCH  13  14
ENDBRANCH  12  13
ENDBRANCH   5  12
BRANCH   4  21
ATOM     21  C   UNL d   1      15.221  15.738  -0.958  0.00  0.00     0.004 A 
ATOM     22  C   UNL d   1      15.823  15.677  -0.421  0.00  0.00     0.000 A 
ATOM     23  C   UNL d   1      16.174  16.333  -0.116  0.00  0.00     0.000 A 
ATOM     24  C   UNL d   1      15.918  17.084  -0.351  0.00  0.00     0.000 A 
ATOM     25  C   UNL d   1      15.314  17.142  -0.890  0.00  0.00     0.000 A 
ATOM     26  C   UNL d   1      14.965  16.468  -1.193  0.00  0.00     0.000 A 
ENDBRANCH   4  21
TORSDOF 5
ENDMDL
