MODEL 1
REMARK VINA RESULT:      77.2      0.000      0.000
REMARK  5 active torsions:
REMARK  status: ('A' for Active; 'I' for Inactive)
REMARK    1  A    between atoms: C_12  and  N_4 
REMARK    2  A    between atoms: C_10  and  N_6 
REMARK    3  A    between atoms: C_11  and  C_10 
REMARK       I    between atoms: N_14  and  C_11 
REMARK    4  A    between atoms: C_16  and  N_14 
REMARK    5  A    between atoms: C_17  and  C_16 
ROOT
ATOM      1  C   UNL d   1     -55.634-100.528 -43.544  0.00  0.00     0.172 A 
ATOM      2  C   UNL d   1     -55.566-100.466 -44.364  0.00  0.00     0.113 A 
ATOM      3  N   UNL d   1     -56.143-100.032 -43.134  0.00  0.00    -0.206 NA
ATOM      4  N   UNL d   1     -55.124-101.134 -43.297  0.00  0.00    -0.212 N 
ATOM      5  C   UNL d   1     -56.006 -99.910 -44.774  0.00  0.00     0.271 A 
ATOM      6  N   UNL d   1     -56.522 -99.407 -44.365  0.00  0.00    -0.251 N 
ATOM      7  N   UNL d   1     -54.753-101.434 -43.962  0.00  0.00    -0.162 NA
ATOM      8  C   UNL d   1     -56.590 -99.468 -43.545  0.00  0.00     0.187 A 
ATOM      9  C   UNL d   1     -55.014-101.036 -44.609  0.00  0.00     0.129 A 
ATOM     10  O   UNL d   1     -55.938 -99.848 -45.594  0.00  0.00    -0.266 OA
ENDROOT
BRANCH   6  11
ATOM     11  C   UNL d   1     -56.974 -98.838 -44.775  0.00  0.00     0.147 C 
BRANCH  11  12
ATOM     12  C   UNL d   1     -57.798 -98.928 -44.839  0.00  0.00     0.297 C 
ATOM     13  N   UNL d   1     -58.152 -98.858 -45.580  0.00  0.00    -0.205 NA
ATOM     14  O   UNL d   1     -58.242 -99.083 -44.171  0.00  0.00    -0.264 OA
BRANCH  13  15
ATOM     15  C   UNL d   1     -58.976 -98.947 -45.644  0.00  0.00     0.102 C 
BRANCH  15  16
ATOM     16  C   UNL d   1     -59.287 -99.238 -46.343  0.00  0.00     0.019 A 
ATOM     17  C   UNL d   1     -59.608 -99.988 -46.378  0.00  0.00     0.002 A 
ATOM     18  C   UNL d   1     -59.923-100.278 -47.092  0.00  0.00     0.000 A 
ATOM     19  C   UNL d   1     -59.905 -99.795 -47.761  0.00  0.00     0.000 A 
ATOM     20  C   UNL d   1     -59.585 -99.044 -47.733  0.00  0.00     0.000 A 
ATOM     21  C   UNL d   1     -59.270 -98.755 -47.019  0.00  0.00     0.002 A 
ENDBRANCH  15  16
ENDBRANCH  13  15
ENDBRANCH  11  12
ENDBRANCH   6  11
BRANCH   4  22
ATOM     22  C   UNL d   1     -54.988-101.411 -42.544  0.00  0.00     0.085 A 
ATOM     23  C   UNL d   1     -54.918-102.229 -42.406  0.00  0.00     0.019 A 
ATOM     24  C   UNL d   1     -54.781-102.501 -41.647  0.00  0.00     0.002 A 
ATOM     25  C   UNL d   1     -54.711-101.958 -41.007  0.00  0.00     0.000 A 
ATOM     26  C   UNL d   1     -54.781-101.162 -41.155  0.00  0.00     0.002 A 
ATOM     27  C   UNL d   1     -54.919-100.879 -41.915  0.00  0.00     0.019 A 
ENDBRANCH   4  22
TORSDOF 5
ENDMDL
MODEL 2
REMARK VINA RESULT:      77.5      1.482      2.227
REMARK  5 active torsions:
REMARK  status: ('A' for Active; 'I' for Inactive)
REMARK    1  A    between atoms: C_12  and  N_4 
REMARK    2  A    between atoms: C_10  and  N_6 
REMARK    3  A    between atoms: C_11  and  C_10 
REMARK       I    between atoms: N_14  and  C_11 
REMARK    4  A    between atoms: C_16  and  N_14 
REMARK    5  A    between atoms: C_17  and  C_16 
ROOT
ATOM      1  C   UNL d   1     -55.126-100.657 -42.680  0.00  0.00     0.172 A 
ATOM      2  C   UNL d   1     -54.999 -99.858 -42.840  0.00  0.00     0.113 A 
ATOM      3  N   UNL d   1     -55.385-101.161 -43.274  0.00  0.00    -0.206 NA
ATOM      4  N   UNL d   1     -54.945-100.781 -41.880  0.00  0.00    -0.212 N 
ATOM      5  C   UNL d   1     -55.131 -99.562 -43.594  0.00  0.00     0.271 A 
ATOM      6  N   UNL d   1     -55.392-100.066 -44.196  0.00  0.00    -0.251 N 
ATOM      7  N   UNL d   1     -54.712-100.064 -41.562  0.00  0.00    -0.162 NA
ATOM      8  C   UNL d   1     -55.519-100.866 -44.036  0.00  0.00     0.187 A 
ATOM      9  C   UNL d   1     -54.742 -99.502 -42.136  0.00  0.00     0.129 A 
ATOM     10  O   UNL d   1     -55.004 -98.763 -43.753  0.00  0.00    -0.266 OA
ENDROOT
BRANCH   6  11
ATOM     11  C   UNL d   1     -55.529 -99.773 -44.965  0.00  0.00     0.147 C 
BRANCH  11  12
ATOM     12  C   UNL d   1     -56.304 -99.609 -45.217  0.00  0.00     0.297 C 
ATOM     13  N   UNL d   1     -56.713 -98.981 -44.871  0.00  0.00    -0.205 NA
ATOM     14  O   UNL d   1     -56.648-100.069 -45.798  0.00  0.00    -0.264 OA
BRANCH  13  15
ATOM     15  C   UNL d   1     -57.487 -98.817 -45.123  0.00  0.00     0.102 C 
BRANCH  15  16
ATOM     16  C   UNL d   1     -58.094 -98.847 -44.574  0.00  0.00     0.019 A 
ATOM     17  C   UNL d   1     -58.869 -98.952 -44.811  0.00  0.00     0.002 A 
ATOM     18  C   UNL d   1     -59.480 -98.981 -44.248  0.00  0.00     0.000 A 
ATOM     19  C   UNL d   1     -59.291 -98.904 -43.448  0.00  0.00     0.000 A 
ATOM     20  C   UNL d   1     -58.518 -98.799 -43.204  0.00  0.00     0.000 A 
ATOM     21  C   UNL d   1     -57.907 -98.769 -43.768  0.00  0.00     0.002 A 
ENDBRANCH  15  16
ENDBRANCH  13  15
ENDBRANCH  11  12
ENDBRANCH   6  11
BRANCH   4  22
ATOM     22  C   UNL d   1     -54.980-101.472 -41.451  0.00  0.00     0.085 A 
ATOM     23  C   UNL d   1     -54.725-102.189 -41.791  0.00  0.00     0.019 A 
ATOM     24  C   UNL d   1     -54.762-102.880 -41.355  0.00  0.00     0.002 A 
ATOM     25  C   UNL d   1     -55.056-102.869 -40.566  0.00  0.00     0.000 A 
ATOM     26  C   UNL d   1     -55.302-102.164 -40.245  0.00  0.00     0.002 A 
ATOM     27  C   UNL d   1     -55.268-101.464 -40.676  0.00  0.00     0.019 A 
ENDBRANCH   4  22
TORSDOF 5
ENDMDL
