MODEL 1
REMARK VINA RESULT:      -2.9      0.000      0.000
REMARK  6 active torsions:
REMARK  status: ('A' for Active; 'I' for Inactive)
REMARK    1  A    between atoms: C_5  and  C_1 
REMARK    2  A    between atoms: O_8  and  C_5 
REMARK    3  A    between atoms: C_9  and  O_8 
REMARK    4  A    between atoms: C_14  and  C_10 
REMARK    5  A    between atoms: O_20  and  C_11 
REMARK    6  A    between atoms: O_21  and  C_16 
ROOT
ATOM      1  C   UNL d   1      32.981  19.994 -21.897  0.00  0.00     0.305 C 
ATOM      2  O   UNL d   1      32.708  19.370 -21.429  0.00  0.00    -0.259 OA
ENDROOT
BRANCH   1   3
ATOM      3  C   UNL d   1      32.991  20.767 -21.590  0.00  0.00     0.127 A 
ATOM      4  C   UNL d   1      33.123  20.880 -20.774  0.00  0.00     0.305 A 
ATOM      5  O   UNL d   1      33.135  21.645 -20.466  0.00  0.00    -0.271 OA
ATOM      6  O   UNL d   1      33.241  20.232 -20.283  0.00  0.00    -0.259 OA
ATOM      7  C   UNL d   1      33.016  22.291 -20.965  0.00  0.00     0.125 A 
ATOM      8  C   UNL d   1      32.885  22.179 -21.774  0.00  0.00     0.025 A 
ATOM      9  C   UNL d   1      33.027  23.056 -20.657  0.00  0.00     0.117 A 
ATOM     10  C   UNL d   1      32.873  21.405 -22.088  0.00  0.00     0.013 A 
ATOM     11  C   UNL d   1      32.767  22.826 -22.269  0.00  0.00     0.002 A 
ATOM     12  C   UNL d   1      32.779  23.583 -21.959  0.00  0.00     0.002 A 
ATOM     13  C   UNL d   1      32.909  23.702 -21.152  0.00  0.00     0.026 A 
BRANCH   9  14
ATOM     14  O   UNL d   1      33.157  23.170 -19.856  0.00  0.00    -0.326 OA
ATOM     15  C   UNL d   1      32.605  23.587 -19.399  0.00  0.00     0.181 C 
ENDBRANCH   9  14
ENDBRANCH   1   3
BRANCH   1  16
ATOM     16  O   UNL d   1      33.241  19.850 -22.667  0.00  0.00    -0.271 OA
BRANCH  16  17
ATOM     17  C   UNL d   1      33.089  19.121 -23.022  0.00  0.00     0.126 A 
ATOM     18  C   UNL d   1      33.045  19.066 -23.844  0.00  0.00     0.117 A 
ATOM     19  C   UNL d   1      32.894  18.344 -24.205  0.00  0.00     0.029 A 
ATOM     20  C   UNL d   1      32.784  17.664 -23.734  0.00  0.00     0.041 A 
ATOM     21  C   UNL d   1      32.827  17.719 -22.912  0.00  0.00     0.005 A 
ATOM     22  C   UNL d   1      32.980  18.447 -22.556  0.00  0.00     0.027 A 
BRANCH  18  23
ATOM     23  O   UNL d   1      33.155  19.745 -24.304  0.00  0.00    -0.326 OA
ATOM     24  C   UNL d   1      32.919  19.753 -25.097  0.00  0.00     0.181 C 
ENDBRANCH  18  23
BRANCH  20  25
ATOM     25  C   UNL d   1      32.630  16.929 -24.099  0.00  0.00     0.196 C 
ATOM     26  O   UNL d   1      33.177  16.616 -24.635  0.00  0.00    -0.287 OA
ATOM     27  C   UNL d   1      31.931  16.518 -23.923  0.00  0.00     0.045 C 
ENDBRANCH  20  25
ENDBRANCH  16  17
ENDBRANCH   1  16
TORSDOF 6
ENDMDL
MODEL 2
REMARK VINA RESULT:      -2.2      1.080      5.490
REMARK  6 active torsions:
REMARK  status: ('A' for Active; 'I' for Inactive)
REMARK    1  A    between atoms: C_5  and  C_1 
REMARK    2  A    between atoms: O_8  and  C_5 
REMARK    3  A    between atoms: C_9  and  O_8 
REMARK    4  A    between atoms: C_14  and  C_10 
REMARK    5  A    between atoms: O_20  and  C_11 
REMARK    6  A    between atoms: O_21  and  C_16 
ROOT
ATOM      1  C   UNL d   1      32.935  19.506 -23.701  0.00  0.00     0.305 C 
ATOM      2  O   UNL d   1      32.881  20.030 -24.339  0.00  0.00    -0.259 OA
ENDROOT
BRANCH   1   3
ATOM      3  C   UNL d   1      32.680  18.719 -23.789  0.00  0.00     0.127 A 
ATOM      4  C   UNL d   1      32.073  18.547 -24.336  0.00  0.00     0.305 A 
ATOM      5  O   UNL d   1      31.818  17.768 -24.427  0.00  0.00    -0.271 OA
ATOM      6  O   UNL d   1      31.734  19.149 -24.779  0.00  0.00    -0.259 OA
ATOM      7  C   UNL d   1      32.162  17.167 -23.979  0.00  0.00     0.125 A 
ATOM      8  C   UNL d   1      32.764  17.338 -23.437  0.00  0.00     0.025 A 
ATOM      9  C   UNL d   1      31.907  16.388 -24.070  0.00  0.00     0.117 A 
ATOM     10  C   UNL d   1      33.024  18.127 -23.343  0.00  0.00     0.013 A 
ATOM     11  C   UNL d   1      33.106  16.737 -22.992  0.00  0.00     0.002 A 
ATOM     12  C   UNL d   1      32.849  15.965 -23.085  0.00  0.00     0.002 A 
ATOM     13  C   UNL d   1      32.249  15.787 -23.624  0.00  0.00     0.026 A 
BRANCH   9  14
ATOM     14  O   UNL d   1      31.312  16.215 -24.605  0.00  0.00    -0.326 OA
ATOM     15  C   UNL d   1      30.918  15.487 -24.570  0.00  0.00     0.181 C 
ENDBRANCH   9  14
ENDBRANCH   1   3
BRANCH   1  16
ATOM     16  O   UNL d   1      33.240  19.764 -22.979  0.00  0.00    -0.271 OA
BRANCH  16  17
ATOM     17  C   UNL d   1      33.202  20.564 -22.779  0.00  0.00     0.126 A 
ATOM     18  C   UNL d   1      33.127  20.786 -21.988  0.00  0.00     0.117 A 
ATOM     19  C   UNL d   1      33.089  21.580 -21.782  0.00  0.00     0.029 A 
ATOM     20  C   UNL d   1      33.126  22.163 -22.379  0.00  0.00     0.041 A 
ATOM     21  C   UNL d   1      33.200  21.940 -23.170  0.00  0.00     0.005 A 
ATOM     22  C   UNL d   1      33.238  21.141 -23.370  0.00  0.00     0.027 A 
BRANCH  18  23
ATOM     23  O   UNL d   1      33.091  20.203 -21.403  0.00  0.00    -0.326 OA
ATOM     24  C   UNL d   1      33.021  20.417 -20.607  0.00  0.00     0.181 C 
ENDBRANCH  18  23
BRANCH  20  25
ATOM     25  C   UNL d   1      33.087  22.971 -22.170  0.00  0.00     0.196 C 
ATOM     26  O   UNL d   1      32.913  23.183 -21.390  0.00  0.00    -0.287 OA
ATOM     27  C   UNL d   1      33.222  23.553 -22.745  0.00  0.00     0.045 C 
ENDBRANCH  20  25
ENDBRANCH  16  17
ENDBRANCH   1  16
TORSDOF 6
ENDMDL
MODEL 3
REMARK VINA RESULT:      -1.5      1.187      2.257
REMARK  6 active torsions:
REMARK  status: ('A' for Active; 'I' for Inactive)
REMARK    1  A    between atoms: C_5  and  C_1 
REMARK    2  A    between atoms: O_8  and  C_5 
REMARK    3  A    between atoms: C_9  and  O_8 
REMARK    4  A    between atoms: C_14  and  C_10 
REMARK    5  A    between atoms: O_20  and  C_11 
REMARK    6  A    between atoms: O_21  and  C_16 
ROOT
ATOM      1  C   UNL d   1      32.837  19.605 -23.694  0.00  0.00     0.305 C 
ATOM      2  O   UNL d   1      32.598  19.805 -24.460  0.00  0.00    -0.259 OA
ENDROOT
BRANCH   1   3
ATOM      3  C   UNL d   1      32.891  20.196 -23.111  0.00  0.00     0.127 A 
ATOM      4  C   UNL d   1      33.076  20.978 -23.340  0.00  0.00     0.305 A 
ATOM      5  O   UNL d   1      33.131  21.567 -22.765  0.00  0.00    -0.271 OA
ATOM      6  O   UNL d   1      33.202  21.157 -24.131  0.00  0.00    -0.259 OA
ATOM      7  C   UNL d   1      33.004  21.380 -21.972  0.00  0.00     0.125 A 
ATOM      8  C   UNL d   1      32.820  20.606 -21.745  0.00  0.00     0.025 A 
ATOM      9  C   UNL d   1      33.059  21.969 -21.397  0.00  0.00     0.117 A 
ATOM     10  C   UNL d   1      32.764  20.008 -22.326  0.00  0.00     0.013 A 
ATOM     11  C   UNL d   1      32.694  20.423 -20.953  0.00  0.00     0.002 A 
ATOM     12  C   UNL d   1      32.749  21.011 -20.386  0.00  0.00     0.002 A 
ATOM     13  C   UNL d   1      32.932  21.786 -20.604  0.00  0.00     0.026 A 
BRANCH   9  14
ATOM     14  O   UNL d   1      33.240  22.737 -21.617  0.00  0.00    -0.326 OA
ATOM     15  C   UNL d   1      33.163  23.357 -21.072  0.00  0.00     0.181 C 
ENDBRANCH   9  14
ENDBRANCH   1   3
BRANCH   1  16
ATOM     16  O   UNL d   1      33.020  18.822 -23.509  0.00  0.00    -0.271 OA
BRANCH  16  17
ATOM     17  C   UNL d   1      32.542  18.211 -23.788  0.00  0.00     0.126 A 
ATOM     18  C   UNL d   1      32.603  17.457 -23.459  0.00  0.00     0.117 A 
ATOM     19  C   UNL d   1      32.130  16.845 -23.732  0.00  0.00     0.029 A 
ATOM     20  C   UNL d   1      31.585  16.989 -24.348  0.00  0.00     0.041 A 
ATOM     21  C   UNL d   1      31.523  17.742 -24.677  0.00  0.00     0.005 A 
ATOM     22  C   UNL d   1      32.001  18.354 -24.398  0.00  0.00     0.027 A 
BRANCH  18  23
ATOM     23  O   UNL d   1      33.146  17.322 -22.850  0.00  0.00    -0.326 OA
ATOM     24  C   UNL d   1      33.007  16.726 -22.293  0.00  0.00     0.181 C 
ENDBRANCH  18  23
BRANCH  20  25
ATOM     25  C   UNL d   1      31.103  16.366 -24.627  0.00  0.00     0.196 C 
ATOM     26  O   UNL d   1      30.293  16.370 -24.462  0.00  0.00    -0.287 OA
ATOM     27  C   UNL d   1      31.440  15.748 -25.066  0.00  0.00     0.045 C 
ENDBRANCH  20  25
ENDBRANCH  16  17
ENDBRANCH   1  16
TORSDOF 6
ENDMDL
MODEL 4
REMARK VINA RESULT:       0.0      1.921      5.365
REMARK  6 active torsions:
REMARK  status: ('A' for Active; 'I' for Inactive)
REMARK    1  A    between atoms: C_5  and  C_1 
REMARK    2  A    between atoms: O_8  and  C_5 
REMARK    3  A    between atoms: C_9  and  O_8 
REMARK    4  A    between atoms: C_14  and  C_10 
REMARK    5  A    between atoms: O_20  and  C_11 
REMARK    6  A    between atoms: O_21  and  C_16 
ROOT
ATOM      1  C   UNL d   1      32.244  18.141 -23.516  0.00  0.00     0.305 C 
ATOM      2  O   UNL d   1      32.872  17.770 -23.126  0.00  0.00    -0.259 OA
ENDROOT
BRANCH   1   3
ATOM      3  C   UNL d   1      31.557  17.708 -23.698  0.00  0.00     0.127 A 
ATOM      4  C   UNL d   1      31.453  16.950 -23.364  0.00  0.00     0.305 A 
ATOM      5  O   UNL d   1      30.773  16.518 -23.542  0.00  0.00    -0.271 OA
ATOM      6  O   UNL d   1      32.023  16.639 -22.863  0.00  0.00    -0.259 OA
ATOM      7  C   UNL d   1      30.204  16.836 -24.047  0.00  0.00     0.125 A 
ATOM      8  C   UNL d   1      30.307  17.587 -24.377  0.00  0.00     0.025 A 
ATOM      9  C   UNL d   1      29.524  16.404 -24.224  0.00  0.00     0.117 A 
ATOM     10  C   UNL d   1      30.995  18.027 -24.199  0.00  0.00     0.013 A 
ATOM     11  C   UNL d   1      29.737  17.902 -24.880  0.00  0.00     0.002 A 
ATOM     12  C   UNL d   1      29.064  17.469 -25.054  0.00  0.00     0.002 A 
ATOM     13  C   UNL d   1      28.954  16.719 -24.727  0.00  0.00     0.026 A 
BRANCH   9  14
ATOM     14  O   UNL d   1      29.418  15.660 -23.899  0.00  0.00    -0.326 OA
ATOM     15  C   UNL d   1      28.740  15.492 -23.453  0.00  0.00     0.181 C 
ENDBRANCH   9  14
ENDBRANCH   1   3
BRANCH   1  16
ATOM     16  O   UNL d   1      32.299  18.937 -23.724  0.00  0.00    -0.271 OA
BRANCH  16  17
ATOM     17  C   UNL d   1      32.507  19.497 -23.155  0.00  0.00     0.126 A 
ATOM     18  C   UNL d   1      32.784  20.238 -23.389  0.00  0.00     0.117 A 
ATOM     19  C   UNL d   1      32.992  20.800 -22.828  0.00  0.00     0.029 A 
ATOM     20  C   UNL d   1      32.923  20.617 -22.017  0.00  0.00     0.041 A 
ATOM     21  C   UNL d   1      32.647  19.876 -21.782  0.00  0.00     0.005 A 
ATOM     22  C   UNL d   1      32.439  19.316 -22.351  0.00  0.00     0.027 A 
BRANCH  18  23
ATOM     23  O   UNL d   1      32.849  20.412 -24.195  0.00  0.00    -0.326 OA
ATOM     24  C   UNL d   1      32.855  21.198 -24.452  0.00  0.00     0.181 C 
ENDBRANCH  18  23
BRANCH  20  25
ATOM     25  C   UNL d   1      33.135  21.187 -21.445  0.00  0.00     0.196 C 
ATOM     26  O   UNL d   1      33.240  21.975 -21.673  0.00  0.00    -0.287 OA
ATOM     27  C   UNL d   1      33.239  20.961 -20.653  0.00  0.00     0.045 C 
ENDBRANCH  20  25
ENDBRANCH  16  17
ENDBRANCH   1  16
TORSDOF 6
ENDMDL
