MODEL 1
REMARK VINA RESULT:      -7.0      0.000      0.000
REMARK  4 active torsions:
REMARK  status: ('A' for Active; 'I' for Inactive)
REMARK    1  A    between atoms: C_2  and  N_1 
REMARK    2  A    between atoms: N_7  and  C_3 
REMARK    3  A    between atoms: C_12  and  N_7 
REMARK    4  A    between atoms: C_13  and  C_12 
ROOT
ATOM      1  C   UNL d   1     -49.847  14.015  22.237  0.00  0.00     0.200 A 
ATOM      2  C   UNL d   1     -49.173  14.106  22.720  0.00  0.00     0.189 A 
ATOM      3  C   UNL d   1     -50.390  14.621  22.198  0.00  0.00     0.210 A 
ATOM      4  N   UNL d   1     -49.061  14.799  23.152  0.00  0.00    -0.203 NA
ATOM      5  N   UNL d   1     -50.293  15.309  22.616  0.00  0.00    -0.202 NA
ATOM      6  C   UNL d   1     -49.620  15.399  23.100  0.00  0.00     0.202 A 
ATOM      7  N   UNL d   1     -51.063  14.530  21.715  0.00  0.00    -0.125 N 
ENDROOT
BRANCH   2   8
ATOM      8  N   UNL d   1     -48.616  13.511  22.773  0.00  0.00    -0.224 NA
BRANCH   8   9
ATOM      9  C   UNL d   1     -47.995  13.568  23.300  0.00  0.00     0.101 C 
BRANCH   9  10
ATOM     10  C   UNL d   1     -47.405  12.987  23.313  0.00  0.00     0.019 A 
ATOM     11  C   UNL d   1     -46.674  13.130  22.941  0.00  0.00     0.002 A 
ATOM     12  C   UNL d   1     -46.088  12.550  22.955  0.00  0.00     0.000 A 
ATOM     13  C   UNL d   1     -46.220  11.846  23.328  0.00  0.00     0.000 A 
ATOM     14  C   UNL d   1     -46.943  11.699  23.698  0.00  0.00     0.000 A 
ATOM     15  C   UNL d   1     -45.638  11.266  23.343  0.00  0.00     0.000 C 
ATOM     16  C   UNL d   1     -47.537  12.283  23.686  0.00  0.00     0.002 A 
ENDBRANCH   9  10
ENDBRANCH   8   9
ENDBRANCH   2   8
BRANCH   1  17
ATOM     17  N   UNL d   1     -49.962  13.330  21.807  0.00  0.00    -0.107 N 
ATOM     18  O   UNL d   1     -49.643  13.271  21.062  0.00  0.00    -0.531 OA
ATOM     19  O   UNL d   1     -50.396  12.711  22.127  0.00  0.00    -0.531 OA
ENDBRANCH   1  17
TORSDOF 4
ENDMDL
MODEL 2
REMARK VINA RESULT:      -6.4      1.916      4.227
REMARK  4 active torsions:
REMARK  status: ('A' for Active; 'I' for Inactive)
REMARK    1  A    between atoms: C_2  and  N_1 
REMARK    2  A    between atoms: N_7  and  C_3 
REMARK    3  A    between atoms: C_12  and  N_7 
REMARK    4  A    between atoms: C_13  and  C_12 
ROOT
ATOM      1  C   UNL d   1     -46.727  12.456  23.144  0.00  0.00     0.200 A 
ATOM      2  C   UNL d   1     -47.543  12.337  23.265  0.00  0.00     0.189 A 
ATOM      3  C   UNL d   1     -46.211  11.847  23.304  0.00  0.00     0.210 A 
ATOM      4  N   UNL d   1     -47.821  11.611  23.542  0.00  0.00    -0.203 NA
ATOM      5  N   UNL d   1     -46.468  11.129  23.577  0.00  0.00    -0.202 NA
ATOM      6  C   UNL d   1     -47.285  11.009  23.698  0.00  0.00     0.202 A 
ATOM      7  N   UNL d   1     -45.394  11.967  23.182  0.00  0.00    -0.125 N 
ENDROOT
BRANCH   2   8
ATOM      8  N   UNL d   1     -48.079  12.934  23.111  0.00  0.00    -0.224 NA
BRANCH   8   9
ATOM      9  C   UNL d   1     -48.882  12.799  23.174  0.00  0.00     0.101 C 
BRANCH   9  10
ATOM     10  C   UNL d   1     -49.421  13.391  22.960  0.00  0.00     0.019 A 
ATOM     11  C   UNL d   1     -49.599  14.002  23.497  0.00  0.00     0.002 A 
ATOM     12  C   UNL d   1     -50.136  14.590  23.283  0.00  0.00     0.000 A 
ATOM     13  C   UNL d   1     -50.489  14.575  22.556  0.00  0.00     0.000 A 
ATOM     14  C   UNL d   1     -50.316  13.971  22.021  0.00  0.00     0.000 A 
ATOM     15  C   UNL d   1     -51.024  15.160  22.340  0.00  0.00     0.000 C 
ATOM     16  C   UNL d   1     -49.774  13.376  22.234  0.00  0.00     0.002 A 
ENDBRANCH   9  10
ENDBRANCH   8   9
ENDBRANCH   2   8
BRANCH   1  17
ATOM     17  N   UNL d   1     -46.447  13.173  22.869  0.00  0.00    -0.107 N 
ATOM     18  O   UNL d   1     -46.224  13.742  23.404  0.00  0.00    -0.531 OA
ATOM     19  O   UNL d   1     -46.393  13.312  22.062  0.00  0.00    -0.531 OA
ENDBRANCH   1  17
TORSDOF 4
ENDMDL
MODEL 3
REMARK VINA RESULT:      -5.3      9.396     10.145
REMARK  4 active torsions:
REMARK  status: ('A' for Active; 'I' for Inactive)
REMARK    1  A    between atoms: C_2  and  N_1 
REMARK    2  A    between atoms: N_7  and  C_3 
REMARK    3  A    between atoms: C_12  and  N_7 
REMARK    4  A    between atoms: C_13  and  C_12 
ROOT
ATOM      1  C   UNL d   1     -39.659  14.595  17.918  0.00  0.00     0.200 A 
ATOM      2  C   UNL d   1     -39.208  14.874  18.562  0.00  0.00     0.189 A 
ATOM      3  C   UNL d   1     -39.616  14.988  17.207  0.00  0.00     0.210 A 
ATOM      4  N   UNL d   1     -38.727  15.538  18.477  0.00  0.00    -0.203 NA
ATOM      5  N   UNL d   1     -39.148  15.643  17.107  0.00  0.00    -0.202 NA
ATOM      6  C   UNL d   1     -38.698  15.922  17.751  0.00  0.00     0.202 A 
ATOM      7  N   UNL d   1     -40.067  14.709  16.563  0.00  0.00    -0.125 N 
ENDROOT
BRANCH   2   8
ATOM      8  N   UNL d   1     -39.236  14.494  19.285  0.00  0.00    -0.224 NA
BRANCH   8   9
ATOM      9  C   UNL d   1     -38.821  14.786  19.925  0.00  0.00     0.101 C 
BRANCH   9  10
ATOM     10  C   UNL d   1     -38.846  14.392  20.652  0.00  0.00     0.019 A 
ATOM     11  C   UNL d   1     -38.269  13.820  20.834  0.00  0.00     0.002 A 
ATOM     12  C   UNL d   1     -38.295  13.428  21.559  0.00  0.00     0.000 A 
ATOM     13  C   UNL d   1     -38.879  13.597  22.093  0.00  0.00     0.000 A 
ATOM     14  C   UNL d   1     -39.453  14.163  21.917  0.00  0.00     0.000 A 
ATOM     15  C   UNL d   1     -38.908  13.208  22.816  0.00  0.00     0.000 C 
ATOM     16  C   UNL d   1     -39.429  14.561  21.186  0.00  0.00     0.002 A 
ENDBRANCH   9  10
ENDBRANCH   8   9
ENDBRANCH   2   8
BRANCH   1  17
ATOM     17  N   UNL d   1     -40.137  13.937  17.998  0.00  0.00    -0.107 N 
ATOM     18  O   UNL d   1     -39.815  13.199  17.889  0.00  0.00    -0.531 OA
ATOM     19  O   UNL d   1     -40.930  14.024  18.185  0.00  0.00    -0.531 OA
ENDBRANCH   1  17
TORSDOF 4
ENDMDL
MODEL 4
REMARK VINA RESULT:      -5.1      1.482      1.882
REMARK  4 active torsions:
REMARK  status: ('A' for Active; 'I' for Inactive)
REMARK    1  A    between atoms: C_2  and  N_1 
REMARK    2  A    between atoms: N_7  and  C_3 
REMARK    3  A    between atoms: C_12  and  N_7 
REMARK    4  A    between atoms: C_13  and  C_12 
ROOT
ATOM      1  C   UNL d   1     -49.854  14.630  23.212  0.00  0.00     0.200 A 
ATOM      2  C   UNL d   1     -49.416  13.920  23.190  0.00  0.00     0.189 A 
ATOM      3  C   UNL d   1     -50.627  14.610  23.465  0.00  0.00     0.210 A 
ATOM      4  N   UNL d   1     -49.765  13.209  23.423  0.00  0.00    -0.203 NA
ATOM      5  N   UNL d   1     -50.984  13.919  23.696  0.00  0.00    -0.202 NA
ATOM      6  C   UNL d   1     -50.546  13.209  23.675  0.00  0.00     0.202 A 
ATOM      7  N   UNL d   1     -51.065  15.320  23.486  0.00  0.00    -0.125 N 
ENDROOT
BRANCH   2   8
ATOM      8  N   UNL d   1     -48.639  13.917  22.940  0.00  0.00    -0.224 NA
BRANCH   8   9
ATOM      9  C   UNL d   1     -48.159  13.270  23.077  0.00  0.00     0.101 C 
BRANCH   9  10
ATOM     10  C   UNL d   1     -47.373  13.273  22.819  0.00  0.00     0.019 A 
ATOM     11  C   UNL d   1     -46.772  13.556  23.322  0.00  0.00     0.002 A 
ATOM     12  C   UNL d   1     -45.990  13.558  23.063  0.00  0.00     0.000 A 
ATOM     13  C   UNL d   1     -45.804  13.287  22.325  0.00  0.00     0.000 A 
ATOM     14  C   UNL d   1     -46.395  13.006  21.823  0.00  0.00     0.000 A 
ATOM     15  C   UNL d   1     -45.024  13.288  22.064  0.00  0.00     0.000 C 
ATOM     16  C   UNL d   1     -47.187  13.002  22.081  0.00  0.00     0.002 A 
ENDBRANCH   9  10
ENDBRANCH   8   9
ENDBRANCH   2   8
BRANCH   1  17
ATOM     17  N   UNL d   1     -49.513  15.336  22.982  0.00  0.00    -0.107 N 
ATOM     18  O   UNL d   1     -49.217  15.835  23.551  0.00  0.00    -0.531 OA
ATOM     19  O   UNL d   1     -49.472  15.535  22.188  0.00  0.00    -0.531 OA
ENDBRANCH   1  17
TORSDOF 4
ENDMDL
MODEL 5
REMARK VINA RESULT:      -5.0      9.775     11.018
REMARK  4 active torsions:
REMARK  status: ('A' for Active; 'I' for Inactive)
REMARK    1  A    between atoms: C_2  and  N_1 
REMARK    2  A    between atoms: N_7  and  C_3 
REMARK    3  A    between atoms: C_12  and  N_7 
REMARK    4  A    between atoms: C_13  and  C_12 
ROOT
ATOM      1  C   UNL d   1     -38.605  14.118  16.975  0.00  0.00     0.200 A 
ATOM      2  C   UNL d   1     -38.867  14.863  17.243  0.00  0.00     0.189 A 
ATOM      3  C   UNL d   1     -38.215  14.070  16.261  0.00  0.00     0.210 A 
ATOM      4  N   UNL d   1     -38.733  15.539  16.790  0.00  0.00    -0.203 NA
ATOM      5  N   UNL d   1     -38.076  14.725  15.805  0.00  0.00    -0.202 NA
ATOM      6  C   UNL d   1     -38.339  15.470  16.073  0.00  0.00     0.202 A 
ATOM      7  N   UNL d   1     -37.953  13.325  15.993  0.00  0.00    -0.125 N 
ENDROOT
BRANCH   2   8
ATOM      8  N   UNL d   1     -39.259  14.934  17.956  0.00  0.00    -0.224 NA
BRANCH   8   9
ATOM      9  C   UNL d   1     -39.481  15.668  18.238  0.00  0.00     0.101 C 
BRANCH   9  10
ATOM     10  C   UNL d   1     -39.891  15.732  18.955  0.00  0.00     0.019 A 
ATOM     11  C   UNL d   1     -39.471  15.738  19.673  0.00  0.00     0.002 A 
ATOM     12  C   UNL d   1     -39.881  15.802  20.386  0.00  0.00     0.000 A 
ATOM     13  C   UNL d   1     -40.687  15.858  20.389  0.00  0.00     0.000 A 
ATOM     14  C   UNL d   1     -41.108  15.853  19.679  0.00  0.00     0.000 A 
ATOM     15  C   UNL d   1     -41.098  15.922  21.097  0.00  0.00     0.000 C 
ATOM     16  C   UNL d   1     -40.697  15.788  18.957  0.00  0.00     0.002 A 
ENDBRANCH   9  10
ENDBRANCH   8   9
ENDBRANCH   2   8
BRANCH   1  17
ATOM     17  N   UNL d   1     -38.735  13.445  17.420  0.00  0.00    -0.107 N 
ATOM     18  O   UNL d   1     -39.432  13.039  17.328  0.00  0.00    -0.531 OA
ATOM     19  O   UNL d   1     -38.166  13.186  17.951  0.00  0.00    -0.531 OA
ENDBRANCH   1  17
TORSDOF 4
ENDMDL
MODEL 6
REMARK VINA RESULT:      -4.9      9.260     10.274
REMARK  4 active torsions:
REMARK  status: ('A' for Active; 'I' for Inactive)
REMARK    1  A    between atoms: C_2  and  N_1 
REMARK    2  A    between atoms: N_7  and  C_3 
REMARK    3  A    between atoms: C_12  and  N_7 
REMARK    4  A    between atoms: C_13  and  C_12 
ROOT
ATOM      1  C   UNL d   1     -39.293  14.206  21.086  0.00  0.00     0.200 A 
ATOM      2  C   UNL d   1     -39.067  14.152  20.285  0.00  0.00     0.189 A 
ATOM      3  C   UNL d   1     -38.843  13.828  21.649  0.00  0.00     0.210 A 
ATOM      4  N   UNL d   1     -38.397  13.723  20.069  0.00  0.00    -0.203 NA
ATOM      5  N   UNL d   1     -38.181  13.403  21.453  0.00  0.00    -0.202 NA
ATOM      6  C   UNL d   1     -37.955  13.350  20.652  0.00  0.00     0.202 A 
ATOM      7  N   UNL d   1     -39.069  13.882  22.450  0.00  0.00    -0.125 N 
ENDROOT
BRANCH   2   8
ATOM      8  N   UNL d   1     -39.505  14.523  19.703  0.00  0.00    -0.224 NA
BRANCH   8   9
ATOM      9  C   UNL d   1     -39.315  14.428  18.915  0.00  0.00     0.101 C 
BRANCH   9  10
ATOM     10  C   UNL d   1     -39.763  14.806  18.330  0.00  0.00     0.019 A 
ATOM     11  C   UNL d   1     -40.430  14.426  18.008  0.00  0.00     0.002 A 
ATOM     12  C   UNL d   1     -40.874  14.805  17.426  0.00  0.00     0.000 A 
ATOM     13  C   UNL d   1     -40.665  15.541  17.167  0.00  0.00     0.000 A 
ATOM     14  C   UNL d   1     -40.005  15.922  17.484  0.00  0.00     0.000 A 
ATOM     15  C   UNL d   1     -41.107  15.921  16.587  0.00  0.00     0.000 C 
ATOM     16  C   UNL d   1     -39.554  15.543  18.072  0.00  0.00     0.002 A 
ENDBRANCH   9  10
ENDBRANCH   8   9
ENDBRANCH   2   8
BRANCH   1  17
ATOM     17  N   UNL d   1     -39.957  14.630  21.304  0.00  0.00    -0.107 N 
ATOM     18  O   UNL d   1     -39.875  15.409  21.519  0.00  0.00    -0.531 OA
ATOM     19  O   UNL d   1     -40.694  14.269  21.306  0.00  0.00    -0.531 OA
ENDBRANCH   1  17
TORSDOF 4
ENDMDL
MODEL 7
REMARK VINA RESULT:      -4.9      9.006     10.192
REMARK  4 active torsions:
REMARK  status: ('A' for Active; 'I' for Inactive)
REMARK    1  A    between atoms: C_2  and  N_1 
REMARK    2  A    between atoms: N_7  and  C_3 
REMARK    3  A    between atoms: C_12  and  N_7 
REMARK    4  A    between atoms: C_13  and  C_12 
ROOT
ATOM      1  C   UNL d   1     -39.703  15.464  20.646  0.00  0.00     0.200 A 
ATOM      2  C   UNL d   1     -40.085  15.303  19.922  0.00  0.00     0.189 A 
ATOM      3  C   UNL d   1     -40.140  15.760  21.266  0.00  0.00     0.210 A 
ATOM      4  N   UNL d   1     -40.893  15.444  19.839  0.00  0.00    -0.203 NA
ATOM      5  N   UNL d   1     -40.935  15.903  21.199  0.00  0.00    -0.202 NA
ATOM      6  C   UNL d   1     -41.317  15.742  20.475  0.00  0.00     0.202 A 
ATOM      7  N   UNL d   1     -39.758  15.920  21.990  0.00  0.00    -0.125 N 
ENDROOT
BRANCH   2   8
ATOM      8  N   UNL d   1     -39.665  15.006  19.287  0.00  0.00    -0.224 NA
BRANCH   8   9
ATOM      9  C   UNL d   1     -40.049  14.794  18.598  0.00  0.00     0.101 C 
BRANCH   9  10
ATOM     10  C   UNL d   1     -39.616  14.517  17.949  0.00  0.00     0.019 A 
ATOM     11  C   UNL d   1     -39.390  13.716  17.913  0.00  0.00     0.002 A 
ATOM     12  C   UNL d   1     -38.958  13.442  17.267  0.00  0.00     0.000 A 
ATOM     13  C   UNL d   1     -38.754  13.946  16.669  0.00  0.00     0.000 A 
ATOM     14  C   UNL d   1     -38.976  14.740  16.700  0.00  0.00     0.000 A 
ATOM     15  C   UNL d   1     -38.324  13.675  16.023  0.00  0.00     0.000 C 
ATOM     16  C   UNL d   1     -39.412  15.021  17.352  0.00  0.00     0.002 A 
ENDBRANCH   9  10
ENDBRANCH   8   9
ENDBRANCH   2   8
BRANCH   1  17
ATOM     17  N   UNL d   1     -38.902  15.327  20.734  0.00  0.00    -0.107 N 
ATOM     18  O   UNL d   1     -38.377  15.920  20.555  0.00  0.00    -0.531 OA
ATOM     19  O   UNL d   1     -38.636  14.598  21.000  0.00  0.00    -0.531 OA
ENDBRANCH   1  17
TORSDOF 4
ENDMDL
MODEL 8
REMARK VINA RESULT:      -4.3      9.955     11.132
REMARK  4 active torsions:
REMARK  status: ('A' for Active; 'I' for Inactive)
REMARK    1  A    between atoms: C_2  and  N_1 
REMARK    2  A    between atoms: N_7  and  C_3 
REMARK    3  A    between atoms: C_12  and  N_7 
REMARK    4  A    between atoms: C_13  and  C_12 
ROOT
ATOM      1  C   UNL d   1     -39.972  14.909  18.717  0.00  0.00     0.200 A 
ATOM      2  C   UNL d   1     -39.225  14.962  18.350  0.00  0.00     0.189 A 
ATOM      3  C   UNL d   1     -40.069  15.224  19.462  0.00  0.00     0.210 A 
ATOM      4  N   UNL d   1     -38.596  15.329  18.737  0.00  0.00    -0.203 NA
ATOM      5  N   UNL d   1     -39.460  15.587  19.855  0.00  0.00    -0.202 NA
ATOM      6  C   UNL d   1     -38.714  15.641  19.487  0.00  0.00     0.202 A 
ATOM      7  N   UNL d   1     -40.816  15.171  19.829  0.00  0.00    -0.125 N 
ENDROOT
BRANCH   2   8
ATOM      8  N   UNL d   1     -39.106  14.653  17.603  0.00  0.00    -0.224 NA
BRANCH   8   9
ATOM      9  C   UNL d   1     -38.372  14.695  17.247  0.00  0.00     0.101 C 
BRANCH   9  10
ATOM     10  C   UNL d   1     -38.264  14.405  16.480  0.00  0.00     0.019 A 
ATOM     11  C   UNL d   1     -38.054  13.607  16.364  0.00  0.00     0.002 A 
ATOM     12  C   UNL d   1     -37.948  13.320  15.599  0.00  0.00     0.000 A 
ATOM     13  C   UNL d   1     -38.045  13.808  14.962  0.00  0.00     0.000 A 
ATOM     14  C   UNL d   1     -38.253  14.599  15.072  0.00  0.00     0.000 A 
ATOM     15  C   UNL d   1     -37.939  13.524  14.199  0.00  0.00     0.000 C 
ATOM     16  C   UNL d   1     -38.362  14.893  15.843  0.00  0.00     0.002 A 
ENDBRANCH   9  10
ENDBRANCH   8   9
ENDBRANCH   2   8
BRANCH   1  17
ATOM     17  N   UNL d   1     -40.599  14.547  18.338  0.00  0.00    -0.107 N 
ATOM     18  O   UNL d   1     -41.081  14.991  17.859  0.00  0.00    -0.531 OA
ATOM     19  O   UNL d   1     -40.735  13.745  18.442  0.00  0.00    -0.531 OA
ENDBRANCH   1  17
TORSDOF 4
ENDMDL
