MODEL 1
REMARK VINA RESULT:     -11.2      0.000      0.000
REMARK  2 active torsions:
REMARK  status: ('A' for Active; 'I' for Inactive)
REMARK    1  A    between atoms: C_11  and  N_1 
REMARK    2  A    between atoms: C_15  and  C_11 
ROOT
ATOM      1  N   UNL d   1      53.731  32.435  53.521  0.00  0.00    -0.244 N 
ATOM      2  C   UNL d   1      53.946  32.833  54.215  0.00  0.00     0.246 A 
ATOM      3  C   UNL d   1      53.527  33.548  54.250  0.00  0.00     0.095 A 
ATOM      4  C   UNL d   1      53.171  32.908  53.122  0.00  0.00     0.260 A 
ATOM      5  C   UNL d   1      53.046  33.594  53.572  0.00  0.00     0.024 A 
ATOM      6  C   UNL d   1      53.519  34.154  54.802  0.00  0.00     0.034 A 
ATOM      7  C   UNL d   1      52.564  34.247  53.456  0.00  0.00     0.045 A 
ATOM      8  C   UNL d   1      53.036  34.808  54.686  0.00  0.00    -0.030 A 
ATOM      9  C   UNL d   1      52.560  34.854  54.014  0.00  0.00    -0.027 A 
ATOM     10  C   UNL d   1      53.130  34.010  54.085  0.00  0.00     0.014 A 
ATOM     11  O   UNL d   1      54.492  32.564  54.783  0.00  0.00    -0.271 OA
ATOM     12  O   UNL d   1      52.803  32.728  52.401  0.00  0.00    -0.267 OA
ATOM     13  C   UNL d   1      54.066  33.309  54.837  0.00  0.00     0.014 C 
ENDROOT
BRANCH   1  14
ATOM     14  C   UNL d   1      54.018  31.704  53.272  0.00  0.00     0.086 C 
BRANCH  14  15
ATOM     15  C   UNL d   1      53.564  31.029  53.383  0.00  0.00     0.018 A 
ATOM     16  C   UNL d   1      52.975  30.840  52.849  0.00  0.00     0.002 A 
ATOM     17  C   UNL d   1      52.521  30.165  52.960  0.00  0.00     0.000 A 
ATOM     18  C   UNL d   1      52.661  29.675  53.615  0.00  0.00     0.000 A 
ATOM     19  C   UNL d   1      53.256  29.869  54.152  0.00  0.00     0.000 A 
ATOM     20  C   UNL d   1      53.705  30.546  54.034  0.00  0.00     0.002 A 
ENDBRANCH  14  15
ENDBRANCH   1  14
TORSDOF 2
ENDMDL
MODEL 2
REMARK VINA RESULT:     -10.8      0.542      3.589
REMARK  2 active torsions:
REMARK  status: ('A' for Active; 'I' for Inactive)
REMARK    1  A    between atoms: C_11  and  N_1 
REMARK    2  A    between atoms: C_15  and  C_11 
ROOT
ATOM      1  N   UNL d   1      53.550  32.627  53.217  0.00  0.00    -0.244 N 
ATOM      2  C   UNL d   1      52.919  32.206  52.884  0.00  0.00     0.246 A 
ATOM      3  C   UNL d   1      52.974  31.414  53.124  0.00  0.00     0.095 A 
ATOM      4  C   UNL d   1      54.001  32.091  53.669  0.00  0.00     0.260 A 
ATOM      5  C   UNL d   1      53.646  31.343  53.612  0.00  0.00     0.024 A 
ATOM      6  C   UNL d   1      52.509  30.757  52.967  0.00  0.00     0.034 A 
ATOM      7  C   UNL d   1      53.842  30.615  53.935  0.00  0.00     0.045 A 
ATOM      8  C   UNL d   1      52.705  30.029  53.291  0.00  0.00    -0.030 A 
ATOM      9  C   UNL d   1      53.370  29.958  53.774  0.00  0.00    -0.027 A 
ATOM     10  C   UNL d   1      53.194  30.896  53.411  0.00  0.00     0.014 A 
ATOM     11  O   UNL d   1      52.328  32.521  52.390  0.00  0.00    -0.271 OA
ATOM     12  O   UNL d   1      54.686  32.269  54.102  0.00  0.00    -0.267 OA
ATOM     13  C   UNL d   1      52.369  31.696  52.629  0.00  0.00     0.014 C 
ENDROOT
BRANCH   1  14
ATOM     14  C   UNL d   1      53.703  33.430  53.118  0.00  0.00     0.086 C 
BRANCH  14  15
ATOM     15  C   UNL d   1      53.405  33.971  53.659  0.00  0.00     0.018 A 
ATOM     16  C   UNL d   1      53.720  34.011  54.412  0.00  0.00     0.002 A 
ATOM     17  C   UNL d   1      53.423  34.552  54.953  0.00  0.00     0.000 A 
ATOM     18  C   UNL d   1      52.802  35.058  54.736  0.00  0.00     0.000 A 
ATOM     19  C   UNL d   1      52.487  35.015  53.974  0.00  0.00     0.000 A 
ATOM     20  C   UNL d   1      52.790  34.471  53.439  0.00  0.00     0.002 A 
ENDBRANCH  14  15
ENDBRANCH   1  14
TORSDOF 2
ENDMDL
MODEL 3
REMARK VINA RESULT:     -10.7      1.719      2.782
REMARK  2 active torsions:
REMARK  status: ('A' for Active; 'I' for Inactive)
REMARK    1  A    between atoms: C_11  and  N_1 
REMARK    2  A    between atoms: C_15  and  C_11 
ROOT
ATOM      1  N   UNL d   1      53.007  33.377  53.253  0.00  0.00    -0.244 N 
ATOM      2  C   UNL d   1      52.354  32.878  53.160  0.00  0.00     0.246 A 
ATOM      3  C   UNL d   1      51.678  33.346  53.051  0.00  0.00     0.095 A 
ATOM      4  C   UNL d   1      52.735  34.164  53.201  0.00  0.00     0.260 A 
ATOM      5  C   UNL d   1      51.914  34.144  53.076  0.00  0.00     0.024 A 
ATOM      6  C   UNL d   1      50.889  33.156  52.934  0.00  0.00     0.034 A 
ATOM      7  C   UNL d   1      51.358  34.740  52.984  0.00  0.00     0.045 A 
ATOM      8  C   UNL d   1      50.332  33.751  52.841  0.00  0.00    -0.030 A 
ATOM      9  C   UNL d   1      50.566  34.542  52.866  0.00  0.00    -0.027 A 
ATOM     10  C   UNL d   1      51.318  33.861  52.989  0.00  0.00     0.014 A 
ATOM     11  O   UNL d   1      52.368  32.046  53.173  0.00  0.00    -0.271 OA
ATOM     12  O   UNL d   1      53.199  34.849  53.262  0.00  0.00    -0.267 OA
ATOM     13  C   UNL d   1      51.656  32.515  53.059  0.00  0.00     0.014 C 
ENDROOT
BRANCH   1  14
ATOM     14  C   UNL d   1      53.787  33.138  53.374  0.00  0.00     0.086 C 
BRANCH  14  15
ATOM     15  C   UNL d   1      54.117  33.192  54.124  0.00  0.00     0.018 A 
ATOM     16  C   UNL d   1      53.918  32.645  54.698  0.00  0.00     0.002 A 
ATOM     17  C   UNL d   1      54.248  32.698  55.447  0.00  0.00     0.000 A 
ATOM     18  C   UNL d   1      54.784  33.308  55.622  0.00  0.00     0.000 A 
ATOM     19  C   UNL d   1      54.982  33.858  55.040  0.00  0.00     0.000 A 
ATOM     20  C   UNL d   1      54.647  33.797  54.293  0.00  0.00     0.002 A 
ENDBRANCH  14  15
ENDBRANCH   1  14
TORSDOF 2
ENDMDL
MODEL 4
REMARK VINA RESULT:     -10.7      1.512      3.183
REMARK  2 active torsions:
REMARK  status: ('A' for Active; 'I' for Inactive)
REMARK    1  A    between atoms: C_11  and  N_1 
REMARK    2  A    between atoms: C_15  and  C_11 
ROOT
ATOM      1  N   UNL d   1      52.906  34.027  53.252  0.00  0.00    -0.244 N 
ATOM      2  C   UNL d   1      53.161  33.240  53.239  0.00  0.00     0.246 A 
ATOM      3  C   UNL d   1      53.573  33.084  53.942  0.00  0.00     0.095 A 
ATOM      4  C   UNL d   1      53.161  34.365  53.971  0.00  0.00     0.260 A 
ATOM      5  C   UNL d   1      53.573  33.783  54.396  0.00  0.00     0.024 A 
ATOM      6  C   UNL d   1      53.944  32.410  54.227  0.00  0.00     0.034 A 
ATOM      7  C   UNL d   1      53.944  33.796  55.128  0.00  0.00     0.045 A 
ATOM      8  C   UNL d   1      54.315  32.423  54.959  0.00  0.00    -0.030 A 
ATOM      9  C   UNL d   1      54.314  33.115  55.408  0.00  0.00    -0.027 A 
ATOM     10  C   UNL d   1      53.833  33.180  54.510  0.00  0.00     0.014 A 
ATOM     11  O   UNL d   1      53.029  32.692  52.626  0.00  0.00    -0.271 OA
ATOM     12  O   UNL d   1      53.029  35.145  54.220  0.00  0.00    -0.267 OA
ATOM     13  C   UNL d   1      53.460  32.513  53.349  0.00  0.00     0.014 C 
ENDROOT
BRANCH   1  14
ATOM     14  C   UNL d   1      52.476  34.407  52.661  0.00  0.00     0.086 C 
BRANCH  14  15
ATOM     15  C   UNL d   1      51.655  34.377  52.670  0.00  0.00     0.018 A 
ATOM     16  C   UNL d   1      51.241  34.722  53.283  0.00  0.00     0.002 A 
ATOM     17  C   UNL d   1      50.421  34.693  53.293  0.00  0.00     0.000 A 
ATOM     18  C   UNL d   1      50.013  34.311  52.679  0.00  0.00     0.000 A 
ATOM     19  C   UNL d   1      50.435  33.964  52.061  0.00  0.00     0.000 A 
ATOM     20  C   UNL d   1      51.255  33.998  52.060  0.00  0.00     0.002 A 
ENDBRANCH  14  15
ENDBRANCH   1  14
TORSDOF 2
ENDMDL
