MODEL 1
REMARK VINA RESULT:      13.3      0.000      0.000
REMARK  5 active torsions:
REMARK  status: ('A' for Active; 'I' for Inactive)
REMARK    1  A    between atoms: C_7  and  N_2 
REMARK    2  A    between atoms: C_6  and  C_8 
REMARK       I    between atoms: N_9  and  C_6 
REMARK    3  A    between atoms: C_8  and  C_7 
REMARK    4  A    between atoms: C_11  and  N_9 
REMARK    5  A    between atoms: C_13  and  C_11 
ROOT
ATOM      1  C   UNL d   1      45.666 -16.431  44.170  0.00  0.00     0.080 C 
ENDROOT
BRANCH   1   2
ATOM      2  C   UNL d   1      46.086 -17.137  44.231  0.00  0.00     0.266 C 
ATOM      3  N   UNL d   1      46.162 -17.635  43.581  0.00  0.00    -0.270 N 
ATOM      4  C   UNL d   1      45.812 -17.425  42.857  0.00  0.00     0.102 C 
ATOM      5  O   UNL d   1      46.434 -17.348  44.950  0.00  0.00    -0.267 OA
BRANCH   3   6
ATOM      6  C   UNL d   1      46.580 -18.337  43.643  0.00  0.00     0.083 C 
BRANCH   6   7
ATOM      7  C   UNL d   1      46.498 -18.922  43.071  0.00  0.00     0.018 A 
ATOM      8  C   UNL d   1      46.298 -19.697  43.283  0.00  0.00     0.002 A 
ATOM      9  C   UNL d   1      46.216 -20.282  42.712  0.00  0.00     0.000 A 
ATOM     10  C   UNL d   1      46.333 -20.102  41.922  0.00  0.00     0.000 A 
ATOM     11  C   UNL d   1      46.533 -19.332  41.702  0.00  0.00     0.000 A 
ATOM     12  C   UNL d   1      46.615 -18.739  42.283  0.00  0.00     0.002 A 
ENDBRANCH   6   7
ENDBRANCH   3   6
ENDBRANCH   1   2
BRANCH   1  13
ATOM     13  C   UNL d   1      45.718 -15.862  44.761  0.00  0.00     0.090 C 
BRANCH  13  14
ATOM     14  N   UNL d   1      45.321 -15.145  44.684  0.00  0.00    -0.251 N 
ATOM     15  C   UNL d   1      44.511 -15.027  44.771  0.00  0.00     0.378 A 
ATOM     16  O   UNL d   1      44.425 -14.220  44.636  0.00  0.00    -0.258 OA
ATOM     17  O   UNL d   1      43.955 -15.608  44.952  0.00  0.00    -0.237 OA
ATOM     18  C   UNL d   1      45.071 -13.851  44.482  0.00  0.00     0.121 A 
ATOM     19  C   UNL d   1      45.255 -13.060  44.314  0.00  0.00     0.026 A 
ATOM     20  C   UNL d   1      45.670 -14.418  44.505  0.00  0.00     0.092 A 
ATOM     21  C   UNL d   1      46.042 -12.839  44.168  0.00  0.00     0.002 A 
ATOM     22  C   UNL d   1      46.633 -13.415  44.194  0.00  0.00     0.002 A 
ATOM     23  C   UNL d   1      46.445 -14.203  44.362  0.00  0.00     0.020 A 
ENDBRANCH  13  14
ENDBRANCH   1  13
TORSDOF 5
ENDMDL
MODEL 2
REMARK VINA RESULT:      13.7      1.012      5.000
REMARK  5 active torsions:
REMARK  status: ('A' for Active; 'I' for Inactive)
REMARK    1  A    between atoms: C_7  and  N_2 
REMARK    2  A    between atoms: C_6  and  C_8 
REMARK       I    between atoms: N_9  and  C_6 
REMARK    3  A    between atoms: C_8  and  C_7 
REMARK    4  A    between atoms: C_11  and  N_9 
REMARK    5  A    between atoms: C_13  and  C_11 
ROOT
ATOM      1  C   UNL d   1      46.059 -17.298  43.886  0.00  0.00     0.080 C 
ENDROOT
BRANCH   1   2
ATOM      2  C   UNL d   1      45.678 -16.773  44.395  0.00  0.00     0.266 C 
ATOM      3  N   UNL d   1      45.828 -15.966  44.352  0.00  0.00    -0.270 N 
ATOM      4  C   UNL d   1      46.367 -15.676  43.790  0.00  0.00     0.102 C 
ATOM      5  O   UNL d   1      45.142 -17.060  44.955  0.00  0.00    -0.267 OA
BRANCH   3   6
ATOM      6  C   UNL d   1      45.448 -15.446  44.859  0.00  0.00     0.083 C 
BRANCH   6   7
ATOM      7  C   UNL d   1      45.457 -14.638  44.710  0.00  0.00     0.018 A 
ATOM      8  C   UNL d   1      44.794 -14.260  44.390  0.00  0.00     0.002 A 
ATOM      9  C   UNL d   1      44.801 -13.452  44.240  0.00  0.00     0.000 A 
ATOM     10  C   UNL d   1      45.471 -13.010  44.407  0.00  0.00     0.000 A 
ATOM     11  C   UNL d   1      46.137 -13.380  44.725  0.00  0.00     0.000 A 
ATOM     12  C   UNL d   1      46.127 -14.201  44.877  0.00  0.00     0.002 A 
ENDBRANCH   6   7
ENDBRANCH   3   6
ENDBRANCH   1   2
BRANCH   1  13
ATOM     13  C   UNL d   1      46.495 -17.926  44.184  0.00  0.00     0.090 C 
BRANCH  13  14
ATOM     14  N   UNL d   1      46.501 -18.651  43.793  0.00  0.00    -0.251 N 
ATOM     15  C   UNL d   1      46.462 -19.393  44.145  0.00  0.00     0.378 A 
ATOM     16  O   UNL d   1      46.488 -19.906  43.503  0.00  0.00    -0.258 OA
ATOM     17  O   UNL d   1      46.409 -19.541  44.955  0.00  0.00    -0.237 OA
ATOM     18  C   UNL d   1      46.538 -19.567  42.825  0.00  0.00     0.121 A 
ATOM     19  C   UNL d   1      46.578 -19.845  42.044  0.00  0.00     0.026 A 
ATOM     20  C   UNL d   1      46.548 -18.756  42.975  0.00  0.00     0.092 A 
ATOM     21  C   UNL d   1      46.629 -19.308  41.414  0.00  0.00     0.002 A 
ATOM     22  C   UNL d   1      46.639 -18.498  41.576  0.00  0.00     0.002 A 
ATOM     23  C   UNL d   1      46.599 -18.225  42.355  0.00  0.00     0.020 A 
ENDBRANCH  13  14
ENDBRANCH   1  13
TORSDOF 5
ENDMDL
