MODEL 1
REMARK VINA RESULT:      -9.8      0.000      0.000
REMARK  0 active torsions:
REMARK  status: ('A' for Active; 'I' for Inactive)
ROOT
ATOM      1  C   UNL d   1     -48.742  13.026  23.179  0.00  0.00     0.150 A 
ATOM      2  N   UNL d   1     -48.089  12.527  23.306  0.00  0.00    -0.275 N 
ATOM      3  N   UNL d   1     -48.477  13.756  22.939  0.00  0.00    -0.227 NA
ATOM      4  C   UNL d   1     -48.139  11.757  23.549  0.00  0.00     0.149 A 
ATOM      5  N   UNL d   1     -48.885  11.437  23.680  0.00  0.00    -0.228 NA
ATOM      6  C   UNL d   1     -49.484  12.688  23.315  0.00  0.00     0.052 A 
ATOM      7  C   UNL d   1     -47.424  13.003  23.130  0.00  0.00     0.084 A 
ATOM      8  C   UNL d   1     -49.556  11.885  23.569  0.00  0.00     0.086 A 
ATOM      9  C   UNL d   1     -47.646  13.723  22.914  0.00  0.00     0.099 A 
ATOM     10  C   UNL d   1     -47.480  11.279  23.671  0.00  0.00     0.041 C 
ATOM     11  C   UNL d   1     -50.165  13.157  23.198  0.00  0.00     0.004 A 
ATOM     12  C   UNL d   1     -46.603  12.812  23.155  0.00  0.00     0.019 A 
ATOM     13  C   UNL d   1     -50.305  11.575  23.698  0.00  0.00     0.019 A 
ATOM     14  C   UNL d   1     -47.077  14.292  22.713  0.00  0.00     0.021 A 
ATOM     15  C   UNL d   1     -50.907  12.821  23.334  0.00  0.00     0.000 A 
ATOM     16  C   UNL d   1     -46.041  13.403  22.946  0.00  0.00     0.002 A 
ATOM     17  C   UNL d   1     -46.277  14.101  22.738  0.00  0.00     0.002 A 
ATOM     18  C   UNL d   1     -50.975  12.041  23.581  0.00  0.00     0.002 A 
ENDROOT
TORSDOF 0
ENDMDL
MODEL 2
REMARK VINA RESULT:      -9.5      1.343      2.925
REMARK  0 active torsions:
REMARK  status: ('A' for Active; 'I' for Inactive)
ROOT
ATOM      1  C   UNL d   1     -48.037  13.075  23.159  0.00  0.00     0.150 A 
ATOM      2  N   UNL d   1     -47.682  13.798  22.952  0.00  0.00    -0.275 N 
ATOM      3  N   UNL d   1     -48.845  13.163  23.150  0.00  0.00    -0.227 NA
ATOM      4  C   UNL d   1     -46.883  13.921  22.904  0.00  0.00     0.149 A 
ATOM      5  N   UNL d   1     -46.381  13.291  23.069  0.00  0.00    -0.228 NA
ATOM      6  C   UNL d   1     -47.517  12.453  23.323  0.00  0.00     0.052 A 
ATOM      7  C   UNL d   1     -48.324  14.317  22.820  0.00  0.00     0.084 A 
ATOM      8  C   UNL d   1     -46.680  12.563  23.277  0.00  0.00     0.086 A 
ATOM      9  C   UNL d   1     -49.007  13.950  22.934  0.00  0.00     0.099 A 
ATOM     10  C   UNL d   1     -46.550  14.644  22.697  0.00  0.00     0.041 C 
ATOM     11  C   UNL d   1     -47.836  11.711  23.535  0.00  0.00     0.004 A 
ATOM     12  C   UNL d   1     -48.323  15.129  22.594  0.00  0.00     0.019 A 
ATOM     13  C   UNL d   1     -46.187  11.929  23.444  0.00  0.00     0.019 A 
ATOM     14  C   UNL d   1     -49.722  14.359  22.834  0.00  0.00     0.021 A 
ATOM     15  C   UNL d   1     -47.317  11.089  23.698  0.00  0.00     0.000 A 
ATOM     16  C   UNL d   1     -49.058  15.527  22.497  0.00  0.00     0.002 A 
ATOM     17  C   UNL d   1     -49.715  15.152  22.613  0.00  0.00     0.002 A 
ATOM     18  C   UNL d   1     -46.505  11.197  23.653  0.00  0.00     0.002 A 
ENDROOT
TORSDOF 0
ENDMDL
MODEL 3
REMARK VINA RESULT:      -9.4      1.104      2.387
REMARK  0 active torsions:
REMARK  status: ('A' for Active; 'I' for Inactive)
ROOT
ATOM      1  C   UNL d   1     -48.535  13.260  23.111  0.00  0.00     0.150 A 
ATOM      2  N   UNL d   1     -47.715  13.391  23.074  0.00  0.00    -0.275 N 
ATOM      3  N   UNL d   1     -48.672  12.487  23.325  0.00  0.00    -0.227 NA
ATOM      4  C   UNL d   1     -47.370  14.096  22.879  0.00  0.00     0.149 A 
ATOM      5  N   UNL d   1     -47.859  14.733  22.702  0.00  0.00    -0.228 NA
ATOM      6  C   UNL d   1     -49.011  13.911  22.931  0.00  0.00     0.052 A 
ATOM      7  C   UNL d   1     -47.376  12.654  23.278  0.00  0.00     0.084 A 
ATOM      8  C   UNL d   1     -48.669  14.656  22.724  0.00  0.00     0.086 A 
ATOM      9  C   UNL d   1     -47.932  12.122  23.426  0.00  0.00     0.099 A 
ATOM     10  C   UNL d   1     -46.555  14.207  22.848  0.00  0.00     0.041 C 
ATOM     11  C   UNL d   1     -49.841  13.819  22.956  0.00  0.00     0.004 A 
ATOM     12  C   UNL d   1     -46.564  12.433  23.339  0.00  0.00     0.019 A 
ATOM     13  C   UNL d   1     -49.165  15.286  22.550  0.00  0.00     0.019 A 
ATOM     14  C   UNL d   1     -47.723  11.349  23.640  0.00  0.00     0.021 A 
ATOM     15  C   UNL d   1     -50.318  14.469  22.776  0.00  0.00     0.000 A 
ATOM     16  C   UNL d   1     -46.372  11.643  23.558  0.00  0.00     0.002 A 
ATOM     17  C   UNL d   1     -46.929  11.138  23.698  0.00  0.00     0.002 A 
ATOM     18  C   UNL d   1     -49.984  15.192  22.576  0.00  0.00     0.002 A 
ENDROOT
TORSDOF 0
ENDMDL
MODEL 4
REMARK VINA RESULT:      -9.2      1.039      2.725
REMARK  0 active torsions:
REMARK  status: ('A' for Active; 'I' for Inactive)
ROOT
ATOM      1  C   UNL d   1     -48.081  13.186  23.166  0.00  0.00     0.150 A 
ATOM      2  N   UNL d   1     -48.901  13.051  23.149  0.00  0.00    -0.275 N 
ATOM      3  N   UNL d   1     -47.936  13.968  22.994  0.00  0.00    -0.227 NA
ATOM      4  C   UNL d   1     -49.252  12.336  23.293  0.00  0.00     0.149 A 
ATOM      5  N   UNL d   1     -48.770  11.694  23.469  0.00  0.00    -0.228 NA
ATOM      6  C   UNL d   1     -47.612  12.530  23.344  0.00  0.00     0.052 A 
ATOM      7  C   UNL d   1     -49.233  13.795  22.958  0.00  0.00     0.084 A 
ATOM      8  C   UNL d   1     -47.961  11.775  23.497  0.00  0.00     0.086 A 
ATOM      9  C   UNL d   1     -48.672  14.335  22.867  0.00  0.00     0.099 A 
ATOM     10  C   UNL d   1     -50.067  12.222  23.272  0.00  0.00     0.041 C 
ATOM     11  C   UNL d   1     -46.783  12.625  23.370  0.00  0.00     0.004 A 
ATOM     12  C   UNL d   1     -50.040  14.015  22.860  0.00  0.00     0.019 A 
ATOM     13  C   UNL d   1     -47.472  11.140  23.672  0.00  0.00     0.019 A 
ATOM     14  C   UNL d   1     -48.873  15.116  22.675  0.00  0.00     0.021 A 
ATOM     15  C   UNL d   1     -46.313  11.969  23.549  0.00  0.00     0.000 A 
ATOM     16  C   UNL d   1     -50.224  14.814  22.666  0.00  0.00     0.002 A 
ATOM     17  C   UNL d   1     -49.663  15.327  22.580  0.00  0.00     0.002 A 
ATOM     18  C   UNL d   1     -46.654  11.238  23.697  0.00  0.00     0.002 A 
ENDROOT
TORSDOF 0
ENDMDL
MODEL 5
REMARK VINA RESULT:      -7.2      1.141      2.044
REMARK  0 active torsions:
REMARK  status: ('A' for Active; 'I' for Inactive)
ROOT
ATOM      1  C   UNL d   1     -48.323  13.554  23.081  0.00  0.00     0.150 A 
ATOM      2  N   UNL d   1     -48.562  12.791  23.309  0.00  0.00    -0.275 N 
ATOM      3  N   UNL d   1     -47.510  13.581  23.049  0.00  0.00    -0.227 NA
ATOM      4  C   UNL d   1     -49.332  12.559  23.400  0.00  0.00     0.149 A 
ATOM      5  N   UNL d   1     -49.925  13.111  23.258  0.00  0.00    -0.228 NA
ATOM      6  C   UNL d   1     -48.932  14.096  22.943  0.00  0.00     0.052 A 
ATOM      7  C   UNL d   1     -47.847  12.369  23.410  0.00  0.00     0.084 A 
ATOM      8  C   UNL d   1     -49.742  13.871  23.032  0.00  0.00     0.086 A 
ATOM      9  C   UNL d   1     -47.229  12.826  23.258  0.00  0.00     0.099 A 
ATOM     10  C   UNL d   1     -49.549  11.798  23.626  0.00  0.00     0.041 C 
ATOM     11  C   UNL d   1     -48.732  14.873  22.711  0.00  0.00     0.004 A 
ATOM     12  C   UNL d   1     -47.723  11.567  23.638  0.00  0.00     0.019 A 
ATOM     13  C   UNL d   1     -50.327  14.428  22.889  0.00  0.00     0.019 A 
ATOM     14  C   UNL d   1     -46.460  12.523  23.323  0.00  0.00     0.021 A 
ATOM     15  C   UNL d   1     -49.340  15.415  22.573  0.00  0.00     0.000 A 
ATOM     16  C   UNL d   1     -46.935  11.277  23.698  0.00  0.00     0.002 A 
ATOM     17  C   UNL d   1     -46.344  11.739  23.546  0.00  0.00     0.002 A 
ATOM     18  C   UNL d   1     -50.125  15.194  22.661  0.00  0.00     0.002 A 
ENDROOT
TORSDOF 0
ENDMDL
MODEL 6
REMARK VINA RESULT:      -7.1      1.505      3.129
REMARK  0 active torsions:
REMARK  status: ('A' for Active; 'I' for Inactive)
ROOT
ATOM      1  C   UNL d   1     -49.357  13.397  22.818  0.00  0.00     0.150 A 
ATOM      2  N   UNL d   1     -49.025  14.155  22.895  0.00  0.00    -0.275 N 
ATOM      3  N   UNL d   1     -50.141  13.426  23.034  0.00  0.00    -0.227 NA
ATOM      4  C   UNL d   1     -48.254  14.338  22.728  0.00  0.00     0.149 A 
ATOM      5  N   UNL d   1     -47.759  13.738  22.463  0.00  0.00    -0.228 NA
ATOM      6  C   UNL d   1     -48.846  12.805  22.550  0.00  0.00     0.052 A 
ATOM      7  C   UNL d   1     -49.654  14.633  23.169  0.00  0.00     0.084 A 
ATOM      8  C   UNL d   1     -48.037  12.978  22.371  0.00  0.00     0.086 A 
ATOM      9  C   UNL d   1     -50.309  14.211  23.252  0.00  0.00     0.099 A 
ATOM     10  C   UNL d   1     -47.943  15.096  22.810  0.00  0.00     0.041 C 
ATOM     11  C   UNL d   1     -49.142  12.030  22.460  0.00  0.00     0.004 A 
ATOM     12  C   UNL d   1     -49.665  15.456  23.352  0.00  0.00     0.019 A 
ATOM     13  C   UNL d   1     -47.551  12.372  22.108  0.00  0.00     0.019 A 
ATOM     14  C   UNL d   1     -51.007  14.572  23.519  0.00  0.00     0.021 A 
ATOM     15  C   UNL d   1     -48.632  11.438  22.193  0.00  0.00     0.000 A 
ATOM     16  C   UNL d   1     -50.383  15.804  23.621  0.00  0.00     0.002 A 
ATOM     17  C   UNL d   1     -51.012  15.376  23.696  0.00  0.00     0.002 A 
ATOM     18  C   UNL d   1     -47.848  11.608  22.020  0.00  0.00     0.002 A 
ENDROOT
TORSDOF 0
ENDMDL
