MODEL 1
REMARK VINA RESULT:      -7.3      0.000      0.000
REMARK  4 active torsions:
REMARK  status: ('A' for Active; 'I' for Inactive)
REMARK    1  A    between atoms: N_3  and  S_1 
REMARK    2  A    between atoms: N_5  and  S_1 
REMARK    3  A    between atoms: S_2  and  N_4 
REMARK    4  A    between atoms: C_14  and  S_2 
ROOT
ATOM      1  N   UNL d   1     -49.067  14.392  23.086  0.00  0.00    -0.213 N 
ATOM      2  N   UNL d   1     -47.614  13.665  22.884  0.00  0.00    -0.226 N 
ATOM      3  C   UNL d   1     -48.291  13.194  23.046  0.00  0.00     0.111 A 
ATOM      4  C   UNL d   1     -47.680  14.476  22.828  0.00  0.00     0.111 A 
ATOM      5  C   UNL d   1     -48.412  14.842  22.929  0.00  0.00     0.113 A 
ATOM      6  C   UNL d   1     -49.023  13.560  23.148  0.00  0.00     0.113 A 
ENDROOT
BRANCH   2   7
ATOM      7  S   UNL d   1     -46.882  13.299  22.782  0.00  0.00     0.271 S 
ATOM      8  O   UNL d   1     -46.345  13.265  23.415  0.00  0.00    -0.200 OA
ATOM      9  O   UNL d   1     -46.683  12.967  22.055  0.00  0.00    -0.200 OA
BRANCH   7  10
ATOM     10  C   UNL d   1     -46.149  12.932  22.680  0.00  0.00     0.104 A 
ATOM     11  C   UNL d   1     -45.998  12.212  23.053  0.00  0.00     0.013 A 
ATOM     12  C   UNL d   1     -45.266  11.846  22.952  0.00  0.00     0.001 A 
ATOM     13  C   UNL d   1     -44.689  12.202  22.477  0.00  0.00     0.000 A 
ATOM     14  C   UNL d   1     -44.851  12.930  22.103  0.00  0.00     0.001 A 
ATOM     15  C   UNL d   1     -45.578  13.286  22.209  0.00  0.00     0.013 A 
ENDBRANCH   7  10
ENDBRANCH   2   7
BRANCH   1  16
ATOM     16  S   UNL d   1     -49.810  14.764  23.189  0.00  0.00     0.337 S 
ATOM     17  O   UNL d   1     -49.970  15.478  22.813  0.00  0.00    -0.181 OA
ATOM     18  O   UNL d   1     -50.385  14.409  23.673  0.00  0.00    -0.181 OA
BRANCH  16  19
ATOM     19  N   UNL d   1     -50.459  15.277  23.161  0.00  0.00    -0.213 N 
ATOM     20  C   UNL d   1     -51.063  15.155  22.605  0.00  0.00     0.113 C 
ATOM     21  C   UNL d   1     -50.503  15.907  23.684  0.00  0.00     0.113 C 
ENDBRANCH  16  19
ENDBRANCH   1  16
TORSDOF 4
ENDMDL
MODEL 2
REMARK VINA RESULT:      -7.1      1.032      4.608
REMARK  4 active torsions:
REMARK  status: ('A' for Active; 'I' for Inactive)
REMARK    1  A    between atoms: N_3  and  S_1 
REMARK    2  A    between atoms: N_5  and  S_1 
REMARK    3  A    between atoms: S_2  and  N_4 
REMARK    4  A    between atoms: C_14  and  S_2 
ROOT
ATOM      1  N   UNL d   1     -46.616  13.474  22.712  0.00  0.00    -0.213 N 
ATOM      2  N   UNL d   1     -48.092  14.164  22.867  0.00  0.00    -0.226 N 
ATOM      3  C   UNL d   1     -47.404  14.643  22.935  0.00  0.00     0.111 A 
ATOM      4  C   UNL d   1     -48.025  13.364  22.725  0.00  0.00     0.111 A 
ATOM      5  C   UNL d   1     -47.281  13.016  22.646  0.00  0.00     0.113 A 
ATOM      6  C   UNL d   1     -46.660  14.295  22.857  0.00  0.00     0.113 A 
ENDROOT
BRANCH   2   7
ATOM      7  S   UNL d   1     -48.836  14.512  22.945  0.00  0.00     0.271 S 
ATOM      8  O   UNL d   1     -49.271  14.405  23.645  0.00  0.00    -0.200 OA
ATOM      9  O   UNL d   1     -49.147  14.964  22.331  0.00  0.00    -0.200 OA
BRANCH   7  10
ATOM     10  C   UNL d   1     -49.580  14.860  23.023  0.00  0.00     0.104 A 
ATOM     11  C   UNL d   1     -50.223  14.546  22.611  0.00  0.00     0.013 A 
ATOM     12  C   UNL d   1     -50.967  14.894  22.690  0.00  0.00     0.001 A 
ATOM     13  C   UNL d   1     -51.064  15.554  23.179  0.00  0.00     0.000 A 
ATOM     14  C   UNL d   1     -50.409  15.865  23.592  0.00  0.00     0.001 A 
ATOM     15  C   UNL d   1     -49.676  15.514  23.509  0.00  0.00     0.013 A 
ENDBRANCH   7  10
ENDBRANCH   2   7
BRANCH   1  16
ATOM     16  S   UNL d   1     -45.860  13.120  22.633  0.00  0.00     0.337 S 
ATOM     17  O   UNL d   1     -45.524  13.030  21.887  0.00  0.00    -0.181 OA
ATOM     18  O   UNL d   1     -45.453  12.862  23.309  0.00  0.00    -0.181 OA
BRANCH  16  19
ATOM     19  N   UNL d   1     -45.149  12.808  22.346  0.00  0.00    -0.213 N 
ATOM     20  C   UNL d   1     -44.677  13.253  21.829  0.00  0.00     0.113 C 
ATOM     21  C   UNL d   1     -44.912  12.057  22.576  0.00  0.00     0.113 C 
ENDBRANCH  16  19
ENDBRANCH   1  16
TORSDOF 4
ENDMDL
MODEL 3
REMARK VINA RESULT:      -6.9      0.879      1.430
REMARK  4 active torsions:
REMARK  status: ('A' for Active; 'I' for Inactive)
REMARK    1  A    between atoms: N_3  and  S_1 
REMARK    2  A    between atoms: N_5  and  S_1 
REMARK    3  A    between atoms: S_2  and  N_4 
REMARK    4  A    between atoms: C_14  and  S_2 
ROOT
ATOM      1  N   UNL d   1     -49.246  14.212  23.022  0.00  0.00    -0.213 N 
ATOM      2  N   UNL d   1     -48.057  13.102  23.201  0.00  0.00    -0.226 N 
ATOM      3  C   UNL d   1     -48.834  12.919  23.465  0.00  0.00     0.111 A 
ATOM      4  C   UNL d   1     -47.897  13.825  22.859  0.00  0.00     0.111 A 
ATOM      5  C   UNL d   1     -48.496  14.385  22.769  0.00  0.00     0.113 A 
ATOM      6  C   UNL d   1     -49.433  13.479  23.375  0.00  0.00     0.113 A 
ENDROOT
BRANCH   2   7
ATOM      7  S   UNL d   1     -47.457  12.542  23.291  0.00  0.00     0.271 S 
ATOM      8  O   UNL d   1     -47.601  11.747  23.096  0.00  0.00    -0.200 OA
ATOM      9  O   UNL d   1     -46.718  12.770  23.573  0.00  0.00    -0.200 OA
BRANCH   7  10
ATOM     10  C   UNL d   1     -46.858  11.982  23.381  0.00  0.00     0.104 A 
ATOM     11  C   UNL d   1     -46.074  12.199  23.245  0.00  0.00     0.013 A 
ATOM     12  C   UNL d   1     -45.474  11.639  23.335  0.00  0.00     0.001 A 
ATOM     13  C   UNL d   1     -45.662  10.866  23.562  0.00  0.00     0.000 A 
ATOM     14  C   UNL d   1     -46.458  10.656  23.698  0.00  0.00     0.001 A 
ATOM     15  C   UNL d   1     -47.046  11.216  23.606  0.00  0.00     0.013 A 
ENDBRANCH   7  10
ENDBRANCH   2   7
BRANCH   1  16
ATOM     16  S   UNL d   1     -49.855  14.780  22.930  0.00  0.00     0.337 S 
ATOM     17  O   UNL d   1     -50.627  14.595  23.145  0.00  0.00    -0.181 OA
ATOM     18  O   UNL d   1     -49.676  15.530  22.622  0.00  0.00    -0.181 OA
BRANCH  16  19
ATOM     19  N   UNL d   1     -50.577  15.185  22.920  0.00  0.00    -0.213 N 
ATOM     20  C   UNL d   1     -50.809  15.641  23.574  0.00  0.00     0.113 C 
ATOM     21  C   UNL d   1     -51.064  15.134  22.262  0.00  0.00     0.113 C 
ENDBRANCH  16  19
ENDBRANCH   1  16
TORSDOF 4
ENDMDL
MODEL 4
REMARK VINA RESULT:      -6.7      1.248      4.638
REMARK  4 active torsions:
REMARK  status: ('A' for Active; 'I' for Inactive)
REMARK    1  A    between atoms: N_3  and  S_1 
REMARK    2  A    between atoms: N_5  and  S_1 
REMARK    3  A    between atoms: S_2  and  N_4 
REMARK    4  A    between atoms: C_14  and  S_2 
ROOT
ATOM      1  N   UNL d   1     -47.018  12.571  23.214  0.00  0.00    -0.213 N 
ATOM      2  N   UNL d   1     -48.350  13.516  23.109  0.00  0.00    -0.226 N 
ATOM      3  C   UNL d   1     -47.594  13.853  22.963  0.00  0.00     0.111 A 
ATOM      4  C   UNL d   1     -48.419  12.726  23.301  0.00  0.00     0.111 A 
ATOM      5  C   UNL d   1     -47.748  12.250  23.354  0.00  0.00     0.113 A 
ATOM      6  C   UNL d   1     -46.922  13.377  23.016  0.00  0.00     0.113 A 
ENDROOT
BRANCH   2   7
ATOM      7  S   UNL d   1     -49.022  13.992  23.056  0.00  0.00     0.271 S 
ATOM      8  O   UNL d   1     -48.973  14.798  23.250  0.00  0.00    -0.200 OA
ATOM      9  O   UNL d   1     -49.739  13.669  22.812  0.00  0.00    -0.200 OA
BRANCH   7  10
ATOM     10  C   UNL d   1     -49.694  14.468  23.003  0.00  0.00     0.104 A 
ATOM     11  C   UNL d   1     -50.250  14.324  22.411  0.00  0.00     0.013 A 
ATOM     12  C   UNL d   1     -50.922  14.800  22.358  0.00  0.00     0.001 A 
ATOM     13  C   UNL d   1     -51.034  15.418  22.897  0.00  0.00     0.000 A 
ATOM     14  C   UNL d   1     -50.466  15.556  23.493  0.00  0.00     0.001 A 
ATOM     15  C   UNL d   1     -49.804  15.080  23.538  0.00  0.00     0.013 A 
ENDBRANCH   7  10
ENDBRANCH   2   7
BRANCH   1  16
ATOM     16  S   UNL d   1     -46.335  12.088  23.268  0.00  0.00     0.337 S 
ATOM     17  O   UNL d   1     -46.410  11.269  23.275  0.00  0.00    -0.181 OA
ATOM     18  O   UNL d   1     -45.584  12.439  23.315  0.00  0.00    -0.181 OA
BRANCH  16  19
ATOM     19  N   UNL d   1     -45.806  11.453  23.314  0.00  0.00    -0.213 N 
ATOM     20  C   UNL d   1     -45.052  11.513  22.972  0.00  0.00     0.113 C 
ATOM     21  C   UNL d   1     -46.028  10.764  23.698  0.00  0.00     0.113 C 
ENDBRANCH  16  19
ENDBRANCH   1  16
TORSDOF 4
ENDMDL
MODEL 5
REMARK VINA RESULT:      -6.5      1.225      1.632
REMARK  4 active torsions:
REMARK  status: ('A' for Active; 'I' for Inactive)
REMARK    1  A    between atoms: N_3  and  S_1 
REMARK    2  A    between atoms: N_5  and  S_1 
REMARK    3  A    between atoms: S_2  and  N_4 
REMARK    4  A    between atoms: C_14  and  S_2 
ROOT
ATOM      1  N   UNL d   1     -47.965  13.722  22.963  0.00  0.00    -0.213 N 
ATOM      2  N   UNL d   1     -46.740  12.644  23.102  0.00  0.00    -0.226 N 
ATOM      3  C   UNL d   1     -47.533  12.365  23.072  0.00  0.00     0.111 A 
ATOM      4  C   UNL d   1     -46.583  13.444  23.063  0.00  0.00     0.111 A 
ATOM      5  C   UNL d   1     -47.200  13.987  22.993  0.00  0.00     0.113 A 
ATOM      6  C   UNL d   1     -48.150  12.909  23.002  0.00  0.00     0.113 A 
ENDROOT
BRANCH   2   7
ATOM      7  S   UNL d   1     -46.123  12.101  23.172  0.00  0.00     0.271 S 
ATOM      8  O   UNL d   1     -45.389  12.263  22.819  0.00  0.00    -0.200 OA
ATOM      9  O   UNL d   1     -46.235  11.401  23.589  0.00  0.00    -0.200 OA
BRANCH   7  10
ATOM     10  C   UNL d   1     -45.506  11.558  23.242  0.00  0.00     0.104 A 
ATOM     11  C   UNL d   1     -45.636  10.841  23.628  0.00  0.00     0.013 A 
ATOM     12  C   UNL d   1     -45.019  10.298  23.698  0.00  0.00     0.001 A 
ATOM     13  C   UNL d   1     -44.275  10.474  23.381  0.00  0.00     0.000 A 
ATOM     14  C   UNL d   1     -44.153  11.203  22.991  0.00  0.00     0.001 A 
ATOM     15  C   UNL d   1     -44.769  11.735  22.927  0.00  0.00     0.013 A 
ENDBRANCH   7  10
ENDBRANCH   2   7
BRANCH   1  16
ATOM     16  S   UNL d   1     -48.592  14.273  22.892  0.00  0.00     0.337 S 
ATOM     17  O   UNL d   1     -48.436  15.080  22.927  0.00  0.00    -0.181 OA
ATOM     18  O   UNL d   1     -49.369  14.002  22.787  0.00  0.00    -0.181 OA
BRANCH  16  19
ATOM     19  N   UNL d   1     -49.052  14.960  22.845  0.00  0.00    -0.213 N 
ATOM     20  C   UNL d   1     -49.584  15.148  23.455  0.00  0.00     0.113 C 
ATOM     21  C   UNL d   1     -48.982  15.454  22.195  0.00  0.00     0.113 C 
ENDBRANCH  16  19
ENDBRANCH   1  16
TORSDOF 4
ENDMDL
MODEL 6
REMARK VINA RESULT:      -6.3      8.552      9.133
REMARK  4 active torsions:
REMARK  status: ('A' for Active; 'I' for Inactive)
REMARK    1  A    between atoms: N_3  and  S_1 
REMARK    2  A    between atoms: N_5  and  S_1 
REMARK    3  A    between atoms: S_2  and  N_4 
REMARK    4  A    between atoms: C_14  and  S_2 
ROOT
ATOM      1  N   UNL d   1     -40.100  14.635  18.910  0.00  0.00    -0.213 N 
ATOM      2  N   UNL d   1     -39.594  14.459  20.457  0.00  0.00    -0.226 N 
ATOM      3  C   UNL d   1     -40.418  14.443  20.289  0.00  0.00     0.111 A 
ATOM      4  C   UNL d   1     -39.053  14.562  19.856  0.00  0.00     0.111 A 
ATOM      5  C   UNL d   1     -39.308  14.650  19.076  0.00  0.00     0.113 A 
ATOM      6  C   UNL d   1     -40.673  14.531  19.509  0.00  0.00     0.113 A 
ENDROOT
BRANCH   2   7
ATOM      7  S   UNL d   1     -39.339  14.371  21.237  0.00  0.00     0.271 S 
ATOM      8  O   UNL d   1     -39.091  13.626  21.508  0.00  0.00    -0.200 OA
ATOM      9  O   UNL d   1     -39.330  15.019  21.744  0.00  0.00    -0.200 OA
BRANCH   7  10
ATOM     10  C   UNL d   1     -39.084  14.283  22.016  0.00  0.00     0.104 A 
ATOM     11  C   UNL d   1     -38.942  14.952  22.477  0.00  0.00     0.013 A 
ATOM     12  C   UNL d   1     -38.687  14.864  23.257  0.00  0.00     0.001 A 
ATOM     13  C   UNL d   1     -38.575  14.107  23.572  0.00  0.00     0.000 A 
ATOM     14  C   UNL d   1     -38.721  13.435  23.098  0.00  0.00     0.001 A 
ATOM     15  C   UNL d   1     -38.974  13.531  22.327  0.00  0.00     0.013 A 
ENDBRANCH   7  10
ENDBRANCH   2   7
BRANCH   1  16
ATOM     16  S   UNL d   1     -40.359  14.724  18.118  0.00  0.00     0.337 S 
ATOM     17  O   UNL d   1     -40.113  15.372  17.675  0.00  0.00    -0.181 OA
ATOM     18  O   UNL d   1     -40.865  14.157  17.784  0.00  0.00    -0.181 OA
BRANCH  16  19
ATOM     19  N   UNL d   1     -40.495  14.990  17.346  0.00  0.00    -0.213 N 
ATOM     20  C   UNL d   1     -40.003  14.740  16.727  0.00  0.00     0.113 C 
ATOM     21  C   UNL d   1     -41.118  15.501  17.194  0.00  0.00     0.113 C 
ENDBRANCH  16  19
ENDBRANCH   1  16
TORSDOF 4
ENDMDL
MODEL 7
REMARK VINA RESULT:      -5.8      8.553      9.466
REMARK  4 active torsions:
REMARK  status: ('A' for Active; 'I' for Inactive)
REMARK    1  A    between atoms: N_3  and  S_1 
REMARK    2  A    between atoms: N_5  and  S_1 
REMARK    3  A    between atoms: S_2  and  N_4 
REMARK    4  A    between atoms: C_14  and  S_2 
ROOT
ATOM      1  N   UNL d   1     -39.221  14.160  21.324  0.00  0.00    -0.213 N 
ATOM      2  N   UNL d   1     -39.779  14.579  19.843  0.00  0.00    -0.226 N 
ATOM      3  C   UNL d   1     -38.983  14.321  19.926  0.00  0.00     0.111 A 
ATOM      4  C   UNL d   1     -40.268  14.620  20.494  0.00  0.00     0.111 A 
ATOM      5  C   UNL d   1     -39.987  14.409  21.241  0.00  0.00     0.113 A 
ATOM      6  C   UNL d   1     -38.702  14.110  20.672  0.00  0.00     0.113 A 
ENDROOT
BRANCH   2   7
ATOM      7  S   UNL d   1     -40.060  14.790  19.097  0.00  0.00     0.271 S 
ATOM      8  O   UNL d   1     -40.601  14.296  18.704  0.00  0.00    -0.200 OA
ATOM      9  O   UNL d   1     -39.806  15.488  18.742  0.00  0.00    -0.200 OA
BRANCH   7  10
ATOM     10  C   UNL d   1     -40.341  15.001  18.350  0.00  0.00     0.104 A 
ATOM     11  C   UNL d   1     -40.209  14.501  17.708  0.00  0.00     0.013 A 
ATOM     12  C   UNL d   1     -40.490  14.712  16.962  0.00  0.00     0.001 A 
ATOM     13  C   UNL d   1     -40.902  15.422  16.861  0.00  0.00     0.000 A 
ATOM     14  C   UNL d   1     -41.032  15.922  17.517  0.00  0.00     0.001 A 
ATOM     15  C   UNL d   1     -40.751  15.705  18.253  0.00  0.00     0.013 A 
ENDBRANCH   7  10
ENDBRANCH   2   7
BRANCH   1  16
ATOM     16  S   UNL d   1     -38.935  13.946  22.082  0.00  0.00     0.337 S 
ATOM     17  O   UNL d   1     -38.375  14.416  22.459  0.00  0.00    -0.181 OA
ATOM     18  O   UNL d   1     -39.220  13.258  22.450  0.00  0.00    -0.181 OA
BRANCH  16  19
ATOM     19  N   UNL d   1     -38.538  13.913  22.807  0.00  0.00    -0.213 N 
ATOM     20  C   UNL d   1     -38.680  14.489  23.388  0.00  0.00     0.113 C 
ATOM     21  C   UNL d   1     -38.003  13.308  22.952  0.00  0.00     0.113 C 
ENDBRANCH  16  19
ENDBRANCH   1  16
TORSDOF 4
ENDMDL
