MODEL 1
REMARK VINA RESULT:      27.2      0.000      0.000
REMARK  3 active torsions:
REMARK  status: ('A' for Active; 'I' for Inactive)
REMARK    1  A    between atoms: N_7  and  C_1 
REMARK    2  A    between atoms: C_11  and  N_3 
REMARK       I    between atoms: C_9  and  N_7 
REMARK    3  A    between atoms: C_12  and  C_9 
ROOT
ATOM      1  C   UNL d   1      46.251 -18.564  43.432  0.00  0.00     0.165 A 
ATOM      2  C   UNL d   1      46.361 -18.397  42.680  0.00  0.00     0.067 A 
ATOM      3  N   UNL d   1      46.254 -19.339  43.506  0.00  0.00    -0.238 N 
ATOM      4  C   UNL d   1      46.433 -19.073  42.287  0.00  0.00     0.116 A 
ATOM      5  N   UNL d   1      46.367 -19.651  42.799  0.00  0.00    -0.168 NA
ATOM      6  S   UNL d   1      46.538 -18.122  41.465  0.00  0.00     0.213 S 
ATOM      7  C   UNL d   1      46.542 -18.899  41.539  0.00  0.00     0.120 A 
ATOM      8  C   UNL d   1      46.426 -17.812  42.171  0.00  0.00     0.103 A 
ATOM      9  O   UNL d   1      46.646 -18.504  40.800  0.00  0.00    -0.217 OA
ATOM     10  O   UNL d   1      46.527 -17.448  41.454  0.00  0.00    -0.217 OA
ENDROOT
BRANCH   1  11
ATOM     11  N   UNL d   1      46.209 -17.886  43.624  0.00  0.00    -0.189 NA
ATOM     12  C   UNL d   1      45.707 -17.360  44.320  0.00  0.00     0.281 C 
ATOM     13  O   UNL d   1      45.227 -17.698  44.808  0.00  0.00    -0.265 OA
BRANCH  12  14
ATOM     14  C   UNL d   1      45.817 -16.546  44.365  0.00  0.00     0.058 A 
ATOM     15  C   UNL d   1      45.190 -16.055  44.648  0.00  0.00     0.005 A 
ATOM     16  C   UNL d   1      44.470 -16.387  44.878  0.00  0.00     0.000 C 
ATOM     17  C   UNL d   1      45.304 -15.230  44.692  0.00  0.00     0.000 A 
ATOM     18  C   UNL d   1      46.037 -14.898  44.457  0.00  0.00     0.000 A 
ATOM     19  C   UNL d   1      46.644 -15.391  44.181  0.00  0.00     0.000 A 
ATOM     20  C   UNL d   1      46.535 -16.217  44.135  0.00  0.00     0.005 A 
ENDBRANCH  12  14
ENDBRANCH   1  11
BRANCH   3  21
ATOM     21  C   UNL d   1      46.155 -19.763  44.216  0.00  0.00     0.088 C 
ATOM     22  C   UNL d   1      46.646 -19.737  44.891  0.00  0.00     0.025 C 
ATOM     23  C   UNL d   1      45.484 -20.249  44.205  0.00  0.00     0.025 C 
ATOM     24  C   UNL d   1      46.153 -20.130  44.955  0.00  0.00     0.025 C 
ENDBRANCH   3  21
TORSDOF 3
ENDMDL
