MODEL 1
REMARK VINA RESULT:      -9.7      0.000      0.000
REMARK  5 active torsions:
REMARK  status: ('A' for Active; 'I' for Inactive)
REMARK    1  A    between atoms: C_2  and  S_1 
REMARK    2  A    between atoms: N_4  and  S_1 
REMARK    3  A    between atoms: C_15  and  N_4 
REMARK    4  A    between atoms: N_7  and  C_6 
REMARK    5  A    between atoms: C_12  and  C_13 
ROOT
ATOM      1  C   UNL d   1      51.907  34.084  53.108  0.00  0.00     0.021 A 
ATOM      2  C   UNL d   1      53.095  33.292  53.149  0.00  0.00     0.094 A 
ATOM      3  C   UNL d   1      52.365  33.467  52.808  0.00  0.00     0.021 A 
ATOM      4  C   UNL d   1      52.180  34.527  53.749  0.00  0.00     0.002 A 
ATOM      5  C   UNL d   1      52.909  34.350  54.088  0.00  0.00     0.002 A 
ATOM      6  C   UNL d   1      53.366  33.733  53.788  0.00  0.00     0.020 A 
ENDROOT
BRANCH   1   7
ATOM      7  C   UNL d   1      51.176  34.260  52.767  0.00  0.00     0.103 A 
ATOM      8  N   UNL d   1      51.106  34.314  51.946  0.00  0.00    -0.147 NA
ATOM      9  N   UNL d   1      50.375  34.490  51.605  0.00  0.00    -0.130 NA
ATOM     10  C   UNL d   1      49.715  34.611  52.084  0.00  0.00     0.170 A 
ATOM     11  C   UNL d   1      49.785  34.557  52.904  0.00  0.00     0.041 A 
ATOM     12  C   UNL d   1      50.516  34.381  53.246  0.00  0.00     0.024 A 
BRANCH  10  13
ATOM     13  N   UNL d   1      48.990  34.786  51.750  0.00  0.00    -0.284 N 
ATOM     14  C   UNL d   1      48.449  35.261  52.153  0.00  0.00     0.108 A 
ATOM     15  C   UNL d   1      47.723  35.436  51.819  0.00  0.00     0.142 A 
ATOM     16  O   UNL d   1      47.533  35.134  51.075  0.00  0.00    -0.300 OA
ATOM     17  C   UNL d   1      48.073  34.658  50.672  0.00  0.00     0.142 A 
ATOM     18  C   UNL d   1      48.804  34.485  51.013  0.00  0.00     0.108 A 
ENDBRANCH  10  13
ENDBRANCH   1   7
BRANCH   2  19
ATOM     19  N   UNL d   1      53.553  32.674  52.849  0.00  0.00    -0.158 NA
BRANCH  19  20
ATOM     20  S   UNL d   1      53.478  31.916  53.159  0.00  0.00     0.285 S 
ATOM     21  O   UNL d   1      52.950  31.719  52.553  0.00  0.00    -0.198 OA
ATOM     22  O   UNL d   1      54.011  32.117  53.769  0.00  0.00    -0.198 OA
BRANCH  20  23
ATOM     23  C   UNL d   1      53.398  31.152  53.465  0.00  0.00     0.106 A 
ATOM     24  C   UNL d   1      52.994  30.576  53.049  0.00  0.00     0.025 A 
ATOM     25  C   UNL d   1      52.913  29.816  53.352  0.00  0.00     0.069 A 
ATOM     26 CL   UNL d   1      52.504  29.232  52.932  0.00  0.00    -0.082 Cl
ATOM     27  C   UNL d   1      53.244  29.634  54.085  0.00  0.00     0.068 A 
ATOM     28  C   UNL d   1      53.653  30.214  54.508  0.00  0.00     0.013 A 
ATOM     29 CL   UNL d   1      53.171  28.866  54.406  0.00  0.00    -0.082 Cl
ATOM     30  C   UNL d   1      53.729  30.970  54.198  0.00  0.00     0.014 A 
ENDBRANCH  20  23
ENDBRANCH  19  20
ENDBRANCH   2  19
TORSDOF 5
ENDMDL
MODEL 2
REMARK VINA RESULT:      -9.0      2.065      2.747
REMARK  5 active torsions:
REMARK  status: ('A' for Active; 'I' for Inactive)
REMARK    1  A    between atoms: C_2  and  S_1 
REMARK    2  A    between atoms: N_4  and  S_1 
REMARK    3  A    between atoms: C_15  and  N_4 
REMARK    4  A    between atoms: N_7  and  C_6 
REMARK    5  A    between atoms: C_12  and  C_13 
ROOT
ATOM      1  C   UNL d   1      50.219  34.450  52.363  0.00  0.00     0.021 A 
ATOM      2  C   UNL d   1      51.227  33.624  52.948  0.00  0.00     0.094 A 
ATOM      3  C   UNL d   1      50.495  34.000  52.997  0.00  0.00     0.021 A 
ATOM      4  C   UNL d   1      50.676  34.523  51.679  0.00  0.00     0.002 A 
ATOM      5  C   UNL d   1      51.406  34.146  51.633  0.00  0.00     0.002 A 
ATOM      6  C   UNL d   1      51.681  33.697  52.267  0.00  0.00     0.020 A 
ENDROOT
BRANCH   1   7
ATOM      7  C   UNL d   1      49.487  34.828  52.411  0.00  0.00     0.103 A 
ATOM      8  N   UNL d   1      48.946  34.760  51.791  0.00  0.00    -0.147 NA
ATOM      9  N   UNL d   1      48.213  35.137  51.840  0.00  0.00    -0.130 NA
ATOM     10  C   UNL d   1      48.021  35.582  52.508  0.00  0.00     0.170 A 
ATOM     11  C   UNL d   1      48.562  35.649  53.127  0.00  0.00     0.041 A 
ATOM     12  C   UNL d   1      49.295  35.272  53.079  0.00  0.00     0.024 A 
BRANCH  10  13
ATOM     13  N   UNL d   1      47.297  35.957  52.559  0.00  0.00    -0.284 N 
ATOM     14  C   UNL d   1      47.072  36.334  53.257  0.00  0.00     0.108 A 
ATOM     15  C   UNL d   1      46.347  36.709  53.309  0.00  0.00     0.142 A 
ATOM     16  O   UNL d   1      45.839  36.709  52.658  0.00  0.00    -0.300 OA
ATOM     17  C   UNL d   1      46.064  36.332  51.960  0.00  0.00     0.142 A 
ATOM     18  C   UNL d   1      46.796  35.955  51.912  0.00  0.00     0.108 A 
ENDBRANCH  10  13
ENDBRANCH   1   7
BRANCH   2  19
ATOM     19  N   UNL d   1      51.503  33.174  53.583  0.00  0.00    -0.158 NA
BRANCH  19  20
ATOM     20  S   UNL d   1      52.275  33.266  53.849  0.00  0.00     0.285 S 
ATOM     21  O   UNL d   1      52.048  33.934  54.281  0.00  0.00    -0.198 OA
ATOM     22  O   UNL d   1      52.501  32.592  53.414  0.00  0.00    -0.198 OA
BRANCH  20  23
ATOM     23  C   UNL d   1      53.049  33.365  54.122  0.00  0.00     0.106 A 
ATOM     24  C   UNL d   1      53.679  33.029  53.724  0.00  0.00     0.025 A 
ATOM     25  C   UNL d   1      54.449  33.126  53.994  0.00  0.00     0.069 A 
ATOM     26 CL   UNL d   1      55.087  32.787  53.592  0.00  0.00    -0.082 Cl
ATOM     27  C   UNL d   1      54.587  33.569  54.676  0.00  0.00     0.068 A 
ATOM     28  C   UNL d   1      53.953  33.911  55.081  0.00  0.00     0.013 A 
ATOM     29 CL   UNL d   1      55.364  33.678  54.963  0.00  0.00    -0.082 Cl
ATOM     30  C   UNL d   1      53.187  33.808  54.804  0.00  0.00     0.014 A 
ENDBRANCH  20  23
ENDBRANCH  19  20
ENDBRANCH   2  19
TORSDOF 5
ENDMDL
MODEL 3
REMARK VINA RESULT:      -8.9      3.347      6.465
REMARK  5 active torsions:
REMARK  status: ('A' for Active; 'I' for Inactive)
REMARK    1  A    between atoms: C_2  and  S_1 
REMARK    2  A    between atoms: N_4  and  S_1 
REMARK    3  A    between atoms: C_15  and  N_4 
REMARK    4  A    between atoms: N_7  and  C_6 
REMARK    5  A    between atoms: C_12  and  C_13 
ROOT
ATOM      1  C   UNL d   1      49.908  34.542  52.519  0.00  0.00     0.021 A 
ATOM      2  C   UNL d   1      48.883  35.529  52.652  0.00  0.00     0.094 A 
ATOM      3  C   UNL d   1      49.572  35.173  52.933  0.00  0.00     0.021 A 
ATOM      4  C   UNL d   1      49.554  34.269  51.825  0.00  0.00     0.002 A 
ATOM      5  C   UNL d   1      48.867  34.626  51.548  0.00  0.00     0.002 A 
ATOM      6  C   UNL d   1      48.532  35.256  51.962  0.00  0.00     0.020 A 
ENDROOT
BRANCH   1   7
ATOM      7  C   UNL d   1      50.597  34.185  52.799  0.00  0.00     0.103 A 
ATOM      8  N   UNL d   1      50.551  33.493  53.247  0.00  0.00    -0.147 NA
ATOM      9  N   UNL d   1      51.241  33.136  53.527  0.00  0.00    -0.130 NA
ATOM     10  C   UNL d   1      51.976  33.470  53.359  0.00  0.00     0.170 A 
ATOM     11  C   UNL d   1      52.022  34.161  52.911  0.00  0.00     0.041 A 
ATOM     12  C   UNL d   1      51.333  34.519  52.631  0.00  0.00     0.024 A 
BRANCH  10  13
ATOM     13  N   UNL d   1      52.661  33.119  53.635  0.00  0.00    -0.284 N 
ATOM     14  C   UNL d   1      53.038  33.414  54.306  0.00  0.00     0.108 A 
ATOM     15  C   UNL d   1      53.724  33.063  54.582  0.00  0.00     0.142 A 
ATOM     16  O   UNL d   1      54.037  32.410  54.186  0.00  0.00    -0.300 OA
ATOM     17  C   UNL d   1      53.660  32.115  53.514  0.00  0.00     0.142 A 
ATOM     18  C   UNL d   1      52.969  32.473  53.239  0.00  0.00     0.108 A 
ENDBRANCH  10  13
ENDBRANCH   1   7
BRANCH   2  19
ATOM     19  N   UNL d   1      48.548  36.159  53.066  0.00  0.00    -0.158 NA
BRANCH  19  20
ATOM     20  S   UNL d   1      47.786  36.095  53.370  0.00  0.00     0.285 S 
ATOM     21  O   UNL d   1      48.089  35.753  54.060  0.00  0.00    -0.198 OA
ATOM     22  O   UNL d   1      47.484  36.440  52.674  0.00  0.00    -0.198 OA
BRANCH  20  23
ATOM     23  C   UNL d   1      47.024  36.028  53.682  0.00  0.00     0.106 A 
ATOM     24  C   UNL d   1      46.374  35.966  53.190  0.00  0.00     0.025 A 
ATOM     25  C   UNL d   1      45.615  35.898  53.499  0.00  0.00     0.069 A 
ATOM     26 CL   UNL d   1      44.958  35.835  53.002  0.00  0.00    -0.082 Cl
ATOM     27  C   UNL d   1      45.509  35.893  54.317  0.00  0.00     0.068 A 
ATOM     28  C   UNL d   1      46.164  35.956  54.818  0.00  0.00     0.013 A 
ATOM     29 CL   UNL d   1      44.745  35.826  54.647  0.00  0.00    -0.082 Cl
ATOM     30  C   UNL d   1      46.918  36.023  54.500  0.00  0.00     0.014 A 
ENDBRANCH  20  23
ENDBRANCH  19  20
ENDBRANCH   2  19
TORSDOF 5
ENDMDL
