MODEL 1
REMARK VINA RESULT:      -6.3      0.000      0.000
REMARK  5 active torsions:
REMARK  status: ('A' for Active; 'I' for Inactive)
REMARK    1  A    between atoms: N_5  and  S_1 
REMARK    2  A    between atoms: C_9  and  S_1 
REMARK    3  A    between atoms: C_6  and  C_2 
REMARK    4  A    between atoms: C_4  and  N_5 
REMARK    5  A    between atoms: O_20  and  C_17 
ROOT
ATOM      1  S   UNL d   1     -41.500-122.335 -51.900  0.00  0.00     0.287 S 
ATOM      2  O   UNL d   1     -41.874-121.602 -51.757  0.00  0.00    -0.198 OA
ATOM      3  O   UNL d   1     -41.123-123.081 -52.043  0.00  0.00    -0.198 OA
ENDROOT
BRANCH   1   4
ATOM      4  N   UNL d   1     -41.123-122.018 -52.584  0.00  0.00    -0.132 NA
BRANCH   4   5
ATOM      5  C   UNL d   1     -41.413-122.182 -53.345  0.00  0.00     0.206 A 
ATOM      6  N   UNL d   1     -42.002-121.802 -53.835  0.00  0.00    -0.216 NA
ATOM      7  C   UNL d   1     -42.036-122.239 -54.542  0.00  0.00     0.161 A 
ATOM      8  C   UNL d   1     -41.513-122.850 -54.510  0.00  0.00     0.061 A 
ATOM      9  S   UNL d   1     -41.123-122.837 -53.794  0.00  0.00    -0.046 SA
BRANCH   7  10
ATOM     10  C   UNL d   1     -42.521-122.091 -55.191  0.00  0.00     0.436 C 
ATOM     11  F   UNL d   1     -43.050-121.973 -55.818  0.00  0.00    -0.165 F 
ATOM     12  F   UNL d   1     -42.227-121.596 -55.867  0.00  0.00    -0.165 F 
ATOM     13  F   UNL d   1     -43.243-122.397 -55.193  0.00  0.00    -0.165 F 
ENDBRANCH   7  10
ENDBRANCH   4   5
ENDBRANCH   1   4
BRANCH   1  14
ATOM     14  C   UNL d   1     -41.875-122.664 -51.215  0.00  0.00     0.105 A 
ATOM     15  C   UNL d   1     -41.692-123.431 -51.009  0.00  0.00     0.015 A 
ATOM     16  C   UNL d   1     -42.042-123.766 -50.353  0.00  0.00     0.025 A 
ATOM     17  C   UNL d   1     -42.580-123.337 -49.894  0.00  0.00     0.094 A 
ATOM     18  C   UNL d   1     -42.770-122.567 -50.092  0.00  0.00     0.025 A 
ATOM     19  C   UNL d   1     -42.428-122.225 -50.742  0.00  0.00     0.015 A 
BRANCH  17  20
ATOM     20  O   UNL d   1     -42.956-123.661 -49.210  0.00  0.00    -0.328 OA
ATOM     21  C   UNL d   1     -42.532-123.709 -48.485  0.00  0.00     0.181 C 
ENDBRANCH  17  20
ENDBRANCH   1  14
TORSDOF 5
ENDMDL
MODEL 2
REMARK VINA RESULT:      -5.9      2.628      4.527
REMARK  5 active torsions:
REMARK  status: ('A' for Active; 'I' for Inactive)
REMARK    1  A    between atoms: N_5  and  S_1 
REMARK    2  A    between atoms: C_9  and  S_1 
REMARK    3  A    between atoms: C_6  and  C_2 
REMARK    4  A    between atoms: C_4  and  N_5 
REMARK    5  A    between atoms: O_20  and  C_17 
ROOT
ATOM      1  S   UNL d   1     -41.423-122.729 -52.523  0.00  0.00     0.287 S 
ATOM      2  O   UNL d   1     -41.690-123.506 -52.674  0.00  0.00    -0.198 OA
ATOM      3  O   UNL d   1     -41.153-121.939 -52.375  0.00  0.00    -0.198 OA
ENDROOT
BRANCH   1   4
ATOM      4  N   UNL d   1     -41.123-122.968 -51.773  0.00  0.00    -0.132 NA
BRANCH   4   5
ATOM      5  C   UNL d   1     -41.630-123.051 -51.119  0.00  0.00     0.206 A 
ATOM      6  N   UNL d   1     -42.054-122.485 -50.639  0.00  0.00    -0.216 NA
ATOM      7  C   UNL d   1     -42.467-122.927 -50.067  0.00  0.00     0.161 A 
ATOM      8  C   UNL d   1     -42.322-123.711 -50.170  0.00  0.00     0.061 A 
ATOM      9  S   UNL d   1     -41.817-123.813 -50.802  0.00  0.00    -0.046 SA
BRANCH   7  10
ATOM     10  C   UNL d   1     -42.958-122.630 -49.475  0.00  0.00     0.436 C 
ATOM     11  F   UNL d   1     -43.486-122.316 -48.920  0.00  0.00    -0.165 F 
ATOM     12  F   UNL d   1     -42.719-122.696 -48.622  0.00  0.00    -0.165 F 
ATOM     13  F   UNL d   1     -43.632-122.291 -49.685  0.00  0.00    -0.165 F 
ENDBRANCH   7  10
ENDBRANCH   4   5
ENDBRANCH   1   4
BRANCH   1  14
ATOM     14  C   UNL d   1     -41.720-122.477 -53.276  0.00  0.00     0.105 A 
ATOM     15  C   UNL d   1     -41.481-122.886 -53.939  0.00  0.00     0.015 A 
ATOM     16  C   UNL d   1     -41.756-122.659 -54.672  0.00  0.00     0.025 A 
ATOM     17  C   UNL d   1     -42.274-122.018 -54.752  0.00  0.00     0.094 A 
ATOM     18  C   UNL d   1     -42.519-121.602 -54.093  0.00  0.00     0.025 A 
ATOM     19  C   UNL d   1     -42.252-121.818 -53.359  0.00  0.00     0.015 A 
BRANCH  17  20
ATOM     20  O   UNL d   1     -42.573-121.764 -55.500  0.00  0.00    -0.328 OA
ATOM     21  C   UNL d   1     -42.041-121.631 -56.138  0.00  0.00     0.181 C 
ENDBRANCH  17  20
ENDBRANCH   1  14
TORSDOF 5
ENDMDL
MODEL 3
REMARK VINA RESULT:      -3.9      3.121      4.779
REMARK  5 active torsions:
REMARK  status: ('A' for Active; 'I' for Inactive)
REMARK    1  A    between atoms: N_5  and  S_1 
REMARK    2  A    between atoms: C_9  and  S_1 
REMARK    3  A    between atoms: C_6  and  C_2 
REMARK    4  A    between atoms: C_4  and  N_5 
REMARK    5  A    between atoms: O_20  and  C_17 
ROOT
ATOM      1  S   UNL d   1     -41.365-123.096 -51.677  0.00  0.00     0.287 S 
ATOM      2  O   UNL d   1     -41.123-122.383 -51.316  0.00  0.00    -0.198 OA
ATOM      3  O   UNL d   1     -41.612-123.817 -52.046  0.00  0.00    -0.198 OA
ENDROOT
BRANCH   1   4
ATOM      4  N   UNL d   1     -41.226-123.516 -50.960  0.00  0.00    -0.132 NA
BRANCH   4   5
ATOM      5  C   UNL d   1     -41.728-123.419 -50.304  0.00  0.00     0.206 A 
ATOM      6  N   UNL d   1     -41.659-122.963 -49.584  0.00  0.00    -0.216 NA
ATOM      7  C   UNL d   1     -42.357-123.104 -49.152  0.00  0.00     0.161 A 
ATOM      8  C   UNL d   1     -42.834-123.608 -49.559  0.00  0.00     0.061 A 
ATOM      9  S   UNL d   1     -42.475-123.813 -50.262  0.00  0.00    -0.046 SA
BRANCH   7  10
ATOM     10  C   UNL d   1     -42.553-122.788 -48.416  0.00  0.00     0.436 C 
ATOM     11  F   UNL d   1     -42.801-122.458 -47.699  0.00  0.00    -0.165 F 
ATOM     12  F   UNL d   1     -41.963-122.799 -47.753  0.00  0.00    -0.165 F 
ATOM     13  F   UNL d   1     -43.268-122.482 -48.322  0.00  0.00    -0.165 F 
ENDBRANCH   7  10
ENDBRANCH   4   5
ENDBRANCH   1   4
BRANCH   1  14
ATOM     14  C   UNL d   1     -41.509-122.684 -52.403  0.00  0.00     0.105 A 
ATOM     15  C   UNL d   1     -41.728-121.900 -52.362  0.00  0.00     0.015 A 
ATOM     16  C   UNL d   1     -41.871-121.486 -53.050  0.00  0.00     0.025 A 
ATOM     17  C   UNL d   1     -41.796-121.851 -53.789  0.00  0.00     0.094 A 
ATOM     18  C   UNL d   1     -41.577-122.637 -53.840  0.00  0.00     0.025 A 
ATOM     19  C   UNL d   1     -41.432-123.058 -53.163  0.00  0.00     0.015 A 
BRANCH  17  20
ATOM     20  O   UNL d   1     -41.938-121.444 -54.515  0.00  0.00    -0.328 OA
ATOM     21  C   UNL d   1     -42.036-121.881 -55.227  0.00  0.00     0.181 C 
ENDBRANCH  17  20
ENDBRANCH   1  14
TORSDOF 5
ENDMDL
