MODEL 1
REMARK VINA RESULT:     101.8      0.000      0.000
REMARK  5 active torsions:
REMARK  status: ('A' for Active; 'I' for Inactive)
REMARK    1  A    between atoms: C_7  and  N_1 
REMARK    2  A    between atoms: C_10  and  C_2 
REMARK    3  A    between atoms: C_11  and  C_5 
REMARK    4  A    between atoms: C_9  and  C_7 
REMARK    5  A    between atoms: O_16  and  C_9 
ROOT
ATOM      1  N   UNL d   1     -57.193 -99.244 -44.703  0.00  0.00    -0.286 N 
ATOM      2  C   UNL d   1     -57.944 -99.094 -45.008  0.00  0.00     0.148 A 
ATOM      3  N   UNL d   1     -58.566 -98.936 -44.494  0.00  0.00    -0.228 NA
ATOM      4  C   UNL d   1     -57.692 -99.078 -43.389  0.00  0.00     0.035 A 
ATOM      5  C   UNL d   1     -57.076 -99.234 -43.890  0.00  0.00     0.067 A 
ATOM      6  C   UNL d   1     -58.444 -98.928 -43.694  0.00  0.00     0.084 A 
ATOM      7  C   UNL d   1     -57.572 -99.068 -42.584  0.00  0.00     0.014 A 
ATOM      8  C   UNL d   1     -59.062 -98.771 -43.188  0.00  0.00     0.020 A 
ATOM      9  C   UNL d   1     -58.194 -98.911 -42.070  0.00  0.00     0.058 A 
ATOM     10  C   UNL d   1     -58.946 -98.761 -42.375  0.00  0.00     0.013 A 
ATOM     11 CL   UNL d   1     -58.072 -98.901 -41.244  0.00  0.00    -0.082 Cl
ENDROOT
BRANCH   2  12
ATOM     12  C   UNL d   1     -58.472 -99.009 -45.692  0.00  0.00     0.035 A 
ATOM     13  C   UNL d   1     -59.337 -99.068 -45.592  0.00  0.00     0.003 A 
ATOM     14  C   UNL d   1     -59.861 -98.982 -46.281  0.00  0.00     0.000 A 
ATOM     15  C   UNL d   1     -59.514 -98.837 -47.076  0.00  0.00     0.000 A 
ATOM     16  C   UNL d   1     -58.648 -98.780 -47.166  0.00  0.00     0.000 A 
ATOM     17  C   UNL d   1     -58.130 -98.866 -46.481  0.00  0.00     0.003 A 
ENDBRANCH   2  12
BRANCH   1  18
ATOM     18  C   UNL d   1     -56.571 -99.401 -45.217  0.00  0.00     0.150 C 
BRANCH  18  19
ATOM     19  C   UNL d   1     -56.288-100.163 -45.312  0.00  0.00     0.314 C 
ATOM     20  O   UNL d   1     -56.640-100.784 -44.897  0.00  0.00    -0.257 OA
BRANCH  19  21
ATOM     21  O   UNL d   1     -55.663-100.313 -45.811  0.00  0.00    -0.295 OA
ATOM     22  C   UNL d   1     -54.966 -99.884 -45.735  0.00  0.00     0.185 C 
ENDBRANCH  19  21
ENDBRANCH  18  19
ENDBRANCH   1  18
BRANCH   5  23
ATOM     23  C   UNL d   1     -56.324 -99.383 -43.585  0.00  0.00     0.016 A 
ATOM     24  C   UNL d   1     -55.801 -98.775 -43.477  0.00  0.00     0.001 A 
ATOM     25  C   UNL d   1     -55.049 -98.924 -43.173  0.00  0.00     0.000 A 
ATOM     26  C   UNL d   1     -54.833 -99.681 -42.981  0.00  0.00     0.000 A 
ATOM     27  C   UNL d   1     -55.362-100.318 -43.086  0.00  0.00     0.000 A 
ATOM     28  C   UNL d   1     -56.111-100.155 -43.392  0.00  0.00     0.001 A 
ENDBRANCH   5  23
TORSDOF 5
ENDMDL
