MODEL 1
REMARK VINA RESULT:      33.0      0.000      0.000
REMARK  5 active torsions:
REMARK  status: ('A' for Active; 'I' for Inactive)
REMARK    1  A    between atoms: C_3  and  N_1 
REMARK    2  A    between atoms: C_4  and  N_1 
REMARK    3  A    between atoms: N_7  and  C_3 
REMARK    4  A    between atoms: C_10  and  N_7 
REMARK    5  A    between atoms: C_8  and  C_10 
ROOT
ATOM      1  N   UNL d   1     -47.770  32.009  35.357  0.00  0.00    -0.198 NA
ENDROOT
BRANCH   1   2
ATOM      2  C   UNL d   1     -47.333  31.309  35.451  0.00  0.00     0.222 C 
ATOM      3  S   UNL d   1     -46.560  31.340  35.598  0.00  0.00    -0.037 SA
BRANCH   2   4
ATOM      4  N   UNL d   1     -47.702  30.603  35.391  0.00  0.00    -0.216 NA
BRANCH   4   5
ATOM      5  C   UNL d   1     -47.418  29.954  35.806  0.00  0.00     0.101 C 
BRANCH   5   6
ATOM      6  C   UNL d   1     -47.752  29.198  35.680  0.00  0.00     0.019 C 
ATOM      7  C   UNL d   1     -47.452  28.708  35.088  0.00  0.00     0.002 C 
ATOM      8  C   UNL d   1     -48.381  28.944  36.149  0.00  0.00     0.002 C 
ENDBRANCH   5   6
ENDBRANCH   4   5
ENDBRANCH   2   4
ENDBRANCH   1   2
BRANCH   1   9
ATOM      9  C   UNL d   1     -47.678  32.461  34.673  0.00  0.00     0.167 A 
ATOM     10  N   UNL d   1     -48.328  32.845  34.339  0.00  0.00    -0.206 NA
ATOM     11  C   UNL d   1     -48.236  33.296  33.655  0.00  0.00     0.185 A 
ATOM     12  N   UNL d   1     -48.889  33.673  33.332  0.00  0.00    -0.127 N 
ATOM     13  C   UNL d   1     -47.494  33.363  33.306  0.00  0.00     0.041 A 
ATOM     14  C   UNL d   1     -46.836  32.979  33.638  0.00  0.00     0.006 A 
ATOM     15  C   UNL d   1     -46.934  32.526  34.326  0.00  0.00     0.039 A 
ENDBRANCH   1   9
TORSDOF 5
ENDMDL
