MODEL 1
REMARK VINA RESULT:      58.7      0.000      0.000
REMARK  5 active torsions:
REMARK  status: ('A' for Active; 'I' for Inactive)
REMARK    1  A    between atoms: S_2  and  C_1 
REMARK    2  A    between atoms: N_3  and  C_1 
REMARK    3  A    between atoms: C_4  and  C_1 
REMARK    4  A    between atoms: C_6  and  S_2 
REMARK       I    between atoms: C_5  and  N_3 
REMARK    5  A    between atoms: C_9  and  C_5 
ROOT
ATOM      1  C   UNL d   1     -55.892 -99.803 -44.104  0.00  0.00     0.193 C 
ENDROOT
BRANCH   1   2
ATOM      2  S   UNL d   1     -56.674 -99.598 -44.269  0.00  0.00     0.228 S 
ATOM      3  O   UNL d   1     -56.797 -99.423 -43.473  0.00  0.00    -0.216 OA
ATOM      4  O   UNL d   1     -56.556 -99.773 -45.075  0.00  0.00    -0.216 OA
BRANCH   2   5
ATOM      5  C   UNL d   1     -57.491 -99.384 -44.441  0.00  0.00     0.089 A 
ATOM      6  C   UNL d   1     -58.008 -99.220 -43.820  0.00  0.00     0.011 A 
ATOM      7  C   UNL d   1     -58.790 -99.016 -43.986  0.00  0.00     0.001 A 
ATOM      8  C   UNL d   1     -59.054 -98.975 -44.772  0.00  0.00     0.000 A 
ATOM      9  C   UNL d   1     -58.539 -99.138 -45.397  0.00  0.00     0.001 A 
ATOM     10  C   UNL d   1     -59.848 -98.767 -44.930  0.00  0.00     0.000 C 
ATOM     11  C   UNL d   1     -57.757 -99.343 -45.231  0.00  0.00     0.011 A 
ENDBRANCH   2   5
ENDBRANCH   1   2
BRANCH   1  12
ATOM     12  N   UNL d   1     -55.717-100.268 -43.471  0.00  0.00    -0.195 NA
ATOM     13  C   UNL d   1     -55.377-101.011 -43.579  0.00  0.00     0.280 C 
ATOM     14  O   UNL d   1     -55.219-101.275 -44.315  0.00  0.00    -0.265 OA
BRANCH  13  15
ATOM     15  C   UNL d   1     -55.216-101.448 -42.905  0.00  0.00     0.058 A 
ATOM     16  C   UNL d   1     -55.077-101.048 -42.217  0.00  0.00     0.005 A 
ATOM     17  C   UNL d   1     -54.916-101.457 -41.536  0.00  0.00     0.000 A 
ATOM     18  C   UNL d   1     -54.890-102.280 -41.527  0.00  0.00     0.000 A 
ATOM     19  C   UNL d   1     -55.030-102.688 -42.218  0.00  0.00     0.000 A 
ATOM     20  C   UNL d   1     -54.721-102.728 -40.814  0.00  0.00     0.000 C 
ATOM     21  C   UNL d   1     -55.194-102.265 -42.914  0.00  0.00     0.005 A 
ENDBRANCH  13  15
ENDBRANCH   1  12
BRANCH   1  22
ATOM     22  C   UNL d   1     -55.277 -99.540 -44.575  0.00  0.00     0.144 C 
ATOM     23 CL   UNL d   1     -55.064-100.023 -45.135  0.00  0.00    -0.068 Cl
ATOM     24 CL   UNL d   1     -54.905 -98.763 -44.435  0.00  0.00    -0.068 Cl
ENDBRANCH   1  22
TORSDOF 5
ENDMDL
