MODEL 1
REMARK VINA RESULT:      -5.6      0.000      0.000
REMARK  2 active torsions:
REMARK  status: ('A' for Active; 'I' for Inactive)
REMARK    1  A    between atoms: C_4  and  N_1 
REMARK    2  A    between atoms: C_3  and  C_4 
ROOT
ATOM      1  N   UNL d   1      53.235  31.171  53.258  0.00  0.00    -0.295 N 
ATOM      2  N   UNL d   1      53.049  32.788  53.595  0.00  0.00    -0.299 N 
ATOM      3  C   UNL d   1      52.628  31.612  52.899  0.00  0.00     0.100 A 
ATOM      4  C   UNL d   1      53.751  31.559  53.794  0.00  0.00     0.100 A 
ATOM      5  C   UNL d   1      52.539  32.426  53.072  0.00  0.00     0.100 A 
ATOM      6  C   UNL d   1      53.660  32.362  53.962  0.00  0.00     0.100 A 
ATOM      7  C   UNL d   1      52.962  33.586  53.765  0.00  0.00     0.100 C 
ENDROOT
BRANCH   1   8
ATOM      8  C   UNL d   1      53.321  30.376  53.089  0.00  0.00     0.152 C 
BRANCH   8   9
ATOM      9  C   UNL d   1      52.969  29.823  53.585  0.00  0.00     0.230 C 
ATOM     10  O   UNL d   1      53.369  29.531  54.245  0.00  0.00    -0.643 OA
ATOM     11  O   UNL d   1      52.194  29.557  53.412  0.00  0.00    -0.643 OA
ENDBRANCH   8   9
ENDBRANCH   1   8
TORSDOF 2
ENDMDL
MODEL 2
REMARK VINA RESULT:      -5.6      2.218      2.850
REMARK  2 active torsions:
REMARK  status: ('A' for Active; 'I' for Inactive)
REMARK    1  A    between atoms: C_4  and  N_1 
REMARK    2  A    between atoms: C_3  and  C_4 
ROOT
ATOM      1  N   UNL d   1      53.536  33.366  53.711  0.00  0.00    -0.295 N 
ATOM      2  N   UNL d   1      52.091  33.843  53.041  0.00  0.00    -0.299 N 
ATOM      3  C   UNL d   1      53.018  32.807  53.377  0.00  0.00     0.100 A 
ATOM      4  C   UNL d   1      53.314  34.175  53.702  0.00  0.00     0.100 A 
ATOM      5  C   UNL d   1      52.291  33.053  53.041  0.00  0.00     0.100 A 
ATOM      6  C   UNL d   1      52.597  34.414  53.370  0.00  0.00     0.100 A 
ATOM      7  C   UNL d   1      51.380  34.084  52.712  0.00  0.00     0.100 C 
ENDROOT
BRANCH   1   8
ATOM      8  C   UNL d   1      54.244  33.125  54.039  0.00  0.00     0.152 C 
BRANCH   8   9
ATOM      9  C   UNL d   1      54.344  33.178  54.853  0.00  0.00     0.230 C 
ATOM     10  O   UNL d   1      54.064  32.584  55.354  0.00  0.00    -0.643 OA
ATOM     11  O   UNL d   1      54.737  33.846  55.171  0.00  0.00    -0.643 OA
ENDBRANCH   8   9
ENDBRANCH   1   8
TORSDOF 2
ENDMDL
MODEL 3
REMARK VINA RESULT:      -5.6      1.672      2.294
REMARK  2 active torsions:
REMARK  status: ('A' for Active; 'I' for Inactive)
REMARK    1  A    between atoms: C_4  and  N_1 
REMARK    2  A    between atoms: C_3  and  C_4 
ROOT
ATOM      1  N   UNL d   1      53.346  33.106  53.476  0.00  0.00    -0.295 N 
ATOM      2  N   UNL d   1      54.396  33.442  54.721  0.00  0.00    -0.299 N 
ATOM      3  C   UNL d   1      53.120  33.612  54.097  0.00  0.00     0.100 A 
ATOM      4  C   UNL d   1      54.115  32.769  53.491  0.00  0.00     0.100 A 
ATOM      5  C   UNL d   1      53.653  33.777  54.721  0.00  0.00     0.100 A 
ATOM      6  C   UNL d   1      54.637  32.935  54.108  0.00  0.00     0.100 A 
ATOM      7  C   UNL d   1      54.918  33.603  55.332  0.00  0.00     0.100 C 
ENDROOT
BRANCH   1   8
ATOM      8  C   UNL d   1      52.825  32.945  52.867  0.00  0.00     0.152 C 
BRANCH   8   9
ATOM      9  C   UNL d   1      52.384  32.253  52.894  0.00  0.00     0.230 C 
ATOM     10  O   UNL d   1      51.651  32.231  53.274  0.00  0.00    -0.643 OA
ATOM     11  O   UNL d   1      52.688  31.563  52.528  0.00  0.00    -0.643 OA
ENDBRANCH   8   9
ENDBRANCH   1   8
TORSDOF 2
ENDMDL
