MODEL 1
REMARK VINA RESULT:      -6.3      0.000      0.000
REMARK  4 active torsions:
REMARK  status: ('A' for Active; 'I' for Inactive)
REMARK    1  A    between atoms: C_2  and  N_1 
REMARK    2  A    between atoms: C_6  and  C_2 
REMARK    3  A    between atoms: C_7  and  C_2 
REMARK    4  A    between atoms: C_9  and  C_6 
ROOT
ATOM      1  C   UNL d   1     -48.437  12.131  22.982  0.00  0.00     0.153 C 
ENDROOT
BRANCH   1   2
ATOM      2  N   UNL d   1     -47.771  12.616  23.031  0.00  0.00    -0.224 N 
ATOM      3  N   UNL d   1     -47.702  13.387  22.781  0.00  0.00    -0.165 NA
ATOM      4  C   UNL d   1     -46.944  13.649  22.941  0.00  0.00     0.103 A 
ATOM      5  C   UNL d   1     -46.632  14.429  22.769  0.00  0.00     0.022 C 
ATOM      6  C   UNL d   1     -46.526  13.035  23.297  0.00  0.00     0.040 A 
ATOM      7  C   UNL d   1     -47.032  12.404  23.352  0.00  0.00     0.085 A 
ATOM      8  C   UNL d   1     -46.827  11.658  23.684  0.00  0.00     0.021 C 
ENDBRANCH   1   2
BRANCH   1   9
ATOM      9  C   UNL d   1     -48.869  11.936  23.665  0.00  0.00     0.096 C 
BRANCH   9  10
ATOM     10  C   UNL d   1     -49.684  12.037  23.671  0.00  0.00     0.213 C 
ATOM     11  O   UNL d   1     -50.201  11.394  23.653  0.00  0.00    -0.644 OA
ATOM     12  O   UNL d   1     -50.035  12.791  23.697  0.00  0.00    -0.644 OA
ENDBRANCH   9  10
ENDBRANCH   1   9
BRANCH   1  13
ATOM     13  C   UNL d   1     -48.676  11.838  22.256  0.00  0.00     0.230 C 
ATOM     14  O   UNL d   1     -48.550  11.038  22.077  0.00  0.00    -0.643 OA
ATOM     15  O   UNL d   1     -49.044  12.332  21.696  0.00  0.00    -0.643 OA
ENDBRANCH   1  13
TORSDOF 4
ENDMDL
MODEL 2
REMARK VINA RESULT:      -6.2      1.794      3.066
REMARK  4 active torsions:
REMARK  status: ('A' for Active; 'I' for Inactive)
REMARK    1  A    between atoms: C_2  and  N_1 
REMARK    2  A    between atoms: C_6  and  C_2 
REMARK    3  A    between atoms: C_7  and  C_2 
REMARK    4  A    between atoms: C_9  and  C_6 
ROOT
ATOM      1  C   UNL d   1     -47.892  13.504  22.660  0.00  0.00     0.153 C 
ENDROOT
BRANCH   1   2
ATOM      2  N   UNL d   1     -48.470  12.916  22.708  0.00  0.00    -0.224 N 
ATOM      3  N   UNL d   1     -48.829  12.631  23.379  0.00  0.00    -0.165 NA
ATOM      4  C   UNL d   1     -49.367  12.053  23.165  0.00  0.00     0.103 A 
ATOM      5  C   UNL d   1     -49.867  11.605  23.697  0.00  0.00     0.022 C 
ATOM      6  C   UNL d   1     -49.348  11.971  22.345  0.00  0.00     0.040 A 
ATOM      7  C   UNL d   1     -48.800  12.499  22.067  0.00  0.00     0.085 A 
ATOM      8  C   UNL d   1     -48.606  12.598  21.253  0.00  0.00     0.021 C 
ENDBRANCH   1   2
BRANCH   1   9
ATOM      9  C   UNL d   1     -47.095  13.302  22.533  0.00  0.00     0.096 C 
BRANCH   9  10
ATOM     10  C   UNL d   1     -46.534  13.493  23.100  0.00  0.00     0.213 C 
ATOM     11  O   UNL d   1     -46.322  12.962  23.697  0.00  0.00    -0.644 OA
ATOM     12  O   UNL d   1     -46.146  14.229  23.109  0.00  0.00    -0.644 OA
ENDBRANCH   9  10
ENDBRANCH   1   9
BRANCH   1  13
ATOM     13  C   UNL d   1     -48.101  14.291  22.738  0.00  0.00     0.230 C 
ATOM     14  O   UNL d   1     -48.003  14.805  22.095  0.00  0.00    -0.643 OA
ATOM     15  O   UNL d   1     -48.410  14.581  23.454  0.00  0.00    -0.643 OA
ENDBRANCH   1  13
TORSDOF 4
ENDMDL
MODEL 3
REMARK VINA RESULT:      -6.1      1.604      2.073
REMARK  4 active torsions:
REMARK  status: ('A' for Active; 'I' for Inactive)
REMARK    1  A    between atoms: C_2  and  N_1 
REMARK    2  A    between atoms: C_6  and  C_2 
REMARK    3  A    between atoms: C_7  and  C_2 
REMARK    4  A    between atoms: C_9  and  C_6 
ROOT
ATOM      1  C   UNL d   1     -48.695  13.033  22.293  0.00  0.00     0.153 C 
ENDROOT
BRANCH   1   2
ATOM      2  N   UNL d   1     -48.812  13.812  22.542  0.00  0.00    -0.224 N 
ATOM      3  N   UNL d   1     -49.521  14.189  22.668  0.00  0.00    -0.165 NA
ATOM      4  C   UNL d   1     -49.373  14.956  22.910  0.00  0.00     0.103 A 
ATOM      5  C   UNL d   1     -49.961  15.548  23.104  0.00  0.00     0.022 C 
ATOM      6  C   UNL d   1     -48.556  15.067  22.937  0.00  0.00     0.040 A 
ATOM      7  C   UNL d   1     -48.215  14.368  22.712  0.00  0.00     0.085 A 
ATOM      8  C   UNL d   1     -47.384  14.239  22.663  0.00  0.00     0.021 C 
ENDBRANCH   1   2
BRANCH   1   9
ATOM      9  C   UNL d   1     -48.382  12.466  22.815  0.00  0.00     0.096 C 
BRANCH   9  10
ATOM     10  C   UNL d   1     -48.795  11.769  22.950  0.00  0.00     0.213 C 
ATOM     11  O   UNL d   1     -48.581  11.061  22.584  0.00  0.00    -0.644 OA
ATOM     12  O   UNL d   1     -49.450  11.735  23.462  0.00  0.00    -0.644 OA
ENDBRANCH   9  10
ENDBRANCH   1   9
BRANCH   1  13
ATOM     13  C   UNL d   1     -48.889  12.814  21.529  0.00  0.00     0.230 C 
ATOM     14  O   UNL d   1     -48.284  12.694  20.974  0.00  0.00    -0.643 OA
ATOM     15  O   UNL d   1     -49.683  12.712  21.302  0.00  0.00    -0.643 OA
ENDBRANCH   1  13
TORSDOF 4
ENDMDL
MODEL 4
REMARK VINA RESULT:      -6.1      1.144      2.276
REMARK  4 active torsions:
REMARK  status: ('A' for Active; 'I' for Inactive)
REMARK    1  A    between atoms: C_2  and  N_1 
REMARK    2  A    between atoms: C_6  and  C_2 
REMARK    3  A    between atoms: C_7  and  C_2 
REMARK    4  A    between atoms: C_9  and  C_6 
ROOT
ATOM      1  C   UNL d   1     -48.524  13.469  22.639  0.00  0.00     0.153 C 
ENDROOT
BRANCH   1   2
ATOM      2  N   UNL d   1     -47.831  13.110  22.912  0.00  0.00    -0.224 N 
ATOM      3  N   UNL d   1     -47.743  12.346  23.175  0.00  0.00    -0.165 NA
ATOM      4  C   UNL d   1     -46.963  12.230  23.390  0.00  0.00     0.103 A 
ATOM      5  C   UNL d   1     -46.625  11.505  23.698  0.00  0.00     0.022 C 
ATOM      6  C   UNL d   1     -46.550  12.932  23.261  0.00  0.00     0.040 A 
ATOM      7  C   UNL d   1     -47.082  13.469  22.969  0.00  0.00     0.085 A 
ATOM      8  C   UNL d   1     -46.891  14.262  22.760  0.00  0.00     0.021 C 
ENDBRANCH   1   2
BRANCH   1   9
ATOM      9  C   UNL d   1     -48.629  13.621  21.829  0.00  0.00     0.096 C 
BRANCH   9  10
ATOM     10  C   UNL d   1     -49.279  13.307  21.439  0.00  0.00     0.213 C 
ATOM     11  O   UNL d   1     -49.983  13.732  21.356  0.00  0.00    -0.644 OA
ATOM     12  O   UNL d   1     -49.269  12.545  21.105  0.00  0.00    -0.644 OA
ENDBRANCH   9  10
ENDBRANCH   1   9
BRANCH   1  13
ATOM     13  C   UNL d   1     -49.112  13.678  23.168  0.00  0.00     0.230 C 
ATOM     14  O   UNL d   1     -49.239  14.479  23.342  0.00  0.00    -0.643 OA
ATOM     15  O   UNL d   1     -49.582  13.097  23.534  0.00  0.00    -0.643 OA
ENDBRANCH   1  13
TORSDOF 4
ENDMDL
MODEL 5
REMARK VINA RESULT:      -6.0      1.940      2.896
REMARK  4 active torsions:
REMARK  status: ('A' for Active; 'I' for Inactive)
REMARK    1  A    between atoms: C_2  and  N_1 
REMARK    2  A    between atoms: C_6  and  C_2 
REMARK    3  A    between atoms: C_7  and  C_2 
REMARK    4  A    between atoms: C_9  and  C_6 
ROOT
ATOM      1  C   UNL d   1     -46.867  13.129  22.782  0.00  0.00     0.153 C 
ENDROOT
BRANCH   1   2
ATOM      2  N   UNL d   1     -47.589  13.271  22.406  0.00  0.00    -0.224 N 
ATOM      3  N   UNL d   1     -47.969  12.790  21.872  0.00  0.00    -0.165 NA
ATOM      4  C   UNL d   1     -48.667  13.152  21.643  0.00  0.00     0.103 A 
ATOM      5  C   UNL d   1     -49.239  12.839  21.087  0.00  0.00     0.022 C 
ATOM      6  C   UNL d   1     -48.728  13.873  22.038  0.00  0.00     0.040 A 
ATOM      7  C   UNL d   1     -48.069  13.944  22.504  0.00  0.00     0.085 A 
ATOM      8  C   UNL d   1     -47.910  14.603  23.003  0.00  0.00     0.021 C 
ENDBRANCH   1   2
BRANCH   1   9
ATOM      9  C   UNL d   1     -46.847  12.791  23.541  0.00  0.00     0.096 C 
BRANCH   9  10
ATOM     10  C   UNL d   1     -46.543  12.034  23.640  0.00  0.00     0.213 C 
ATOM     11  O   UNL d   1     -45.730  11.896  23.687  0.00  0.00    -0.644 OA
ATOM     12  O   UNL d   1     -47.034  11.365  23.698  0.00  0.00    -0.644 OA
ENDBRANCH   9  10
ENDBRANCH   1   9
BRANCH   1  13
ATOM     13  C   UNL d   1     -46.166  13.321  22.407  0.00  0.00     0.230 C 
ATOM     14  O   UNL d   1     -45.688  13.923  22.720  0.00  0.00    -0.643 OA
ATOM     15  O   UNL d   1     -45.926  12.921  21.718  0.00  0.00    -0.643 OA
ENDBRANCH   1  13
TORSDOF 4
ENDMDL
MODEL 6
REMARK VINA RESULT:      -5.9      1.586      2.309
REMARK  4 active torsions:
REMARK  status: ('A' for Active; 'I' for Inactive)
REMARK    1  A    between atoms: C_2  and  N_1 
REMARK    2  A    between atoms: C_6  and  C_2 
REMARK    3  A    between atoms: C_7  and  C_2 
REMARK    4  A    between atoms: C_9  and  C_6 
ROOT
ATOM      1  C   UNL d   1     -49.024  13.104  22.480  0.00  0.00     0.153 C 
ENDROOT
BRANCH   1   2
ATOM      2  N   UNL d   1     -48.636  12.516  22.912  0.00  0.00    -0.224 N 
ATOM      3  N   UNL d   1     -47.833  12.410  22.991  0.00  0.00    -0.165 NA
ATOM      4  C   UNL d   1     -47.699  11.760  23.468  0.00  0.00     0.103 A 
ATOM      5  C   UNL d   1     -46.934  11.450  23.697  0.00  0.00     0.022 C 
ATOM      6  C   UNL d   1     -48.428  11.450  23.696  0.00  0.00     0.040 A 
ATOM      7  C   UNL d   1     -48.999  11.912  23.355  0.00  0.00     0.085 A 
ATOM      8  C   UNL d   1     -49.827  11.788  23.446  0.00  0.00     0.021 C 
ENDBRANCH   1   2
BRANCH   1   9
ATOM      9  C   UNL d   1     -49.368  13.754  22.867  0.00  0.00     0.096 C 
BRANCH   9  10
ATOM     10  C   UNL d   1     -49.137  14.515  22.663  0.00  0.00     0.213 C 
ATOM     11  O   UNL d   1     -48.426  14.839  22.932  0.00  0.00    -0.644 OA
ATOM     12  O   UNL d   1     -49.603  15.003  22.177  0.00  0.00    -0.644 OA
ENDBRANCH   9  10
ENDBRANCH   1   9
BRANCH   1  13
ATOM     13  C   UNL d   1     -49.071  13.048  21.665  0.00  0.00     0.230 C 
ATOM     14  O   UNL d   1     -48.390  13.172  21.208  0.00  0.00    -0.643 OA
ATOM     15  O   UNL d   1     -49.792  12.869  21.290  0.00  0.00    -0.643 OA
ENDBRANCH   1  13
TORSDOF 4
ENDMDL
