MODEL 1
REMARK VINA RESULT:      -2.2      0.000      0.000
REMARK  4 active torsions:
REMARK  status: ('A' for Active; 'I' for Inactive)
REMARK    1  A    between atoms: C_7  and  N_1 
REMARK    2  A    between atoms: C_8  and  C_7 
REMARK       I    between atoms: N_9  and  C_8 
REMARK    3  A    between atoms: C_13  and  N_9 
REMARK    4  A    between atoms: O_19  and  C_14 
ROOT
ATOM      1  C   UNL d   1      32.784  18.307 -23.755  0.00  0.00     0.148 C 
ENDROOT
BRANCH   1   2
ATOM      2  N   UNL d   1      32.218  17.718 -23.883  0.00  0.00    -0.235 N 
ATOM      3  C   UNL d   1      31.595  17.853 -24.415  0.00  0.00     0.273 A 
ATOM      4  C   UNL d   1      31.034  17.271 -24.541  0.00  0.00     0.086 A 
ATOM      5  O   UNL d   1      31.543  18.577 -24.817  0.00  0.00    -0.266 OA
ATOM      6  C   UNL d   1      30.409  17.407 -25.076  0.00  0.00     0.012 C 
ATOM      7  S   UNL d   1      31.077  16.551 -24.149  0.00  0.00    -0.077 SA
ATOM      8  C   UNL d   1      31.693  16.413 -23.621  0.00  0.00     0.086 A 
ATOM      9  C   UNL d   1      32.266  16.991 -23.482  0.00  0.00     0.273 A 
ATOM     10  C   UNL d   1      31.742  15.691 -23.222  0.00  0.00     0.012 C 
ATOM     11  O   UNL d   1      32.884  16.856 -22.954  0.00  0.00    -0.266 OA
ENDBRANCH   1   2
BRANCH   1  12
ATOM     12  C   UNL d   1      32.641  18.899 -23.199  0.00  0.00     0.297 C 
ATOM     13  N   UNL d   1      33.241  19.447 -23.002  0.00  0.00    -0.207 NA
ATOM     14  O   UNL d   1      31.899  18.947 -22.838  0.00  0.00    -0.264 OA
BRANCH  13  15
ATOM     15  C   UNL d   1      33.084  20.033 -22.445  0.00  0.00     0.085 A 
ATOM     16  C   UNL d   1      33.070  19.828 -21.646  0.00  0.00     0.021 A 
ATOM     17  C   UNL d   1      32.915  20.396 -21.074  0.00  0.00     0.026 A 
ATOM     18  C   UNL d   1      32.772  21.184 -21.310  0.00  0.00     0.094 A 
ATOM     19  C   UNL d   1      32.789  21.372 -22.113  0.00  0.00     0.026 A 
ATOM     20  C   UNL d   1      32.943  20.802 -22.671  0.00  0.00     0.021 A 
BRANCH  18  21
ATOM     21  O   UNL d   1      32.616  21.757 -20.740  0.00  0.00    -0.328 OA
ATOM     22  C   UNL d   1      31.836  21.955 -20.571  0.00  0.00     0.181 C 
ENDBRANCH  18  21
ENDBRANCH  13  15
ENDBRANCH   1  12
TORSDOF 4
ENDMDL
MODEL 2
REMARK VINA RESULT:      -2.2      1.651      4.573
REMARK  4 active torsions:
REMARK  status: ('A' for Active; 'I' for Inactive)
REMARK    1  A    between atoms: C_7  and  N_1 
REMARK    2  A    between atoms: C_8  and  C_7 
REMARK       I    between atoms: N_9  and  C_8 
REMARK    3  A    between atoms: C_13  and  N_9 
REMARK    4  A    between atoms: O_19  and  C_14 
ROOT
ATOM      1  C   UNL d   1      33.155  18.460 -23.835  0.00  0.00     0.148 C 
ENDROOT
BRANCH   1   2
ATOM      2  N   UNL d   1      33.183  19.221 -23.513  0.00  0.00    -0.235 N 
ATOM      3  C   UNL d   1      33.198  19.320 -22.688  0.00  0.00     0.273 A 
ATOM      4  C   UNL d   1      33.225  20.072 -22.369  0.00  0.00     0.086 A 
ATOM      5  O   UNL d   1      33.184  18.655 -22.192  0.00  0.00    -0.266 OA
ATOM      6  C   UNL d   1      33.240  20.170 -21.541  0.00  0.00     0.012 C 
ATOM      7  S   UNL d   1      33.239  20.736 -22.853  0.00  0.00    -0.077 SA
ATOM      8  C   UNL d   1      33.224  20.643 -23.670  0.00  0.00     0.086 A 
ATOM      9  C   UNL d   1      33.197  19.890 -24.007  0.00  0.00     0.273 A 
ATOM     10  C   UNL d   1      33.238  21.306 -24.162  0.00  0.00     0.012 C 
ATOM     11  O   UNL d   1      33.182  19.793 -24.826  0.00  0.00    -0.266 OA
ENDBRANCH   1   2
BRANCH   1  12
ATOM     12  C   UNL d   1      32.442  18.047 -23.848  0.00  0.00     0.297 C 
ATOM     13  N   UNL d   1      32.297  17.472 -24.438  0.00  0.00    -0.207 NA
ATOM     14  O   UNL d   1      31.870  18.204 -23.271  0.00  0.00    -0.264 OA
BRANCH  13  15
ATOM     15  C   UNL d   1      31.580  17.067 -24.437  0.00  0.00     0.085 A 
ATOM     16  C   UNL d   1      30.975  17.330 -24.934  0.00  0.00     0.021 A 
ATOM     17  C   UNL d   1      30.252  16.940 -24.949  0.00  0.00     0.026 A 
ATOM     18  C   UNL d   1      30.136  16.276 -24.457  0.00  0.00     0.094 A 
ATOM     19  C   UNL d   1      30.751  16.028 -23.967  0.00  0.00     0.026 A 
ATOM     20  C   UNL d   1      31.463  16.419 -23.959  0.00  0.00     0.021 A 
BRANCH  18  21
ATOM     21  O   UNL d   1      29.413  15.883 -24.469  0.00  0.00    -0.328 OA
ATOM     22  C   UNL d   1      28.895  15.972 -23.836  0.00  0.00     0.181 C 
ENDBRANCH  18  21
ENDBRANCH  13  15
ENDBRANCH   1  12
TORSDOF 4
ENDMDL
MODEL 3
REMARK VINA RESULT:      -1.5      0.477      1.557
REMARK  4 active torsions:
REMARK  status: ('A' for Active; 'I' for Inactive)
REMARK    1  A    between atoms: C_7  and  N_1 
REMARK    2  A    between atoms: C_8  and  C_7 
REMARK       I    between atoms: N_9  and  C_8 
REMARK    3  A    between atoms: C_13  and  N_9 
REMARK    4  A    between atoms: O_19  and  C_14 
ROOT
ATOM      1  C   UNL d   1      32.976  18.429 -24.082  0.00  0.00     0.148 C 
ENDROOT
BRANCH   1   2
ATOM      2  N   UNL d   1      32.385  17.854 -24.146  0.00  0.00    -0.235 N 
ATOM      3  C   UNL d   1      32.495  17.108 -23.798  0.00  0.00     0.273 A 
ATOM      4  C   UNL d   1      31.910  16.540 -23.861  0.00  0.00     0.086 A 
ATOM      5  O   UNL d   1      33.196  16.943 -23.387  0.00  0.00    -0.266 OA
ATOM      6  C   UNL d   1      32.021  15.791 -23.511  0.00  0.00     0.012 C 
ATOM      7  S   UNL d   1      31.212  16.694 -24.266  0.00  0.00    -0.077 SA
ATOM      8  C   UNL d   1      31.099  17.432 -24.613  0.00  0.00     0.086 A 
ATOM      9  C   UNL d   1      31.680  18.016 -24.557  0.00  0.00     0.273 A 
ATOM     10  C   UNL d   1      30.400  17.594 -25.021  0.00  0.00     0.012 C 
ATOM     11  O   UNL d   1      31.570  18.756 -24.904  0.00  0.00    -0.266 OA
ENDBRANCH   1   2
BRANCH   1  12
ATOM     12  C   UNL d   1      33.004  18.914 -23.416  0.00  0.00     0.297 C 
ATOM     13  N   UNL d   1      33.114  19.739 -23.499  0.00  0.00    -0.207 NA
ATOM     14  O   UNL d   1      32.922  18.580 -22.664  0.00  0.00    -0.264 OA
BRANCH  13  15
ATOM     15  C   UNL d   1      33.140  20.212 -22.825  0.00  0.00     0.085 A 
ATOM     16  C   UNL d   1      33.213  21.029 -22.916  0.00  0.00     0.021 A 
ATOM     17  C   UNL d   1      33.241  21.518 -22.257  0.00  0.00     0.026 A 
ATOM     18  C   UNL d   1      33.195  21.180 -21.495  0.00  0.00     0.094 A 
ATOM     19  C   UNL d   1      33.122  20.363 -21.423  0.00  0.00     0.026 A 
ATOM     20  C   UNL d   1      33.095  19.886 -22.081  0.00  0.00     0.021 A 
BRANCH  18  21
ATOM     21  O   UNL d   1      33.222  21.668 -20.832  0.00  0.00    -0.328 OA
ATOM     22  C   UNL d   1      32.520  21.946 -20.508  0.00  0.00     0.181 C 
ENDBRANCH  18  21
ENDBRANCH  13  15
ENDBRANCH   1  12
TORSDOF 4
ENDMDL
MODEL 4
REMARK VINA RESULT:      -0.6      2.359      4.826
REMARK  4 active torsions:
REMARK  status: ('A' for Active; 'I' for Inactive)
REMARK    1  A    between atoms: C_7  and  N_1 
REMARK    2  A    between atoms: C_8  and  C_7 
REMARK       I    between atoms: N_9  and  C_8 
REMARK    3  A    between atoms: C_13  and  N_9 
REMARK    4  A    between atoms: O_19  and  C_14 
ROOT
ATOM      1  C   UNL d   1      31.178  17.003 -24.791  0.00  0.00     0.148 C 
ENDROOT
BRANCH   1   2
ATOM      2  N   UNL d   1      31.791  17.200 -24.273  0.00  0.00    -0.235 N 
ATOM      3  C   UNL d   1      31.987  17.998 -24.150  0.00  0.00     0.273 A 
ATOM      4  C   UNL d   1      32.593  18.194 -23.637  0.00  0.00     0.086 A 
ATOM      5  O   UNL d   1      31.568  18.593 -24.549  0.00  0.00    -0.266 OA
ATOM      6  C   UNL d   1      32.790  18.995 -23.515  0.00  0.00     0.012 C 
ATOM      7  S   UNL d   1      33.014  17.612 -23.238  0.00  0.00    -0.077 SA
ATOM      8  C   UNL d   1      32.823  16.820 -23.356  0.00  0.00     0.086 A 
ATOM      9  C   UNL d   1      32.213  16.607 -23.872  0.00  0.00     0.273 A 
ATOM     10  C   UNL d   1      33.241  16.230 -22.959  0.00  0.00     0.012 C 
ATOM     11  O   UNL d   1      32.019  15.815 -23.992  0.00  0.00    -0.266 OA
ENDBRANCH   1   2
BRANCH   1  12
ATOM     12  C   UNL d   1      30.480  16.678 -24.496  0.00  0.00     0.297 C 
ATOM     13  N   UNL d   1      29.745  16.861 -24.851  0.00  0.00    -0.207 NA
ATOM     14  O   UNL d   1      30.511  16.169 -23.845  0.00  0.00    -0.264 OA
BRANCH  13  15
ATOM     15  C   UNL d   1      29.056  16.529 -24.545  0.00  0.00     0.085 A 
ATOM     16  C   UNL d   1      28.798  15.804 -24.844  0.00  0.00     0.021 A 
ATOM     17  C   UNL d   1      28.114  15.456 -24.553  0.00  0.00     0.026 A 
ATOM     18  C   UNL d   1      27.683  15.842 -23.951  0.00  0.00     0.094 A 
ATOM     19  C   UNL d   1      27.956  16.565 -23.664  0.00  0.00     0.026 A 
ATOM     20  C   UNL d   1      28.634  16.902 -23.958  0.00  0.00     0.021 A 
BRANCH  18  21
ATOM     21  O   UNL d   1      26.997  15.496 -23.657  0.00  0.00    -0.328 OA
ATOM     22  C   UNL d   1      26.884  15.455 -22.844  0.00  0.00     0.181 C 
ENDBRANCH  18  21
ENDBRANCH  13  15
ENDBRANCH   1  12
TORSDOF 4
ENDMDL
MODEL 5
REMARK VINA RESULT:      -0.5      2.503      5.026
REMARK  4 active torsions:
REMARK  status: ('A' for Active; 'I' for Inactive)
REMARK    1  A    between atoms: C_7  and  N_1 
REMARK    2  A    between atoms: C_8  and  C_7 
REMARK       I    between atoms: N_9  and  C_8 
REMARK    3  A    between atoms: C_13  and  N_9 
REMARK    4  A    between atoms: O_19  and  C_14 
ROOT
ATOM      1  C   UNL d   1      31.027  16.744 -24.861  0.00  0.00     0.148 C 
ENDROOT
BRANCH   1   2
ATOM      2  N   UNL d   1      31.652  16.960 -24.366  0.00  0.00    -0.235 N 
ATOM      3  C   UNL d   1      32.130  16.373 -24.024  0.00  0.00     0.273 A 
ATOM      4  C   UNL d   1      32.749  16.586 -23.534  0.00  0.00     0.086 A 
ATOM      5  O   UNL d   1      31.978  15.573 -24.181  0.00  0.00    -0.266 OA
ATOM      6  C   UNL d   1      33.228  15.996 -23.192  0.00  0.00     0.012 C 
ATOM      7  S   UNL d   1      32.908  17.376 -23.373  0.00  0.00    -0.077 SA
ATOM      8  C   UNL d   1      32.437  17.961 -23.709  0.00  0.00     0.086 A 
ATOM      9  C   UNL d   1      31.808  17.761 -24.206  0.00  0.00     0.273 A 
ATOM     10  C   UNL d   1      32.591  18.757 -23.552  0.00  0.00     0.012 C 
ATOM     11  O   UNL d   1      31.335  18.345 -24.545  0.00  0.00    -0.266 OA
ENDBRANCH   1   2
BRANCH   1  12
ATOM     12  C   UNL d   1      30.346  16.409 -24.538  0.00  0.00     0.297 C 
ATOM     13  N   UNL d   1      29.612  16.806 -24.594  0.00  0.00    -0.207 NA
ATOM     14  O   UNL d   1      30.393  15.676 -24.158  0.00  0.00    -0.264 OA
BRANCH  13  15
ATOM     15  C   UNL d   1      28.940  16.459 -24.267  0.00  0.00     0.085 A 
ATOM     16  C   UNL d   1      28.599  16.806 -23.600  0.00  0.00     0.021 A 
ATOM     17  C   UNL d   1      27.930  16.476 -23.258  0.00  0.00     0.026 A 
ATOM     18  C   UNL d   1      27.598  15.786 -23.592  0.00  0.00     0.094 A 
ATOM     19  C   UNL d   1      27.952  15.454 -24.258  0.00  0.00     0.026 A 
ATOM     20  C   UNL d   1      28.614  15.787 -24.589  0.00  0.00     0.021 A 
BRANCH  18  21
ATOM     21  O   UNL d   1      26.926  15.453 -23.252  0.00  0.00    -0.328 OA
ATOM     22  C   UNL d   1      26.184  15.714 -23.488  0.00  0.00     0.181 C 
ENDBRANCH  18  21
ENDBRANCH  13  15
ENDBRANCH   1  12
TORSDOF 4
ENDMDL
MODEL 6
REMARK VINA RESULT:       0.1      2.233      3.679
REMARK  4 active torsions:
REMARK  status: ('A' for Active; 'I' for Inactive)
REMARK    1  A    between atoms: C_7  and  N_1 
REMARK    2  A    between atoms: C_8  and  C_7 
REMARK       I    between atoms: N_9  and  C_8 
REMARK    3  A    between atoms: C_13  and  N_9 
REMARK    4  A    between atoms: O_19  and  C_14 
ROOT
ATOM      1  C   UNL d   1      30.673  15.453 -23.738  0.00  0.00     0.148 C 
ENDROOT
BRANCH   1   2
ATOM      2  N   UNL d   1      29.852  15.524 -23.670  0.00  0.00    -0.235 N 
ATOM      3  C   UNL d   1      29.501  15.544 -22.917  0.00  0.00     0.273 A 
ATOM      4  C   UNL d   1      28.689  15.614 -22.849  0.00  0.00     0.086 A 
ATOM      5  O   UNL d   1      29.975  15.493 -22.238  0.00  0.00    -0.266 OA
ATOM      6  C   UNL d   1      28.337  15.634 -22.093  0.00  0.00     0.012 C 
ATOM      7  S   UNL d   1      28.212  15.665 -23.516  0.00  0.00    -0.077 SA
ATOM      8  C   UNL d   1      28.555  15.646 -24.263  0.00  0.00     0.086 A 
ATOM      9  C   UNL d   1      29.374  15.576 -24.348  0.00  0.00     0.273 A 
ATOM     10  C   UNL d   1      28.082  15.697 -24.938  0.00  0.00     0.012 C 
ATOM     11  O   UNL d   1      29.722  15.556 -25.095  0.00  0.00    -0.266 OA
ENDBRANCH   1   2
BRANCH   1  12
ATOM     12  C   UNL d   1      31.147  16.128 -23.703  0.00  0.00     0.297 C 
ATOM     13  N   UNL d   1      31.302  16.571 -24.395  0.00  0.00    -0.207 NA
ATOM     14  O   UNL d   1      31.467  16.363 -22.978  0.00  0.00    -0.264 OA
BRANCH  13  15
ATOM     15  C   UNL d   1      31.777  17.243 -24.345  0.00  0.00     0.085 A 
ATOM     16  C   UNL d   1      32.593  17.159 -24.432  0.00  0.00     0.021 A 
ATOM     17  C   UNL d   1      33.084  17.815 -24.385  0.00  0.00     0.026 A 
ATOM     18  C   UNL d   1      32.749  18.567 -24.249  0.00  0.00     0.094 A 
ATOM     19  C   UNL d   1      31.932  18.632 -24.164  0.00  0.00     0.026 A 
ATOM     20  C   UNL d   1      31.453  17.978 -24.212  0.00  0.00     0.021 A 
BRANCH  18  21
ATOM     21  O   UNL d   1      33.238  19.228 -24.202  0.00  0.00    -0.328 OA
ATOM     22  C   UNL d   1      32.925  19.943 -23.944  0.00  0.00     0.181 C 
ENDBRANCH  18  21
ENDBRANCH  13  15
ENDBRANCH   1  12
TORSDOF 4
ENDMDL
