MODEL 1
REMARK VINA RESULT:      -0.2      0.000      0.000
REMARK  4 active torsions:
REMARK  status: ('A' for Active; 'I' for Inactive)
REMARK    1  A    between atoms: C_7  and  C_1 
REMARK    2  A    between atoms: C_12  and  C_6 
REMARK       I    between atoms: N_11  and  C_7 
REMARK    3  A    between atoms: C_20  and  N_11 
REMARK       I    between atoms: C_13  and  N_14 
REMARK    4  A    between atoms: N_14  and  C_21 
ROOT
ATOM      1  C   UNL d   1      32.727  19.145 -23.641  0.00  0.00     0.108 A 
ATOM      2  C   UNL d   1      32.235  18.029 -23.544  0.00  0.00     0.044 A 
ATOM      3  C   UNL d   1      32.147  18.733 -23.782  0.00  0.00     0.116 A 
ATOM      4  C   UNL d   1      32.926  17.981 -23.224  0.00  0.00     0.112 A 
ATOM      5  S   UNL d   1      33.241  18.677 -23.281  0.00  0.00    -0.061 SA
ATOM      6  C   UNL d   1      31.775  17.402 -23.571  0.00  0.00     0.005 A 
ATOM      7  N   UNL d   1      33.181  17.304 -22.920  0.00  0.00    -0.239 NA
ATOM      8  C   UNL d   1      32.018  16.728 -23.273  0.00  0.00     0.018 A 
ATOM      9  C   UNL d   1      32.709  16.679 -22.953  0.00  0.00     0.082 A 
ATOM     10  N   UNL d   1      31.411  19.104 -24.213  0.00  0.00    -0.147 N 
ATOM     11  C   UNL d   1      31.637  15.976 -23.230  0.00  0.00     0.002 A 
ATOM     12  C   UNL d   1      32.860  15.943 -22.678  0.00  0.00     0.019 A 
ATOM     13  C   UNL d   1      32.154  15.481 -22.860  0.00  0.00     0.002 A 
ENDROOT
BRANCH   1  14
ATOM     14  C   UNL d   1      32.889  20.118 -23.844  0.00  0.00     0.287 C 
ATOM     15  N   UNL d   1      33.052  21.016 -23.462  0.00  0.00    -0.208 NA
ATOM     16  O   UNL d   1      32.886  20.216 -24.760  0.00  0.00    -0.265 OA
BRANCH  15  17
ATOM     17  C   UNL d   1      33.088  21.120 -22.630  0.00  0.00     0.085 A 
ATOM     18  C   UNL d   1      33.175  21.889 -22.333  0.00  0.00     0.021 A 
ATOM     19  C   UNL d   1      33.213  22.013 -21.502  0.00  0.00     0.021 A 
ATOM     20  C   UNL d   1      33.164  21.370 -20.975  0.00  0.00     0.085 A 
ATOM     21  C   UNL d   1      33.077  20.608 -21.280  0.00  0.00     0.021 A 
ATOM     22  C   UNL d   1      33.039  20.483 -22.104  0.00  0.00     0.021 A 
BRANCH  20  23
ATOM     23  N   UNL d   1      33.212  21.544 -19.983  0.00  0.00    -0.208 NA
ATOM     24  C   UNL d   1      32.772  22.613 -19.658  0.00  0.00     0.279 C 
ATOM     25  O   UNL d   1      32.817  22.826 -18.551  0.00  0.00    -0.265 OA
ATOM     26  C   UNL d   1      32.218  23.635 -20.382  0.00  0.00     0.068 C 
ENDBRANCH  20  23
ENDBRANCH  15  17
ENDBRANCH   1  14
BRANCH   6  27
ATOM     27  C   UNL d   1      31.036  17.454 -23.913  0.00  0.00     0.000 A 
ATOM     28  C   UNL d   1      30.963  17.375 -24.726  0.00  0.00     0.000 A 
ATOM     29  C   UNL d   1      30.224  17.427 -25.068  0.00  0.00     0.000 A 
ATOM     30  C   UNL d   1      29.547  17.556 -24.625  0.00  0.00     0.000 A 
ATOM     31  C   UNL d   1      29.616  17.635 -23.821  0.00  0.00     0.000 A 
ATOM     32  C   UNL d   1      28.440  17.639 -25.093  0.00  0.00     0.000 C 
ATOM     33  C   UNL d   1      30.357  17.586 -23.449  0.00  0.00     0.000 A 
ENDBRANCH   6  27
TORSDOF 4
ENDMDL
