MODEL 1
REMARK VINA RESULT:      30.0      0.000      0.000
REMARK  7 active torsions:
REMARK  status: ('A' for Active; 'I' for Inactive)
REMARK    1  A    between atoms: C_5  and  N_1 
REMARK    2  A    between atoms: C_2  and  N_6 
REMARK    3  A    between atoms: N_16  and  C_2 
REMARK    4  A    between atoms: C_3  and  C_9 
REMARK       I    between atoms: N_4  and  C_3 
REMARK    5  A    between atoms: N_6  and  N_4 
REMARK    6  A    between atoms: C_19  and  N_16 
REMARK    7  A    between atoms: C_17  and  C_19 
ROOT
ATOM      1  C   UNL d   1     -52.030  25.734  33.423  0.00  0.00     0.297 C 
ATOM      2  N   UNL d   1     -51.985  24.911  33.477  0.00  0.00    -0.103 NA
ATOM      3  O   UNL d   1     -52.761  26.103  33.307  0.00  0.00    -0.264 OA
ENDROOT
BRANCH   1   4
ATOM      4  C   UNL d   1     -51.321  26.188  33.487  0.00  0.00     0.059 A 
ATOM      5  C   UNL d   1     -50.585  25.842  33.357  0.00  0.00     0.006 A 
ATOM      6  C   UNL d   1     -49.902  26.296  33.423  0.00  0.00     0.024 A 
ATOM      7  C   UNL d   1     -49.950  27.095  33.617  0.00  0.00     0.127 A 
ATOM      8  C   UNL d   1     -50.687  27.441  33.746  0.00  0.00     0.024 A 
ATOM      9  C   UNL d   1     -51.377  26.989  33.682  0.00  0.00     0.006 A 
BRANCH   7  10
ATOM     10  N   UNL d   1     -49.253  27.534  33.678  0.00  0.00    -0.114 N 
ATOM     11  O   UNL d   1     -48.523  27.145  33.606  0.00  0.00    -0.532 OA
ATOM     12  O   UNL d   1     -49.270  28.346  33.809  0.00  0.00    -0.532 OA
ENDBRANCH   7  10
ENDBRANCH   1   4
BRANCH   2  13
ATOM     13  N   UNL d   1     -52.673  24.459  33.415  0.00  0.00    -0.114 NA
BRANCH  13  14
ATOM     14  C   UNL d   1     -52.621  23.638  33.425  0.00  0.00     0.241 C 
ATOM     15  S   UNL d   1     -51.878  23.258  33.313  0.00  0.00    -0.035 SA
BRANCH  14  16
ATOM     16  N   UNL d   1     -53.303  23.188  33.546  0.00  0.00    -0.215 NA
BRANCH  16  17
ATOM     17  C   UNL d   1     -54.005  23.563  33.735  0.00  0.00     0.102 C 
BRANCH  17  18
ATOM     18  C   UNL d   1     -54.316  23.483  34.496  0.00  0.00     0.021 C 
ATOM     19  C   UNL d   1     -53.810  23.354  35.135  0.00  0.00     0.002 C 
ENDBRANCH  17  18
ENDBRANCH  16  17
ENDBRANCH  14  16
ENDBRANCH  13  14
ENDBRANCH   2  13
TORSDOF 7
ENDMDL
