MODEL 1
REMARK VINA RESULT:      -7.8      0.000      0.000
REMARK  5 active torsions:
REMARK  status: ('A' for Active; 'I' for Inactive)
REMARK    1  A    between atoms: C_5  and  N_1 
REMARK    2  A    between atoms: C_8  and  C_3 
REMARK    3  A    between atoms: C_7  and  C_4 
REMARK    4  A    between atoms: N_12  and  C_5 
REMARK    5  A    between atoms: N_11  and  C_10 
ROOT
ATOM      1  N   UNL d   1      52.450  33.647  53.243  0.00  0.00    -0.203 N 
ATOM      2  N   UNL d   1      52.938  33.018  53.410  0.00  0.00    -0.163 NA
ATOM      3  C   UNL d   1      52.553  32.331  53.253  0.00  0.00     0.103 A 
ATOM      4  C   UNL d   1      51.721  33.351  52.967  0.00  0.00     0.087 A 
ATOM      5  C   UNL d   1      51.791  32.521  52.975  0.00  0.00     0.040 A 
ENDROOT
BRANCH   4   6
ATOM      6  C   UNL d   1      51.051  33.770  52.728  0.00  0.00     0.018 A 
ATOM      7  C   UNL d   1      50.981  34.026  51.974  0.00  0.00     0.003 A 
ATOM      8  C   UNL d   1      50.309  34.448  51.731  0.00  0.00     0.018 A 
ATOM      9  C   UNL d   1      49.713  34.600  52.282  0.00  0.00     0.064 A 
ATOM     10  C   UNL d   1      49.778  34.343  53.053  0.00  0.00     0.018 A 
ATOM     11  C   UNL d   1      50.456  33.923  53.277  0.00  0.00     0.003 A 
BRANCH   9  12
ATOM     12  N   UNL d   1      49.056  35.011  52.053  0.00  0.00    -0.301 N 
ATOM     13  C   UNL d   1      48.743  34.877  51.325  0.00  0.00     0.100 C 
ATOM     14  C   UNL d   1      48.722  35.551  52.561  0.00  0.00     0.100 C 
ENDBRANCH   9  12
ENDBRANCH   4   6
BRANCH   1  15
ATOM     15  C   UNL d   1      52.648  34.456  53.334  0.00  0.00     0.222 C 
ATOM     16  S   UNL d   1      52.962  34.872  52.681  0.00  0.00    -0.037 SA
BRANCH  15  17
ATOM     17  N   UNL d   1      52.532  34.839  54.072  0.00  0.00    -0.214 NA
ATOM     18  C   UNL d   1      53.025  35.473  54.307  0.00  0.00     0.122 C 
ENDBRANCH  15  17
ENDBRANCH   1  15
BRANCH   3  19
ATOM     19  C   UNL d   1      52.880  31.590  53.357  0.00  0.00     0.019 A 
ATOM     20  C   UNL d   1      52.579  30.957  52.916  0.00  0.00     0.002 A 
ATOM     21  C   UNL d   1      52.894  30.213  53.010  0.00  0.00     0.000 A 
ATOM     22  C   UNL d   1      53.512  30.090  53.543  0.00  0.00     0.000 A 
ATOM     23  C   UNL d   1      53.815  30.731  53.990  0.00  0.00     0.000 A 
ATOM     24  C   UNL d   1      53.829  29.334  53.636  0.00  0.00     0.000 C 
ATOM     25  C   UNL d   1      53.483  31.476  53.881  0.00  0.00     0.002 A 
ENDBRANCH   3  19
TORSDOF 5
ENDMDL
MODEL 2
REMARK VINA RESULT:      -6.7      0.858      4.570
REMARK  5 active torsions:
REMARK  status: ('A' for Active; 'I' for Inactive)
REMARK    1  A    between atoms: C_5  and  N_1 
REMARK    2  A    between atoms: C_8  and  C_3 
REMARK    3  A    between atoms: C_7  and  C_4 
REMARK    4  A    between atoms: N_12  and  C_5 
REMARK    5  A    between atoms: N_11  and  C_10 
ROOT
ATOM      1  N   UNL d   1      51.605  34.383  53.226  0.00  0.00    -0.203 N 
ATOM      2  N   UNL d   1      50.975  34.872  53.062  0.00  0.00    -0.163 NA
ATOM      3  C   UNL d   1      50.379  34.441  52.742  0.00  0.00     0.103 A 
ATOM      4  C   UNL d   1      51.402  33.606  53.001  0.00  0.00     0.087 A 
ATOM      5  C   UNL d   1      50.629  33.647  52.696  0.00  0.00     0.040 A 
ENDROOT
BRANCH   4   6
ATOM      6  C   UNL d   1      51.856  32.919  53.058  0.00  0.00     0.018 A 
ATOM      7  C   UNL d   1      52.490  32.811  52.582  0.00  0.00     0.003 A 
ATOM      8  C   UNL d   1      52.947  32.121  52.638  0.00  0.00     0.018 A 
ATOM      9  C   UNL d   1      52.738  31.547  53.192  0.00  0.00     0.064 A 
ATOM     10  C   UNL d   1      52.094  31.650  53.680  0.00  0.00     0.018 A 
ATOM     11  C   UNL d   1      51.648  32.344  53.612  0.00  0.00     0.003 A 
BRANCH   9  12
ATOM     12  N   UNL d   1      53.179  30.873  53.251  0.00  0.00    -0.301 N 
ATOM     13  C   UNL d   1      53.873  30.891  53.656  0.00  0.00     0.100 C 
ATOM     14  C   UNL d   1      52.915  30.187  52.902  0.00  0.00     0.100 C 
ENDBRANCH   9  12
ENDBRANCH   4   6
BRANCH   1  15
ATOM     15  C   UNL d   1      52.333  34.623  53.565  0.00  0.00     0.222 C 
ATOM     16  S   UNL d   1      52.961  34.844  53.060  0.00  0.00    -0.037 SA
BRANCH  15  17
ATOM     17  N   UNL d   1      52.426  34.638  54.398  0.00  0.00    -0.214 NA
ATOM     18  C   UNL d   1      52.980  35.153  54.757  0.00  0.00     0.122 C 
ENDBRANCH  15  17
ENDBRANCH   1  15
BRANCH   3  19
ATOM     19  C   UNL d   1      49.661  34.756  52.509  0.00  0.00     0.019 A 
ATOM     20  C   UNL d   1      49.400  34.622  51.735  0.00  0.00     0.002 A 
ATOM     21  C   UNL d   1      48.688  34.929  51.490  0.00  0.00     0.000 A 
ATOM     22  C   UNL d   1      48.227  35.372  52.012  0.00  0.00     0.000 A 
ATOM     23  C   UNL d   1      48.493  35.508  52.796  0.00  0.00     0.000 A 
ATOM     24  C   UNL d   1      47.505  35.682  51.761  0.00  0.00     0.000 C 
ATOM     25  C   UNL d   1      49.216  35.189  53.024  0.00  0.00     0.002 A 
ENDBRANCH   3  19
TORSDOF 5
ENDMDL
MODEL 3
REMARK VINA RESULT:      -6.7      1.367      4.730
REMARK  5 active torsions:
REMARK  status: ('A' for Active; 'I' for Inactive)
REMARK    1  A    between atoms: C_5  and  N_1 
REMARK    2  A    between atoms: C_8  and  C_3 
REMARK    3  A    between atoms: C_7  and  C_4 
REMARK    4  A    between atoms: N_12  and  C_5 
REMARK    5  A    between atoms: N_11  and  C_10 
ROOT
ATOM      1  N   UNL d   1      53.214  32.744  53.600  0.00  0.00    -0.203 N 
ATOM      2  N   UNL d   1      52.751  33.360  53.340  0.00  0.00    -0.163 NA
ATOM      3  C   UNL d   1      52.036  33.080  53.109  0.00  0.00     0.103 A 
ATOM      4  C   UNL d   1      52.776  32.038  53.532  0.00  0.00     0.087 A 
ATOM      5  C   UNL d   1      52.034  32.254  53.223  0.00  0.00     0.040 A 
ENDROOT
BRANCH   4   6
ATOM      6  C   UNL d   1      53.006  31.269  53.726  0.00  0.00     0.018 A 
ATOM      7  C   UNL d   1      53.274  30.771  53.159  0.00  0.00     0.003 A 
ATOM      8  C   UNL d   1      53.505  29.998  53.351  0.00  0.00     0.018 A 
ATOM      9  C   UNL d   1      53.455  29.749  54.136  0.00  0.00     0.064 A 
ATOM     10  C   UNL d   1      53.183  30.251  54.719  0.00  0.00     0.018 A 
ATOM     11  C   UNL d   1      52.956  31.019  54.510  0.00  0.00     0.003 A 
BRANCH   9  12
ATOM     12  N   UNL d   1      53.679  28.998  54.331  0.00  0.00    -0.301 N 
ATOM     13  C   UNL d   1      54.273  28.646  53.920  0.00  0.00     0.100 C 
ATOM     14  C   UNL d   1      53.301  28.609  54.937  0.00  0.00     0.100 C 
ENDBRANCH   9  12
ENDBRANCH   4   6
BRANCH   1  15
ATOM     15  C   UNL d   1      53.999  32.810  53.887  0.00  0.00     0.222 C 
ATOM     16  S   UNL d   1      54.635  32.704  53.355  0.00  0.00    -0.037 SA
BRANCH  15  17
ATOM     17  N   UNL d   1      54.139  32.980  54.696  0.00  0.00    -0.214 NA
ATOM     18  C   UNL d   1      54.807  33.427  54.929  0.00  0.00     0.122 C 
ENDBRANCH  15  17
ENDBRANCH   1  15
BRANCH   3  19
ATOM     19  C   UNL d   1      51.433  33.547  52.816  0.00  0.00     0.019 A 
ATOM     20  C   UNL d   1      50.764  33.673  53.287  0.00  0.00     0.002 A 
ATOM     21  C   UNL d   1      50.156  34.137  53.009  0.00  0.00     0.000 A 
ATOM     22  C   UNL d   1      50.207  34.480  52.260  0.00  0.00     0.000 A 
ATOM     23  C   UNL d   1      50.886  34.353  51.785  0.00  0.00     0.000 A 
ATOM     24  C   UNL d   1      49.589  34.950  51.981  0.00  0.00     0.000 C 
ATOM     25  C   UNL d   1      51.490  33.881  52.084  0.00  0.00     0.002 A 
ENDBRANCH   3  19
TORSDOF 5
ENDMDL
MODEL 4
REMARK VINA RESULT:      -6.4      1.719      4.759
REMARK  5 active torsions:
REMARK  status: ('A' for Active; 'I' for Inactive)
REMARK    1  A    between atoms: C_5  and  N_1 
REMARK    2  A    between atoms: C_8  and  C_3 
REMARK    3  A    between atoms: C_7  and  C_4 
REMARK    4  A    between atoms: N_12  and  C_5 
REMARK    5  A    between atoms: N_11  and  C_10 
ROOT
ATOM      1  N   UNL d   1      52.068  32.657  53.073  0.00  0.00    -0.203 N 
ATOM      2  N   UNL d   1      51.365  32.844  52.707  0.00  0.00    -0.163 NA
ATOM      3  C   UNL d   1      51.233  33.633  52.767  0.00  0.00     0.103 A 
ATOM      4  C   UNL d   1      52.399  33.358  53.382  0.00  0.00     0.087 A 
ATOM      5  C   UNL d   1      51.870  33.970  53.187  0.00  0.00     0.040 A 
ENDROOT
BRANCH   4   6
ATOM      6  C   UNL d   1      53.105  33.453  53.799  0.00  0.00     0.018 A 
ATOM      7  C   UNL d   1      53.799  33.533  53.409  0.00  0.00     0.003 A 
ATOM      8  C   UNL d   1      54.509  33.629  53.826  0.00  0.00     0.018 A 
ATOM      9  C   UNL d   1      54.490  33.641  54.651  0.00  0.00     0.064 A 
ATOM     10  C   UNL d   1      53.786  33.560  55.055  0.00  0.00     0.018 A 
ATOM     11  C   UNL d   1      53.086  33.465  54.623  0.00  0.00     0.003 A 
BRANCH   9  12
ATOM     12  N   UNL d   1      55.177  33.734  55.064  0.00  0.00    -0.301 N 
ATOM     13  C   UNL d   1      55.161  33.700  55.867  0.00  0.00     0.100 C 
ATOM     14  C   UNL d   1      55.874  33.860  54.663  0.00  0.00     0.100 C 
ENDBRANCH   9  12
ENDBRANCH   4   6
BRANCH   1  15
ATOM     15  C   UNL d   1      52.400  31.890  53.130  0.00  0.00     0.222 C 
ATOM     16  S   UNL d   1      52.263  31.440  53.821  0.00  0.00    -0.037 SA
BRANCH  15  17
ATOM     17  N   UNL d   1      52.861  31.582  52.501  0.00  0.00    -0.214 NA
ATOM     18  C   UNL d   1      52.991  30.759  52.429  0.00  0.00     0.122 C 
ENDBRANCH  15  17
ENDBRANCH   1  15
BRANCH   3  19
ATOM     19  C   UNL d   1      50.577  34.012  52.460  0.00  0.00     0.019 A 
ATOM     20  C   UNL d   1      50.064  34.402  52.979  0.00  0.00     0.002 A 
ATOM     21  C   UNL d   1      49.408  34.784  52.687  0.00  0.00     0.000 A 
ATOM     22  C   UNL d   1      49.254  34.781  51.876  0.00  0.00     0.000 A 
ATOM     23  C   UNL d   1      49.774  34.385  51.351  0.00  0.00     0.000 A 
ATOM     24  C   UNL d   1      48.587  35.168  51.583  0.00  0.00     0.000 C 
ATOM     25  C   UNL d   1      50.433  34.005  51.666  0.00  0.00     0.002 A 
ENDBRANCH   3  19
TORSDOF 5
ENDMDL
