MODEL 1
REMARK VINA RESULT:      47.2      0.000      0.000
REMARK  5 active torsions:
REMARK  status: ('A' for Active; 'I' for Inactive)
REMARK    1  A    between atoms: C_9  and  C_5 
REMARK    2  A    between atoms: N_14  and  C_6 
REMARK    3  A    between atoms: N_11  and  C_9 
REMARK    4  A    between atoms: C_15  and  N_11 
REMARK    5  A    between atoms: C_16  and  C_15 
ROOT
ATOM      1  N   UNL d   1      57.885  49.704  49.920  0.00  0.00    -0.258 N 
ATOM      2  N   UNL d   1      58.176  49.700  51.268  0.00  0.00    -0.209 NA
ATOM      3  C   UNL d   1      57.632  49.703  50.672  0.00  0.00     0.152 A 
ATOM      4  C   UNL d   1      58.679  49.703  49.717  0.00  0.00     0.270 A 
ATOM      5  C   UNL d   1      59.247  49.701  50.341  0.00  0.00     0.111 A 
ATOM      6  C   UNL d   1      58.961  49.699  51.099  0.00  0.00     0.170 A 
ATOM      7  C   UNL d   1      56.814  49.703  50.847  0.00  0.00     0.035 A 
ATOM      8  C   UNL d   1      57.304  49.706  49.283  0.00  0.00     0.084 A 
ATOM      9  O   UNL d   1      58.953  49.705  48.946  0.00  0.00    -0.266 OA
ATOM     10  C   UNL d   1      56.533  49.707  49.466  0.00  0.00     0.019 A 
ATOM     11  C   UNL d   1      56.254  49.706  50.233  0.00  0.00     0.005 A 
ATOM     12  C   UNL d   1      56.548  49.702  51.628  0.00  0.00     0.003 C 
ENDROOT
BRANCH   5  13
ATOM     13  C   UNL d   1      60.073  49.700  50.174  0.00  0.00     0.107 C 
BRANCH  13  14
ATOM     14  N   UNL d   1      60.613  49.332  50.689  0.00  0.00    -0.242 NA
BRANCH  14  15
ATOM     15  C   UNL d   1      61.248  48.907  50.371  0.00  0.00     0.099 C 
BRANCH  15  16
ATOM     16  C   UNL d   1      61.281  48.099  50.453  0.00  0.00     0.019 A 
ATOM     17  C   UNL d   1      60.966  47.732  51.116  0.00  0.00     0.002 A 
ATOM     18  C   UNL d   1      60.992  46.924  51.210  0.00  0.00     0.000 A 
ATOM     19  C   UNL d   1      61.349  46.463  50.619  0.00  0.00     0.000 A 
ATOM     20  C   UNL d   1      61.671  46.837  49.942  0.00  0.00     0.000 A 
ATOM     21  C   UNL d   1      61.637  47.637  49.862  0.00  0.00     0.002 A 
ENDBRANCH  15  16
ENDBRANCH  14  15
ENDBRANCH  13  14
ENDBRANCH   5  13
BRANCH   6  22
ATOM     22  N   UNL d   1      59.529  49.697  51.722  0.00  0.00    -0.223 NA
ATOM     23  C   UNL d   1      59.300  49.443  52.477  0.00  0.00     0.121 C 
ENDBRANCH   6  22
TORSDOF 5
ENDMDL
