MODEL 1
REMARK VINA RESULT:      -9.4      0.000      0.000
REMARK  7 active torsions:
REMARK  status: ('A' for Active; 'I' for Inactive)
REMARK    1  A    between atoms: N_3  and  S_1 
REMARK    2  A    between atoms: C_8  and  S_1 
REMARK    3  A    between atoms: S_2  and  C_7 
REMARK    4  A    between atoms: N_9  and  S_2 
REMARK    5  A    between atoms: C_4  and  N_3 
REMARK       I    between atoms: C_5  and  N_10 
REMARK    6  A    between atoms: C_16  and  C_5 
REMARK    7  A    between atoms: N_10  and  C_24 
ROOT
ATOM      1  C   UNL d   1      51.882  33.640  52.996  0.00  0.00     0.106 A 
ATOM      2  C   UNL d   1      51.227  33.184  53.166  0.00  0.00     0.015 A 
ATOM      3  C   UNL d   1      51.801  34.424  52.750  0.00  0.00     0.015 A 
ATOM      4  C   UNL d   1      50.385  34.292  52.847  0.00  0.00     0.085 A 
ATOM      5  C   UNL d   1      51.047  34.749  52.676  0.00  0.00     0.020 A 
ATOM      6  C   UNL d   1      50.475  33.509  53.093  0.00  0.00     0.020 A 
ENDROOT
BRANCH   4   7
ATOM      7  N   UNL d   1      49.623  34.624  52.772  0.00  0.00    -0.208 NA
ATOM      8  C   UNL d   1      49.277  34.705  52.027  0.00  0.00     0.279 C 
ATOM      9  O   UNL d   1      49.692  34.454  51.359  0.00  0.00    -0.265 OA
BRANCH   8  10
ATOM     10  C   UNL d   1      48.526  35.034  51.956  0.00  0.00     0.058 A 
ATOM     11  C   UNL d   1      48.225  35.522  52.549  0.00  0.00     0.005 A 
ATOM     12  C   UNL d   1      47.477  35.850  52.481  0.00  0.00     0.013 A 
ATOM     13  C   UNL d   1      47.010  35.695  51.810  0.00  0.00     0.104 A 
ATOM     14  C   UNL d   1      47.318  35.199  51.209  0.00  0.00     0.013 A 
ATOM     15  C   UNL d   1      48.063  34.872  51.277  0.00  0.00     0.005 A 
BRANCH  13  16
ATOM     16  S   UNL d   1      46.252  36.028  51.742  0.00  0.00     0.271 S 
ATOM     17  O   UNL d   1      45.984  35.346  51.354  0.00  0.00    -0.200 OA
ATOM     18  O   UNL d   1      46.525  36.708  52.131  0.00  0.00    -0.200 OA
BRANCH  16  19
ATOM     19  N   UNL d   1      45.499  36.359  51.674  0.00  0.00    -0.226 N 
ATOM     20  C   UNL d   1      45.130  36.697  52.342  0.00  0.00     0.111 C 
ATOM     21  C   UNL d   1      45.109  36.359  50.952  0.00  0.00     0.111 C 
ENDBRANCH  16  19
ENDBRANCH  13  16
ENDBRANCH   8  10
ENDBRANCH   4   7
BRANCH   1  22
ATOM     22  S   UNL d   1      52.635  33.315  53.069  0.00  0.00     0.300 S 
ATOM     23  O   UNL d   1      52.968  34.072  53.093  0.00  0.00    -0.198 OA
ATOM     24  O   UNL d   1      52.319  32.556  53.047  0.00  0.00    -0.198 OA
BRANCH  22  25
ATOM     25  N   UNL d   1      53.396  32.991  53.144  0.00  0.00     0.034 NA
BRANCH  25  26
ATOM     26  C   UNL d   1      53.741  32.914  53.887  0.00  0.00     0.760 A 
ATOM     27  N   UNL d   1      54.300  33.478  54.150  0.00  0.00    -0.059 NA
ATOM     28  C   UNL d   1      54.645  33.401  54.895  0.00  0.00     0.102 A 
ATOM     29  C   UNL d   1      55.197  33.957  55.154  0.00  0.00     0.021 C 
ATOM     30  C   UNL d   1      54.438  32.768  55.378  0.00  0.00     0.041 A 
ATOM     31  C   UNL d   1      53.879  32.204  55.114  0.00  0.00     0.120 A 
ATOM     32  N   UNL d   1      53.540  32.286  54.374  0.00  0.00    -0.057 NA
ENDBRANCH  25  26
ENDBRANCH  22  25
ENDBRANCH   1  22
TORSDOF 7
ENDMDL
MODEL 2
REMARK VINA RESULT:      -9.1      0.918      7.091
REMARK  7 active torsions:
REMARK  status: ('A' for Active; 'I' for Inactive)
REMARK    1  A    between atoms: N_3  and  S_1 
REMARK    2  A    between atoms: C_8  and  S_1 
REMARK    3  A    between atoms: S_2  and  C_7 
REMARK    4  A    between atoms: N_9  and  S_2 
REMARK    5  A    between atoms: C_4  and  N_3 
REMARK       I    between atoms: C_5  and  N_10 
REMARK    6  A    between atoms: C_16  and  C_5 
REMARK    7  A    between atoms: N_10  and  C_24 
ROOT
ATOM      1  C   UNL d   1      47.898  35.392  51.868  0.00  0.00     0.106 A 
ATOM      2  C   UNL d   1      48.151  35.716  52.573  0.00  0.00     0.015 A 
ATOM      3  C   UNL d   1      48.324  34.788  51.502  0.00  0.00     0.015 A 
ATOM      4  C   UNL d   1      49.272  34.833  52.565  0.00  0.00     0.085 A 
ATOM      5  C   UNL d   1      49.015  34.508  51.854  0.00  0.00     0.020 A 
ATOM      6  C   UNL d   1      48.840  35.437  52.925  0.00  0.00     0.020 A 
ENDROOT
BRANCH   4   7
ATOM      7  N   UNL d   1      49.972  34.547  52.919  0.00  0.00    -0.208 NA
ATOM      8  C   UNL d   1      50.634  34.380  52.457  0.00  0.00     0.279 C 
ATOM      9  O   UNL d   1      50.596  34.498  51.640  0.00  0.00    -0.265 OA
BRANCH   8  10
ATOM     10  C   UNL d   1      51.323  34.099  52.809  0.00  0.00     0.058 A 
ATOM     11  C   UNL d   1      51.412  33.294  52.966  0.00  0.00     0.005 A 
ATOM     12  C   UNL d   1      52.097  33.011  53.317  0.00  0.00     0.013 A 
ATOM     13  C   UNL d   1      52.712  33.533  53.519  0.00  0.00     0.104 A 
ATOM     14  C   UNL d   1      52.619  34.350  53.358  0.00  0.00     0.013 A 
ATOM     15  C   UNL d   1      51.937  34.632  53.009  0.00  0.00     0.005 A 
BRANCH  13  16
ATOM     16  S   UNL d   1      53.406  33.245  53.875  0.00  0.00     0.271 S 
ATOM     17  O   UNL d   1      53.625  32.884  53.161  0.00  0.00    -0.200 OA
ATOM     18  O   UNL d   1      53.182  33.608  54.586  0.00  0.00    -0.200 OA
BRANCH  16  19
ATOM     19  N   UNL d   1      54.095  32.959  54.228  0.00  0.00    -0.226 N 
ATOM     20  C   UNL d   1      54.164  32.947  55.059  0.00  0.00     0.111 C 
ATOM     21  C   UNL d   1      54.715  32.684  53.765  0.00  0.00     0.111 C 
ENDBRANCH  16  19
ENDBRANCH  13  16
ENDBRANCH   8  10
ENDBRANCH   4   7
BRANCH   1  22
ATOM     22  S   UNL d   1      47.208  35.671  51.516  0.00  0.00     0.300 S 
ATOM     23  O   UNL d   1      47.077  34.932  51.168  0.00  0.00    -0.198 OA
ATOM     24  O   UNL d   1      47.324  36.412  51.855  0.00  0.00    -0.198 OA
BRANCH  22  25
ATOM     25  N   UNL d   1      46.511  35.950  51.159  0.00  0.00     0.034 NA
BRANCH  25  26
ATOM     26  C   UNL d   1      45.781  35.796  51.506  0.00  0.00     0.760 A 
ATOM     27  N   UNL d   1      45.458  36.334  52.060  0.00  0.00    -0.059 NA
ATOM     28  C   UNL d   1      44.726  36.180  52.407  0.00  0.00     0.102 A 
ATOM     29  C   UNL d   1      44.408  36.709  52.953  0.00  0.00     0.021 C 
ATOM     30  C   UNL d   1      44.314  35.496  52.206  0.00  0.00     0.041 A 
ATOM     31  C   UNL d   1      44.637  34.959  51.651  0.00  0.00     0.120 A 
ATOM     32  N   UNL d   1      45.364  35.118  51.311  0.00  0.00    -0.057 NA
ENDBRANCH  25  26
ENDBRANCH  22  25
ENDBRANCH   1  22
TORSDOF 7
ENDMDL
