MODEL 1
REMARK VINA RESULT:      -5.4      0.000      0.000
REMARK  5 active torsions:
REMARK  status: ('A' for Active; 'I' for Inactive)
REMARK    1  A    between atoms: N_2  and  S_1 
REMARK    2  A    between atoms: C_4  and  S_1 
REMARK    3  A    between atoms: C_3  and  C_8 
REMARK       I    between atoms: N_7  and  C_3 
REMARK    4  A    between atoms: C_16  and  N_7 
REMARK    5  A    between atoms: C_15  and  C_16 
ROOT
ATOM      1  C   UNL d   1      56.860   0.034  32.030  0.00  0.00     0.104 A 
ATOM      2  C   UNL d   1      57.668  -0.267  30.626  0.00  0.00     0.058 A 
ATOM      3  C   UNL d   1      56.899  -0.734  31.732  0.00  0.00     0.013 A 
ATOM      4  C   UNL d   1      57.235   0.657  31.612  0.00  0.00     0.013 A 
ATOM      5  C   UNL d   1      57.295  -0.896  31.038  0.00  0.00     0.005 A 
ATOM      6  C   UNL d   1      57.640   0.492  30.903  0.00  0.00     0.005 A 
ENDROOT
BRANCH   2   7
ATOM      7  C   UNL d   1      58.088  -0.423  29.895  0.00  0.00     0.279 C 
ATOM      8  N   UNL d   1      58.498  -1.143  29.825  0.00  0.00    -0.206 NA
ATOM      9  O   UNL d   1      58.078   0.122  29.301  0.00  0.00    -0.265 OA
BRANCH   8  10
ATOM     10  C   UNL d   1      58.900  -1.301  29.133  0.00  0.00     0.104 C 
BRANCH  10  11
ATOM     11  C   UNL d   1      59.318  -1.993  29.062  0.00  0.00     0.038 A 
ATOM     12  C   UNL d   1      60.132  -2.018  29.236  0.00  0.00     0.101 A 
ATOM     13  N   UNL d   1      60.549  -2.710  29.165  0.00  0.00    -0.242 NA
ATOM     14  C   UNL d   1      60.167  -3.401  28.918  0.00  0.00     0.099 A 
ATOM     15  C   UNL d   1      59.367  -3.386  28.745  0.00  0.00     0.021 A 
ATOM     16  C   UNL d   1      58.941  -2.668  28.820  0.00  0.00     0.005 A 
ENDBRANCH  10  11
ENDBRANCH   8  10
ENDBRANCH   2   7
BRANCH   1  17
ATOM     17  S   UNL d   1      56.455   0.200  32.739  0.00  0.00     0.271 S 
ATOM     18  O   UNL d   1      57.086   0.680  32.992  0.00  0.00    -0.200 OA
ATOM     19  O   UNL d   1      55.807  -0.293  32.480  0.00  0.00    -0.200 OA
BRANCH  17  20
ATOM     20  N   UNL d   1      56.046   0.364  33.449  0.00  0.00    -0.229 N 
ATOM     21  C   UNL d   1      56.476   0.470  34.143  0.00  0.00     0.092 A 
ATOM     22  C   UNL d   1      56.075   0.630  34.835  0.00  0.00     0.020 A 
ATOM     23  C   UNL d   1      55.235   0.682  34.819  0.00  0.00     0.003 A 
ATOM     24  C   UNL d   1      54.824   0.575  34.128  0.00  0.00     0.020 A 
ATOM     25  C   UNL d   1      55.233   0.415  33.441  0.00  0.00     0.092 A 
ENDBRANCH  17  20
ENDBRANCH   1  17
TORSDOF 5
ENDMDL
