MODEL 1
REMARK VINA RESULT:      -2.6      0.000      0.000
REMARK  2 active torsions:
REMARK  status: ('A' for Active; 'I' for Inactive)
REMARK    1  A    between atoms: C_6  and  C_3 
REMARK    2  A    between atoms: O_13  and  C_10 
ROOT
ATOM      1  C   UNL d   1      31.192  16.843 -23.846  0.00  0.00     0.018 A 
ATOM      2  C   UNL d   1      30.642  17.229 -24.303  0.00  0.00     0.004 A 
ATOM      3  C   UNL d   1      30.996  16.135 -23.484  0.00  0.00     0.004 A 
ATOM      4  C   UNL d   1      29.694  16.195 -24.037  0.00  0.00     0.094 A 
ATOM      5  C   UNL d   1      30.244  15.809 -23.579  0.00  0.00     0.024 A 
ATOM      6  C   UNL d   1      29.884  16.916 -24.410  0.00  0.00     0.024 A 
ENDROOT
BRANCH   1   7
ATOM      7  C   UNL d   1      31.743  17.445 -24.001  0.00  0.00     0.090 A 
ATOM      8  N   UNL d   1      31.911  18.107 -24.473  0.00  0.00    -0.219 NA
ATOM      9  C   UNL d   1      32.642  18.394 -24.226  0.00  0.00     0.215 A 
ATOM     10  S   UNL d   1      32.904  17.927 -23.633  0.00  0.00    -0.045 SA
ATOM     11  N   UNL d   1      33.063  19.055 -24.523  0.00  0.00    -0.120 N 
ATOM     12  C   UNL d   1      32.366  17.341 -23.482  0.00  0.00     0.058 A 
ENDBRANCH   1   7
BRANCH   4  13
ATOM     13  O   UNL d   1      28.926  15.871 -24.141  0.00  0.00    -0.328 OA
ATOM     14  C   UNL d   1      28.319  16.052 -23.603  0.00  0.00     0.181 C 
ENDBRANCH   4  13
TORSDOF 2
ENDMDL
MODEL 2
REMARK VINA RESULT:      -2.6      4.927      6.176
REMARK  2 active torsions:
REMARK  status: ('A' for Active; 'I' for Inactive)
REMARK    1  A    between atoms: C_6  and  C_3 
REMARK    2  A    between atoms: O_13  and  C_10 
ROOT
ATOM      1  C   UNL d   1      32.822  21.705 -21.610  0.00  0.00     0.018 A 
ATOM      2  C   UNL d   1      32.588  21.468 -20.868  0.00  0.00     0.004 A 
ATOM      3  C   UNL d   1      32.864  22.503 -21.788  0.00  0.00     0.004 A 
ATOM      4  C   UNL d   1      32.439  22.834 -20.479  0.00  0.00     0.094 A 
ATOM      5  C   UNL d   1      32.672  23.071 -21.220  0.00  0.00     0.024 A 
ATOM      6  C   UNL d   1      32.392  22.024 -20.288  0.00  0.00     0.024 A 
ENDROOT
BRANCH   1   7
ATOM      7  C   UNL d   1      32.908  20.911 -21.837  0.00  0.00     0.090 A 
ATOM      8  N   UNL d   1      32.843  20.122 -21.586  0.00  0.00    -0.219 NA
ATOM      9  C   UNL d   1      33.056  19.652 -22.227  0.00  0.00     0.215 A 
ATOM     10  S   UNL d   1      33.241  20.133 -22.837  0.00  0.00    -0.045 SA
ATOM     11  N   UNL d   1      33.084  18.814 -22.265  0.00  0.00    -0.120 N 
ATOM     12  C   UNL d   1      33.156  20.908 -22.616  0.00  0.00     0.058 A 
ENDBRANCH   1   7
BRANCH   4  13
ATOM     13  O   UNL d   1      32.241  23.404 -19.894  0.00  0.00    -0.328 OA
ATOM     14  C   UNL d   1      32.826  23.701 -19.383  0.00  0.00     0.181 C 
ENDBRANCH   4  13
TORSDOF 2
ENDMDL
MODEL 3
REMARK VINA RESULT:      -2.5      2.259      3.402
REMARK  2 active torsions:
REMARK  status: ('A' for Active; 'I' for Inactive)
REMARK    1  A    between atoms: C_6  and  C_3 
REMARK    2  A    between atoms: O_13  and  C_10 
ROOT
ATOM      1  C   UNL d   1      30.884  16.606 -23.827  0.00  0.00     0.018 A 
ATOM      2  C   UNL d   1      30.634  17.178 -24.349  0.00  0.00     0.004 A 
ATOM      3  C   UNL d   1      31.678  16.547 -23.638  0.00  0.00     0.004 A 
ATOM      4  C   UNL d   1      31.980  17.634 -24.494  0.00  0.00     0.094 A 
ATOM      5  C   UNL d   1      32.230  17.062 -23.973  0.00  0.00     0.024 A 
ATOM      6  C   UNL d   1      31.173  17.703 -24.693  0.00  0.00     0.024 A 
ENDROOT
BRANCH   1   7
ATOM      7  C   UNL d   1      30.101  16.341 -23.743  0.00  0.00     0.090 A 
ATOM      8  N   UNL d   1      29.314  16.464 -23.977  0.00  0.00    -0.219 NA
ATOM      9  C   UNL d   1      28.861  15.896 -23.588  0.00  0.00     0.215 A 
ATOM     10  S   UNL d   1      29.352  15.452 -23.140  0.00  0.00    -0.045 SA
ATOM     11  N   UNL d   1      28.032  15.779 -23.633  0.00  0.00    -0.120 N 
ATOM     12  C   UNL d   1      30.115  15.711 -23.223  0.00  0.00     0.058 A 
ENDBRANCH   1   7
BRANCH   4  13
ATOM     13  O   UNL d   1      32.533  18.163 -24.840  0.00  0.00    -0.328 OA
ATOM     14  C   UNL d   1      32.865  18.776 -24.388  0.00  0.00     0.181 C 
ENDBRANCH   4  13
TORSDOF 2
ENDMDL
MODEL 4
REMARK VINA RESULT:      -2.4      3.920      5.177
REMARK  2 active torsions:
REMARK  status: ('A' for Active; 'I' for Inactive)
REMARK    1  A    between atoms: C_6  and  C_3 
REMARK    2  A    between atoms: O_13  and  C_10 
ROOT
ATOM      1  C   UNL d   1      33.173  20.264 -21.733  0.00  0.00     0.018 A 
ATOM      2  C   UNL d   1      33.060  20.930 -22.186  0.00  0.00     0.004 A 
ATOM      3  C   UNL d   1      33.213  20.328 -20.918  0.00  0.00     0.004 A 
ATOM      4  C   UNL d   1      33.025  21.728 -21.002  0.00  0.00     0.094 A 
ATOM      5  C   UNL d   1      33.139  21.062 -20.550  0.00  0.00     0.024 A 
ATOM      6  C   UNL d   1      32.984  21.675 -21.833  0.00  0.00     0.024 A 
ENDROOT
BRANCH   1   7
ATOM      7  C   UNL d   1      33.193  19.800 -22.422  0.00  0.00     0.090 A 
ATOM      8  N   UNL d   1      33.197  19.817 -23.252  0.00  0.00    -0.219 NA
ATOM      9  C   UNL d   1      33.226  19.033 -23.504  0.00  0.00     0.215 A 
ATOM     10  S   UNL d   1      33.239  18.566 -22.857  0.00  0.00    -0.045 SA
ATOM     11  N   UNL d   1      33.241  18.745 -24.291  0.00  0.00    -0.120 N 
ATOM     12  C   UNL d   1      33.219  19.018 -22.185  0.00  0.00     0.058 A 
ENDBRANCH   1   7
BRANCH   4  13
ATOM     13  O   UNL d   1      32.949  22.481 -20.637  0.00  0.00    -0.328 OA
ATOM     14  C   UNL d   1      32.251  22.922 -20.727  0.00  0.00     0.181 C 
ENDBRANCH   4  13
TORSDOF 2
ENDMDL
MODEL 5
REMARK VINA RESULT:      -2.2      2.428      3.444
REMARK  2 active torsions:
REMARK  status: ('A' for Active; 'I' for Inactive)
REMARK    1  A    between atoms: C_6  and  C_3 
REMARK    2  A    between atoms: O_13  and  C_10 
ROOT
ATOM      1  C   UNL d   1      33.046  19.019 -23.171  0.00  0.00     0.018 A 
ATOM      2  C   UNL d   1      32.981  18.377 -22.677  0.00  0.00     0.004 A 
ATOM      3  C   UNL d   1      33.030  18.911 -23.982  0.00  0.00     0.004 A 
ATOM      4  C   UNL d   1      32.884  17.514 -23.810  0.00  0.00     0.094 A 
ATOM      5  C   UNL d   1      32.949  18.156 -24.305  0.00  0.00     0.024 A 
ATOM      6  C   UNL d   1      32.899  17.613 -22.982  0.00  0.00     0.024 A 
ENDROOT
BRANCH   1   7
ATOM      7  C   UNL d   1      33.102  19.521 -22.511  0.00  0.00     0.090 A 
ATOM      8  N   UNL d   1      33.107  19.554 -21.682  0.00  0.00    -0.219 NA
ATOM      9  C   UNL d   1      33.195  20.347 -21.478  0.00  0.00     0.215 A 
ATOM     10  S   UNL d   1      33.241  20.773 -22.152  0.00  0.00    -0.045 SA
ATOM     11  N   UNL d   1      33.233  20.680 -20.709  0.00  0.00    -0.120 N 
ATOM     12  C   UNL d   1      33.186  20.283 -22.795  0.00  0.00     0.058 A 
ENDBRANCH   1   7
BRANCH   4  13
ATOM     13  O   UNL d   1      32.801  16.741 -24.128  0.00  0.00    -0.328 OA
ATOM     14  C   UNL d   1      32.079  16.335 -24.060  0.00  0.00     0.181 C 
ENDBRANCH   4  13
TORSDOF 2
ENDMDL
MODEL 6
REMARK VINA RESULT:      -2.2      3.054      4.115
REMARK  2 active torsions:
REMARK  status: ('A' for Active; 'I' for Inactive)
REMARK    1  A    between atoms: C_6  and  C_3 
REMARK    2  A    between atoms: O_13  and  C_10 
ROOT
ATOM      1  C   UNL d   1      33.200  19.595 -22.342  0.00  0.00     0.018 A 
ATOM      2  C   UNL d   1      33.156  19.870 -23.106  0.00  0.00     0.004 A 
ATOM      3  C   UNL d   1      33.241  18.790 -22.201  0.00  0.00     0.004 A 
ATOM      4  C   UNL d   1      33.195  18.528 -23.591  0.00  0.00     0.094 A 
ATOM      5  C   UNL d   1      33.239  18.253 -22.827  0.00  0.00     0.024 A 
ATOM      6  C   UNL d   1      33.153  19.346 -23.745  0.00  0.00     0.024 A 
ENDROOT
BRANCH   1   7
ATOM      7  C   UNL d   1      33.177  20.377 -22.059  0.00  0.00     0.090 A 
ATOM      8  N   UNL d   1      33.175  21.178 -22.278  0.00  0.00    -0.219 NA
ATOM      9  C   UNL d   1      33.139  21.613 -21.580  0.00  0.00     0.215 A 
ATOM     10  S   UNL d   1      33.121  21.099 -20.969  0.00  0.00    -0.045 SA
ATOM     11  N   UNL d   1      33.124  22.446 -21.492  0.00  0.00    -0.120 N 
ATOM     12  C   UNL d   1      33.143  20.337 -21.244  0.00  0.00     0.058 A 
ENDBRANCH   1   7
BRANCH   4  13
ATOM     13  O   UNL d   1      33.192  17.989 -24.236  0.00  0.00    -0.328 OA
ATOM     14  C   UNL d   1      32.477  17.778 -24.602  0.00  0.00     0.181 C 
ENDBRANCH   4  13
TORSDOF 2
ENDMDL
MODEL 7
REMARK VINA RESULT:      -2.2      2.229      3.446
REMARK  2 active torsions:
REMARK  status: ('A' for Active; 'I' for Inactive)
REMARK    1  A    between atoms: C_6  and  C_3 
REMARK    2  A    between atoms: O_13  and  C_10 
ROOT
ATOM      1  C   UNL d   1      32.299  17.276 -23.611  0.00  0.00     0.018 A 
ATOM      2  C   UNL d   1      31.991  17.907 -24.020  0.00  0.00     0.004 A 
ATOM      3  C   UNL d   1      32.918  17.392 -23.089  0.00  0.00     0.004 A 
ATOM      4  C   UNL d   1      32.927  18.777 -23.382  0.00  0.00     0.094 A 
ATOM      5  C   UNL d   1      33.234  18.145 -22.973  0.00  0.00     0.024 A 
ATOM      6  C   UNL d   1      32.295  18.669 -23.916  0.00  0.00     0.024 A 
ENDROOT
BRANCH   1   7
ATOM      7  C   UNL d   1      31.754  16.770 -23.983  0.00  0.00     0.090 A 
ATOM      8  N   UNL d   1      31.068  16.736 -24.450  0.00  0.00    -0.219 NA
ATOM      9  C   UNL d   1      30.901  15.938 -24.565  0.00  0.00     0.215 A 
ATOM     10  S   UNL d   1      31.459  15.510 -24.186  0.00  0.00    -0.045 SA
ATOM     11  N   UNL d   1      30.266  15.602 -24.998  0.00  0.00    -0.120 N 
ATOM     12  C   UNL d   1      31.990  16.004 -23.824  0.00  0.00     0.058 A 
ENDBRANCH   1   7
BRANCH   4  13
ATOM     13  O   UNL d   1      33.241  19.548 -23.271  0.00  0.00    -0.328 OA
ATOM     14  C   UNL d   1      33.234  19.899 -22.518  0.00  0.00     0.181 C 
ENDBRANCH   4  13
TORSDOF 2
ENDMDL
MODEL 8
REMARK VINA RESULT:      -2.0      6.691      7.718
REMARK  2 active torsions:
REMARK  status: ('A' for Active; 'I' for Inactive)
REMARK    1  A    between atoms: C_6  and  C_3 
REMARK    2  A    between atoms: O_13  and  C_10 
ROOT
ATOM      1  C   UNL d   1      33.122  22.506 -19.742  0.00  0.00     0.018 A 
ATOM      2  C   UNL d   1      32.972  23.304 -19.712  0.00  0.00     0.004 A 
ATOM      3  C   UNL d   1      33.241  22.088 -19.048  0.00  0.00     0.004 A 
ATOM      4  C   UNL d   1      33.058  23.267 -18.287  0.00  0.00     0.094 A 
ATOM      5  C   UNL d   1      33.209  22.469 -18.317  0.00  0.00     0.024 A 
ATOM      6  C   UNL d   1      32.936  23.702 -18.988  0.00  0.00     0.024 A 
ENDROOT
BRANCH   1   7
ATOM      7  C   UNL d   1      33.072  22.528 -20.571  0.00  0.00     0.090 A 
ATOM      8  N   UNL d   1      33.048  23.023 -21.237  0.00  0.00    -0.219 NA
ATOM      9  C   UNL d   1      32.991  22.531 -21.895  0.00  0.00     0.215 A 
ATOM     10  S   UNL d   1      32.980  21.775 -21.639  0.00  0.00    -0.045 SA
ATOM     11  N   UNL d   1      32.949  22.753 -22.702  0.00  0.00    -0.120 N 
ATOM     12  C   UNL d   1      33.029  21.754 -20.830  0.00  0.00     0.058 A 
ENDBRANCH   1   7
BRANCH   4  13
ATOM     13  O   UNL d   1      33.023  23.665 -17.548  0.00  0.00    -0.328 OA
ATOM     14  C   UNL d   1      32.565  23.357 -16.927  0.00  0.00     0.181 C 
ENDBRANCH   4  13
TORSDOF 2
ENDMDL
