MODEL 1
REMARK VINA RESULT:      -7.7      0.000      0.000
REMARK  5 active torsions:
REMARK  status: ('A' for Active; 'I' for Inactive)
REMARK       I    between atoms: N_2  and  C_1 
REMARK    1  A    between atoms: C_3  and  C_1 
REMARK    2  A    between atoms: C_5  and  N_2 
REMARK    3  A    between atoms: C_6  and  C_3 
REMARK    4  A    between atoms: C_7  and  C_3 
REMARK    5  A    between atoms: C_9  and  C_5 
ROOT
ATOM      1  C   UNL d   1     -48.504  13.505  22.836  0.00  0.00     0.058 C 
ENDROOT
BRANCH   1   2
ATOM      2  C   UNL d   1     -47.628  13.119  23.209  0.00  0.00     0.275 C 
ATOM      3  N   UNL d   1     -46.870  12.995  23.273  0.00  0.00    -0.231 NA
ATOM      4  O   UNL d   1     -48.132  12.770  23.698  0.00  0.00    -0.266 OA
BRANCH   3   5
ATOM      5  C   UNL d   1     -46.353  13.352  22.775  0.00  0.00     0.146 C 
ATOM      6  C   UNL d   1     -46.414  12.749  22.275  0.00  0.00     0.033 C 
ATOM      7  C   UNL d   1     -46.300  13.956  23.291  0.00  0.00     0.033 C 
BRANCH   5   8
ATOM      8  C   UNL d   1     -45.835  13.720  22.286  0.00  0.00     0.229 C 
ATOM      9  O   UNL d   1     -45.056  13.535  22.339  0.00  0.00    -0.286 OA
ENDBRANCH   5   8
ENDBRANCH   3   5
ENDBRANCH   1   2
BRANCH   1  10
ATOM     10  C   UNL d   1     -48.968  13.039  22.363  0.00  0.00     0.005 A 
ATOM     11  C   UNL d   1     -48.962  13.134  21.557  0.00  0.00     0.000 A 
ATOM     12  C   UNL d   1     -49.438  12.655  21.080  0.00  0.00     0.000 A 
ATOM     13  C   UNL d   1     -49.920  12.078  21.419  0.00  0.00     0.000 A 
ATOM     14  C   UNL d   1     -49.924  11.983  22.245  0.00  0.00     0.000 A 
ATOM     15  C   UNL d   1     -49.451  12.459  22.719  0.00  0.00     0.000 A 
ENDBRANCH   1  10
BRANCH   1  16
ATOM     16  C   UNL d   1     -48.855  14.231  22.923  0.00  0.00     0.005 A 
ATOM     17  C   UNL d   1     -48.759  14.818  22.347  0.00  0.00     0.000 A 
ATOM     18  C   UNL d   1     -49.119  15.564  22.435  0.00  0.00     0.000 A 
ATOM     19  C   UNL d   1     -49.582  15.724  23.109  0.00  0.00     0.000 A 
ATOM     20  C   UNL d   1     -49.679  15.128  23.692  0.00  0.00     0.000 A 
ATOM     21  C   UNL d   1     -49.313  14.390  23.590  0.00  0.00     0.000 A 
ENDBRANCH   1  16
TORSDOF 5
ENDMDL
MODEL 2
REMARK VINA RESULT:      -7.5      0.956      2.454
REMARK  5 active torsions:
REMARK  status: ('A' for Active; 'I' for Inactive)
REMARK       I    between atoms: N_2  and  C_1 
REMARK    1  A    between atoms: C_3  and  C_1 
REMARK    2  A    between atoms: C_5  and  N_2 
REMARK    3  A    between atoms: C_6  and  C_3 
REMARK    4  A    between atoms: C_7  and  C_3 
REMARK    5  A    between atoms: C_9  and  C_5 
ROOT
ATOM      1  C   UNL d   1     -48.888  13.455  22.556  0.00  0.00     0.058 C 
ENDROOT
BRANCH   1   2
ATOM      2  C   UNL d   1     -47.932  13.323  22.204  0.00  0.00     0.275 C 
ATOM      3  N   UNL d   1     -47.176  13.175  22.222  0.00  0.00    -0.231 NA
ATOM      4  O   UNL d   1     -48.289  13.492  21.526  0.00  0.00    -0.266 OA
BRANCH   3   5
ATOM      5  C   UNL d   1     -46.809  13.003  22.914  0.00  0.00     0.146 C 
ATOM      6  C   UNL d   1     -47.022  12.251  22.844  0.00  0.00     0.033 C 
ATOM      7  C   UNL d   1     -46.600  13.770  22.973  0.00  0.00     0.033 C 
BRANCH   5   8
ATOM      8  C   UNL d   1     -46.438  12.846  23.607  0.00  0.00     0.229 C 
ATOM      9  O   UNL d   1     -45.789  12.375  23.600  0.00  0.00    -0.286 OA
ENDBRANCH   5   8
ENDBRANCH   3   5
ENDBRANCH   1   2
BRANCH   1  10
ATOM     10  C   UNL d   1     -49.154  14.208  22.696  0.00  0.00     0.005 A 
ATOM     11  C   UNL d   1     -49.241  14.480  23.456  0.00  0.00     0.000 A 
ATOM     12  C   UNL d   1     -49.513  15.248  23.592  0.00  0.00     0.000 A 
ATOM     13  C   UNL d   1     -49.698  15.743  22.958  0.00  0.00     0.000 A 
ATOM     14  C   UNL d   1     -49.608  15.461  22.180  0.00  0.00     0.000 A 
ATOM     15  C   UNL d   1     -49.338  14.697  22.045  0.00  0.00     0.000 A 
ENDBRANCH   1  10
BRANCH   1  16
ATOM     16  C   UNL d   1     -49.476  12.926  22.736  0.00  0.00     0.005 A 
ATOM     17  C   UNL d   1     -49.578  12.656  23.511  0.00  0.00     0.000 A 
ATOM     18  C   UNL d   1     -50.182  12.112  23.697  0.00  0.00     0.000 A 
ATOM     19  C   UNL d   1     -50.689  11.836  23.098  0.00  0.00     0.000 A 
ATOM     20  C   UNL d   1     -50.584  12.110  22.312  0.00  0.00     0.000 A 
ATOM     21  C   UNL d   1     -49.979  12.651  22.142  0.00  0.00     0.000 A 
ENDBRANCH   1  16
TORSDOF 5
ENDMDL
MODEL 3
REMARK VINA RESULT:      -7.3      1.486      3.442
REMARK  5 active torsions:
REMARK  status: ('A' for Active; 'I' for Inactive)
REMARK       I    between atoms: N_2  and  C_1 
REMARK    1  A    between atoms: C_3  and  C_1 
REMARK    2  A    between atoms: C_5  and  N_2 
REMARK    3  A    between atoms: C_6  and  C_3 
REMARK    4  A    between atoms: C_7  and  C_3 
REMARK    5  A    between atoms: C_9  and  C_5 
ROOT
ATOM      1  C   UNL d   1     -48.610  13.582  22.456  0.00  0.00     0.058 C 
ENDROOT
BRANCH   1   2
ATOM      2  C   UNL d   1     -49.024  14.471  22.150  0.00  0.00     0.275 C 
ATOM      3  N   UNL d   1     -49.412  15.135  22.199  0.00  0.00    -0.231 NA
ATOM      4  O   UNL d   1     -48.702  14.247  21.471  0.00  0.00    -0.266 OA
BRANCH   3   5
ATOM      5  C   UNL d   1     -49.742  15.366  22.893  0.00  0.00     0.146 C 
ATOM      6  C   UNL d   1     -50.417  15.020  22.691  0.00  0.00     0.033 C 
ATOM      7  C   UNL d   1     -49.051  15.713  23.085  0.00  0.00     0.033 C 
BRANCH   5   8
ATOM      8  C   UNL d   1     -50.058  15.604  23.590  0.00  0.00     0.229 C 
ATOM      9  O   UNL d   1     -50.795  15.920  23.593  0.00  0.00    -0.286 OA
ENDBRANCH   5   8
ENDBRANCH   3   5
ENDBRANCH   1   2
BRANCH   1  10
ATOM     10  C   UNL d   1     -47.803  13.521  22.505  0.00  0.00     0.005 A 
ATOM     11  C   UNL d   1     -47.364  13.316  21.853  0.00  0.00     0.000 A 
ATOM     12  C   UNL d   1     -46.542  13.256  21.910  0.00  0.00     0.000 A 
ATOM     13  C   UNL d   1     -46.162  13.403  22.627  0.00  0.00     0.000 A 
ATOM     14  C   UNL d   1     -46.615  13.613  23.293  0.00  0.00     0.000 A 
ATOM     15  C   UNL d   1     -47.432  13.673  23.237  0.00  0.00     0.000 A 
ENDBRANCH   1  10
BRANCH   1  16
ATOM     16  C   UNL d   1     -48.945  12.877  22.674  0.00  0.00     0.005 A 
ATOM     17  C   UNL d   1     -48.998  12.664  23.472  0.00  0.00     0.000 A 
ATOM     18  C   UNL d   1     -49.342  11.939  23.697  0.00  0.00     0.000 A 
ATOM     19  C   UNL d   1     -49.637  11.422  23.115  0.00  0.00     0.000 A 
ATOM     20  C   UNL d   1     -49.582  11.638  22.307  0.00  0.00     0.000 A 
ATOM     21  C   UNL d   1     -49.237  12.364  22.098  0.00  0.00     0.000 A 
ENDBRANCH   1  16
TORSDOF 5
ENDMDL
MODEL 4
REMARK VINA RESULT:      -7.1      1.358      3.351
REMARK  5 active torsions:
REMARK  status: ('A' for Active; 'I' for Inactive)
REMARK       I    between atoms: N_2  and  C_1 
REMARK    1  A    between atoms: C_3  and  C_1 
REMARK    2  A    between atoms: C_5  and  N_2 
REMARK    3  A    between atoms: C_6  and  C_3 
REMARK    4  A    between atoms: C_7  and  C_3 
REMARK    5  A    between atoms: C_9  and  C_5 
ROOT
ATOM      1  C   UNL d   1     -48.459  13.451  22.403  0.00  0.00     0.058 C 
ENDROOT
BRANCH   1   2
ATOM      2  C   UNL d   1     -49.072  12.690  22.086  0.00  0.00     0.275 C 
ATOM      3  N   UNL d   1     -49.530  12.071  22.134  0.00  0.00    -0.231 NA
ATOM      4  O   UNL d   1     -48.919  13.020  21.391  0.00  0.00    -0.266 OA
BRANCH   3   5
ATOM      5  C   UNL d   1     -49.688  11.733  22.843  0.00  0.00     0.146 C 
ATOM      6  C   UNL d   1     -49.006  11.346  22.814  0.00  0.00     0.033 C 
ATOM      7  C   UNL d   1     -50.377  12.132  22.859  0.00  0.00     0.033 C 
BRANCH   5   8
ATOM      8  C   UNL d   1     -49.860  11.402  23.553  0.00  0.00     0.229 C 
ATOM      9  O   UNL d   1     -50.612  11.163  23.696  0.00  0.00    -0.286 OA
ENDBRANCH   5   8
ENDBRANCH   3   5
ENDBRANCH   1   2
BRANCH   1  10
ATOM     10  C   UNL d   1     -48.779  14.184  22.532  0.00  0.00     0.005 A 
ATOM     11  C   UNL d   1     -49.009  14.409  23.278  0.00  0.00     0.000 A 
ATOM     12  C   UNL d   1     -49.334  15.158  23.403  0.00  0.00     0.000 A 
ATOM     13  C   UNL d   1     -49.427  15.682  22.773  0.00  0.00     0.000 A 
ATOM     14  C   UNL d   1     -49.191  15.449  22.010  0.00  0.00     0.000 A 
ATOM     15  C   UNL d   1     -48.868  14.704  21.886  0.00  0.00     0.000 A 
ENDBRANCH   1  10
BRANCH   1  16
ATOM     16  C   UNL d   1     -47.664  13.474  22.562  0.00  0.00     0.005 A 
ATOM     17  C   UNL d   1     -47.390  13.480  23.343  0.00  0.00     0.000 A 
ATOM     18  C   UNL d   1     -46.573  13.504  23.508  0.00  0.00     0.000 A 
ATOM     19  C   UNL d   1     -46.025  13.521  22.881  0.00  0.00     0.000 A 
ATOM     20  C   UNL d   1     -46.304  13.515  22.090  0.00  0.00     0.000 A 
ATOM     21  C   UNL d   1     -47.121  13.491  21.942  0.00  0.00     0.000 A 
ENDBRANCH   1  16
TORSDOF 5
ENDMDL
MODEL 5
REMARK VINA RESULT:      -7.0      1.502      3.160
REMARK  5 active torsions:
REMARK  status: ('A' for Active; 'I' for Inactive)
REMARK       I    between atoms: N_2  and  C_1 
REMARK    1  A    between atoms: C_3  and  C_1 
REMARK    2  A    between atoms: C_5  and  N_2 
REMARK    3  A    between atoms: C_6  and  C_3 
REMARK    4  A    between atoms: C_7  and  C_3 
REMARK    5  A    between atoms: C_9  and  C_5 
ROOT
ATOM      1  C   UNL d   1     -48.501  13.479  22.373  0.00  0.00     0.058 C 
ENDROOT
BRANCH   1   2
ATOM      2  C   UNL d   1     -49.159  14.171  21.995  0.00  0.00     0.275 C 
ATOM      3  N   UNL d   1     -49.633  14.779  21.986  0.00  0.00    -0.231 NA
ATOM      4  O   UNL d   1     -49.043  13.746  21.346  0.00  0.00    -0.266 OA
BRANCH   3   5
ATOM      5  C   UNL d   1     -49.753  15.215  22.648  0.00  0.00     0.146 C 
ATOM      6  C   UNL d   1     -49.066  15.579  22.537  0.00  0.00     0.033 C 
ATOM      7  C   UNL d   1     -50.447  14.838  22.748  0.00  0.00     0.033 C 
BRANCH   5   8
ATOM      8  C   UNL d   1     -49.886  15.643  23.312  0.00  0.00     0.229 C 
ATOM      9  O   UNL d   1     -50.625  15.922  23.450  0.00  0.00    -0.286 OA
ENDBRANCH   5   8
ENDBRANCH   3   5
ENDBRANCH   1   2
BRANCH   1  10
ATOM     10  C   UNL d   1     -48.788  12.769  22.639  0.00  0.00     0.005 A 
ATOM     11  C   UNL d   1     -48.855  12.622  23.434  0.00  0.00     0.000 A 
ATOM     12  C   UNL d   1     -49.148  11.896  23.698  0.00  0.00     0.000 A 
ATOM     13  C   UNL d   1     -49.374  11.316  23.156  0.00  0.00     0.000 A 
ATOM     14  C   UNL d   1     -49.305  11.470  22.342  0.00  0.00     0.000 A 
ATOM     15  C   UNL d   1     -49.014  12.192  22.080  0.00  0.00     0.000 A 
ENDBRANCH   1  10
BRANCH   1  16
ATOM     16  C   UNL d   1     -47.696  13.495  22.470  0.00  0.00     0.005 A 
ATOM     17  C   UNL d   1     -47.362  13.684  23.202  0.00  0.00     0.000 A 
ATOM     18  C   UNL d   1     -46.534  13.701  23.302  0.00  0.00     0.000 A 
ATOM     19  C   UNL d   1     -46.037  13.525  22.658  0.00  0.00     0.000 A 
ATOM     20  C   UNL d   1     -46.376  13.333  21.916  0.00  0.00     0.000 A 
ATOM     21  C   UNL d   1     -47.202  13.320  21.832  0.00  0.00     0.000 A 
ENDBRANCH   1  16
TORSDOF 5
ENDMDL
MODEL 6
REMARK VINA RESULT:      -5.4      9.107     10.439
REMARK  5 active torsions:
REMARK  status: ('A' for Active; 'I' for Inactive)
REMARK       I    between atoms: N_2  and  C_1 
REMARK    1  A    between atoms: C_3  and  C_1 
REMARK    2  A    between atoms: C_5  and  N_2 
REMARK    3  A    between atoms: C_6  and  C_3 
REMARK    4  A    between atoms: C_7  and  C_3 
REMARK    5  A    between atoms: C_9  and  C_5 
ROOT
ATOM      1  C   UNL d   1     -39.135  14.906  18.072  0.00  0.00     0.058 C 
ENDROOT
BRANCH   1   2
ATOM      2  C   UNL d   1     -38.800  15.498  18.841  0.00  0.00     0.275 C 
ATOM      3  N   UNL d   1     -38.678  15.730  19.567  0.00  0.00    -0.231 NA
ATOM      4  O   UNL d   1     -38.535  15.922  18.237  0.00  0.00    -0.266 OA
BRANCH   3   5
ATOM      5  C   UNL d   1     -38.949  15.298  20.185  0.00  0.00     0.146 C 
ATOM      6  C   UNL d   1     -39.625  15.696  20.172  0.00  0.00     0.033 C 
ATOM      7  C   UNL d   1     -38.258  14.902  20.187  0.00  0.00     0.033 C 
BRANCH   5   8
ATOM      8  C   UNL d   1     -39.206  14.858  20.804  0.00  0.00     0.229 C 
ATOM      9  O   UNL d   1     -39.061  15.117  21.549  0.00  0.00    -0.286 OA
ENDBRANCH   5   8
ENDBRANCH   3   5
ENDBRANCH   1   2
BRANCH   1  10
ATOM     10  C   UNL d   1     -39.806  15.123  17.673  0.00  0.00     0.005 A 
ATOM     11  C   UNL d   1     -40.522  14.787  17.856  0.00  0.00     0.000 A 
ATOM     12  C   UNL d   1     -41.203  15.013  17.446  0.00  0.00     0.000 A 
ATOM     13  C   UNL d   1     -41.159  15.580  16.848  0.00  0.00     0.000 A 
ATOM     14  C   UNL d   1     -40.424  15.922  16.663  0.00  0.00     0.000 A 
ATOM     15  C   UNL d   1     -39.748  15.697  17.071  0.00  0.00     0.000 A 
ENDBRANCH   1  10
BRANCH   1  16
ATOM     16  C   UNL d   1     -38.848  14.216  17.756  0.00  0.00     0.005 A 
ATOM     17  C   UNL d   1     -39.154  13.484  17.992  0.00  0.00     0.000 A 
ATOM     18  C   UNL d   1     -38.860  12.775  17.668  0.00  0.00     0.000 A 
ATOM     19  C   UNL d   1     -38.251  12.800  17.101  0.00  0.00     0.000 A 
ATOM     20  C   UNL d   1     -37.941  13.542  16.863  0.00  0.00     0.000 A 
ATOM     21  C   UNL d   1     -38.244  14.240  17.194  0.00  0.00     0.000 A 
ENDBRANCH   1  16
TORSDOF 5
ENDMDL
MODEL 7
REMARK VINA RESULT:      -5.1      8.572     10.052
REMARK  5 active torsions:
REMARK  status: ('A' for Active; 'I' for Inactive)
REMARK       I    between atoms: N_2  and  C_1 
REMARK    1  A    between atoms: C_3  and  C_1 
REMARK    2  A    between atoms: C_5  and  N_2 
REMARK    3  A    between atoms: C_6  and  C_3 
REMARK    4  A    between atoms: C_7  and  C_3 
REMARK    5  A    between atoms: C_9  and  C_5 
ROOT
ATOM      1  C   UNL d   1     -39.400  14.584  18.520  0.00  0.00     0.058 C 
ENDROOT
BRANCH   1   2
ATOM      2  C   UNL d   1     -38.472  14.145  18.482  0.00  0.00     0.275 C 
ATOM      3  N   UNL d   1     -37.940  13.607  18.337  0.00  0.00    -0.231 NA
ATOM      4  O   UNL d   1     -38.269  14.830  18.806  0.00  0.00    -0.266 OA
BRANCH   3   5
ATOM      5  C   UNL d   1     -38.145  12.906  18.006  0.00  0.00     0.146 C 
ATOM      6  C   UNL d   1     -38.223  12.588  18.719  0.00  0.00     0.033 C 
ATOM      7  C   UNL d   1     -38.062  13.242  17.289  0.00  0.00     0.033 C 
BRANCH   5   8
ATOM      8  C   UNL d   1     -38.349  12.212  17.661  0.00  0.00     0.229 C 
ATOM      9  O   UNL d   1     -38.011  11.535  17.926  0.00  0.00    -0.286 OA
ENDBRANCH   5   8
ENDBRANCH   3   5
ENDBRANCH   1   2
BRANCH   1  10
ATOM     10  C   UNL d   1     -39.767  14.663  19.239  0.00  0.00     0.005 A 
ATOM     11  C   UNL d   1     -40.381  14.173  19.445  0.00  0.00     0.000 A 
ATOM     12  C   UNL d   1     -40.750  14.259  20.179  0.00  0.00     0.000 A 
ATOM     13  C   UNL d   1     -40.499  14.842  20.706  0.00  0.00     0.000 A 
ATOM     14  C   UNL d   1     -39.870  15.343  20.491  0.00  0.00     0.000 A 
ATOM     15  C   UNL d   1     -39.503  15.257  19.762  0.00  0.00     0.000 A 
ENDBRANCH   1  10
BRANCH   1  16
ATOM     16  C   UNL d   1     -39.878  14.891  17.941  0.00  0.00     0.005 A 
ATOM     17  C   UNL d   1     -40.575  14.504  17.720  0.00  0.00     0.000 A 
ATOM     18  C   UNL d   1     -41.066  14.819  17.125  0.00  0.00     0.000 A 
ATOM     19  C   UNL d   1     -40.856  15.530  16.747  0.00  0.00     0.000 A 
ATOM     20  C   UNL d   1     -40.148  15.921  16.972  0.00  0.00     0.000 A 
ATOM     21  C   UNL d   1     -39.669  15.596  17.566  0.00  0.00     0.000 A 
ENDBRANCH   1  16
TORSDOF 5
ENDMDL
MODEL 8
REMARK VINA RESULT:      -5.1      7.653      9.498
REMARK  5 active torsions:
REMARK  status: ('A' for Active; 'I' for Inactive)
REMARK       I    between atoms: N_2  and  C_1 
REMARK    1  A    between atoms: C_3  and  C_1 
REMARK    2  A    between atoms: C_5  and  N_2 
REMARK    3  A    between atoms: C_6  and  C_3 
REMARK    4  A    between atoms: C_7  and  C_3 
REMARK    5  A    between atoms: C_9  and  C_5 
ROOT
ATOM      1  C   UNL d   1     -39.710  15.130  19.602  0.00  0.00     0.058 C 
ENDROOT
BRANCH   1   2
ATOM      2  C   UNL d   1     -39.559  15.524  18.666  0.00  0.00     0.275 C 
ATOM      3  N   UNL d   1     -39.669  15.644  17.912  0.00  0.00    -0.231 NA
ATOM      4  O   UNL d   1     -38.987  15.899  19.050  0.00  0.00    -0.266 OA
BRANCH   3   5
ATOM      5  C   UNL d   1     -40.253  15.261  17.518  0.00  0.00     0.146 C 
ATOM      6  C   UNL d   1     -39.776  14.649  17.398  0.00  0.00     0.033 C 
ATOM      7  C   UNL d   1     -40.727  15.888  17.648  0.00  0.00     0.033 C 
BRANCH   5   8
ATOM      8  C   UNL d   1     -40.847  14.890  17.127  0.00  0.00     0.229 C 
ATOM      9  O   UNL d   1     -41.330  15.325  16.657  0.00  0.00    -0.286 OA
ENDBRANCH   5   8
ENDBRANCH   3   5
ENDBRANCH   1   2
BRANCH   1  10
ATOM     10  C   UNL d   1     -39.125  14.682  19.939  0.00  0.00     0.005 A 
ATOM     11  C   UNL d   1     -38.557  15.028  20.405  0.00  0.00     0.000 A 
ATOM     12  C   UNL d   1     -37.963  14.565  20.746  0.00  0.00     0.000 A 
ATOM     13  C   UNL d   1     -37.943  13.751  20.615  0.00  0.00     0.000 A 
ATOM     14  C   UNL d   1     -38.526  13.400  20.137  0.00  0.00     0.000 A 
ATOM     15  C   UNL d   1     -39.116  13.859  19.799  0.00  0.00     0.000 A 
ENDBRANCH   1  10
BRANCH   1  16
ATOM     16  C   UNL d   1     -40.339  15.176  20.113  0.00  0.00     0.005 A 
ATOM     17  C   UNL d   1     -40.493  15.873  20.531  0.00  0.00     0.000 A 
ATOM     18  C   UNL d   1     -41.139  15.921  21.057  0.00  0.00     0.000 A 
ATOM     19  C   UNL d   1     -41.636  15.262  21.163  0.00  0.00     0.000 A 
ATOM     20  C   UNL d   1     -41.479  14.556  20.738  0.00  0.00     0.000 A 
ATOM     21  C   UNL d   1     -40.832  14.523  20.219  0.00  0.00     0.000 A 
ENDBRANCH   1  16
TORSDOF 5
ENDMDL
MODEL 9
REMARK VINA RESULT:      -5.1      7.626      9.593
REMARK  5 active torsions:
REMARK  status: ('A' for Active; 'I' for Inactive)
REMARK       I    between atoms: N_2  and  C_1 
REMARK    1  A    between atoms: C_3  and  C_1 
REMARK    2  A    between atoms: C_5  and  N_2 
REMARK    3  A    between atoms: C_6  and  C_3 
REMARK    4  A    between atoms: C_7  and  C_3 
REMARK    5  A    between atoms: C_9  and  C_5 
ROOT
ATOM      1  C   UNL d   1     -39.422  14.924  20.194  0.00  0.00     0.058 C 
ENDROOT
BRANCH   1   2
ATOM      2  C   UNL d   1     -39.209  15.043  19.196  0.00  0.00     0.275 C 
ATOM      3  N   UNL d   1     -39.049  14.843  18.469  0.00  0.00    -0.231 NA
ATOM      4  O   UNL d   1     -39.263  15.798  19.399  0.00  0.00    -0.266 OA
BRANCH   3   5
ATOM      5  C   UNL d   1     -38.993  14.071  18.259  0.00  0.00     0.146 C 
ATOM      6  C   UNL d   1     -39.761  14.057  18.094  0.00  0.00     0.033 C 
ATOM      7  C   UNL d   1     -38.216  14.099  18.431  0.00  0.00     0.033 C 
BRANCH   5   8
ATOM      8  C   UNL d   1     -38.922  13.300  18.053  0.00  0.00     0.229 C 
ATOM      9  O   UNL d   1     -39.377  13.015  17.457  0.00  0.00    -0.286 OA
ENDBRANCH   5   8
ENDBRANCH   3   5
ENDBRANCH   1   2
BRANCH   1  10
ATOM     10  C   UNL d   1     -40.185  15.029  20.448  0.00  0.00     0.005 A 
ATOM     11  C   UNL d   1     -40.670  14.391  20.572  0.00  0.00     0.000 A 
ATOM     12  C   UNL d   1     -41.446  14.505  20.831  0.00  0.00     0.000 A 
ATOM     13  C   UNL d   1     -41.733  15.267  20.963  0.00  0.00     0.000 A 
ATOM     14  C   UNL d   1     -41.233  15.920  20.834  0.00  0.00     0.000 A 
ATOM     15  C   UNL d   1     -40.462  15.806  20.578  0.00  0.00     0.000 A 
ENDBRANCH   1  10
BRANCH   1  16
ATOM     16  C   UNL d   1     -38.954  14.734  20.828  0.00  0.00     0.005 A 
ATOM     17  C   UNL d   1     -38.468  15.303  21.181  0.00  0.00     0.000 A 
ATOM     18  C   UNL d   1     -37.986  15.108  21.833  0.00  0.00     0.000 A 
ATOM     19  C   UNL d   1     -37.992  14.332  22.134  0.00  0.00     0.000 A 
ATOM     20  C   UNL d   1     -38.485  13.755  21.776  0.00  0.00     0.000 A 
ATOM     21  C   UNL d   1     -38.959  13.964  21.127  0.00  0.00     0.000 A 
ENDBRANCH   1  16
TORSDOF 5
ENDMDL
