MODEL 1
REMARK VINA RESULT:      82.0      0.000      0.000
REMARK  3 active torsions:
REMARK  status: ('A' for Active; 'I' for Inactive)
REMARK    1  A    between atoms: C_11  and  N_1 
REMARK    2  A    between atoms: C_3  and  C_6 
REMARK    3  A    between atoms: C_6  and  N_5 
ROOT
ATOM      1  N   UNL d   1      61.746  47.331  49.804  0.00  0.00    -0.301 N 
ATOM      2  N   UNL d   1      61.138  48.790  50.319  0.00  0.00    -0.300 N 
ATOM      3  C   UNL d   1      60.928  47.413  49.978  0.00  0.00     0.100 A 
ATOM      4  C   UNL d   1      62.243  47.985  49.893  0.00  0.00     0.100 A 
ATOM      5  C   UNL d   1      61.956  48.708  50.145  0.00  0.00     0.100 A 
ATOM      6  C   UNL d   1      60.627  48.146  50.235  0.00  0.00     0.100 A 
ENDROOT
BRANCH   2   7
ATOM      7  C   UNL d   1      60.837  49.523  50.577  0.00  0.00     0.080 C 
BRANCH   7   8
ATOM      8  C   UNL d   1      60.405  49.569  51.278  0.00  0.00     0.019 A 
ATOM      9  C   UNL d   1      59.567  49.615  51.251  0.00  0.00     0.022 A 
ATOM     10  C   UNL d   1      59.136  49.660  51.952  0.00  0.00     0.120 A 
ATOM     11  C   UNL d   1      59.186  49.613  50.526  0.00  0.00     0.003 A 
ATOM     12  N   UNL d   1      58.318  49.706  51.937  0.00  0.00    -0.241 NA
ATOM     13  C   UNL d   1      59.536  49.661  52.690  0.00  0.00     0.213 A 
ATOM     14  C   UNL d   1      57.917  49.705  51.199  0.00  0.00     0.099 A 
ATOM     15  C   UNL d   1      58.348  49.659  50.498  0.00  0.00     0.021 A 
ATOM     16  C   UNL d   1      60.368  49.616  52.713  0.00  0.00     0.044 A 
ATOM     17  O   UNL d   1      59.105  49.707  53.391  0.00  0.00    -0.285 OA
ATOM     18  C   UNL d   1      60.799  49.570  52.013  0.00  0.00     0.005 A 
ENDBRANCH   7   8
ENDBRANCH   2   7
BRANCH   1  19
ATOM     19  C   UNL d   1      61.834  46.535  49.568  0.00  0.00     0.064 A 
ATOM     20  C   UNL d   1      61.303  45.921  49.495  0.00  0.00     0.018 A 
ATOM     21  C   UNL d   1      61.589  45.163  49.234  0.00  0.00     0.002 A 
ATOM     22  C   UNL d   1      62.363  45.050  49.062  0.00  0.00     0.000 A 
ATOM     23  C   UNL d   1      62.896  45.684  49.139  0.00  0.00     0.002 A 
ATOM     24  C   UNL d   1      62.631  46.420  49.391  0.00  0.00     0.018 A 
ENDBRANCH   1  19
TORSDOF 3
ENDMDL
MODEL 2
REMARK VINA RESULT:      83.8      2.029      5.083
REMARK  3 active torsions:
REMARK  status: ('A' for Active; 'I' for Inactive)
REMARK    1  A    between atoms: C_11  and  N_1 
REMARK    2  A    between atoms: C_3  and  C_6 
REMARK    3  A    between atoms: C_6  and  N_5 
ROOT
ATOM      1  N   UNL d   1      58.831  49.658  53.867  0.00  0.00    -0.301 N 
ATOM      2  N   UNL d   1      59.779  49.673  52.502  0.00  0.00    -0.300 N 
ATOM      3  C   UNL d   1      58.479  49.701  53.106  0.00  0.00     0.100 A 
ATOM      4  C   UNL d   1      59.654  49.624  53.928  0.00  0.00     0.100 A 
ATOM      5  C   UNL d   1      60.132  49.631  53.264  0.00  0.00     0.100 A 
ATOM      6  C   UNL d   1      58.957  49.708  52.423  0.00  0.00     0.100 A 
ENDROOT
BRANCH   2   7
ATOM      7  C   UNL d   1      60.258  49.681  51.820  0.00  0.00     0.080 C 
BRANCH   7   8
ATOM      8  C   UNL d   1      60.492  48.971  51.471  0.00  0.00     0.019 A 
ATOM      9  C   UNL d   1      60.843  48.975  50.708  0.00  0.00     0.022 A 
ATOM     10  C   UNL d   1      61.077  48.266  50.360  0.00  0.00     0.120 A 
ATOM     11  C   UNL d   1      60.950  49.688  50.318  0.00  0.00     0.003 A 
ATOM     12  N   UNL d   1      61.420  48.260  49.616  0.00  0.00    -0.241 NA
ATOM     13  C   UNL d   1      60.962  47.542  50.769  0.00  0.00     0.213 A 
ATOM     14  C   UNL d   1      61.535  48.984  49.206  0.00  0.00     0.099 A 
ATOM     15  C   UNL d   1      61.302  49.693  49.555  0.00  0.00     0.021 A 
ATOM     16  C   UNL d   1      60.613  47.541  51.525  0.00  0.00     0.044 A 
ATOM     17  O   UNL d   1      61.196  46.833  50.420  0.00  0.00    -0.285 OA
ATOM     18  C   UNL d   1      60.380  48.250  51.874  0.00  0.00     0.005 A 
ENDBRANCH   7   8
ENDBRANCH   2   7
BRANCH   1  19
ATOM     19  C   UNL d   1      58.187  49.663  54.398  0.00  0.00     0.064 A 
ATOM     20  C   UNL d   1      57.379  49.668  54.285  0.00  0.00     0.018 A 
ATOM     21  C   UNL d   1      56.872  49.672  54.968  0.00  0.00     0.002 A 
ATOM     22  C   UNL d   1      57.175  49.671  55.709  0.00  0.00     0.000 A 
ATOM     23  C   UNL d   1      58.001  49.667  55.814  0.00  0.00     0.002 A 
ATOM     24  C   UNL d   1      58.501  49.662  55.161  0.00  0.00     0.018 A 
ENDBRANCH   1  19
TORSDOF 3
ENDMDL
