MODEL 1
REMARK VINA RESULT:      -3.1      0.000      0.000
REMARK  4 active torsions:
REMARK  status: ('A' for Active; 'I' for Inactive)
REMARK    1  A    between atoms: C_3  and  C_1 
REMARK    2  A    between atoms: C_4  and  C_1 
REMARK    3  A    between atoms: C_2  and  C_3 
REMARK    4  A    between atoms: C_6  and  C_4 
ROOT
ATOM      1  C   UNL d   1      32.977  20.475 -21.376  0.00  0.00     0.196 C 
ATOM      2  O   UNL d   1      33.241  20.076 -20.702  0.00  0.00    -0.287 OA
ENDROOT
BRANCH   1   3
ATOM      3  C   UNL d   1      32.924  20.075 -22.096  0.00  0.00     0.044 C 
BRANCH   3   4
ATOM      4  C   UNL d   1      33.044  19.297 -22.334  0.00  0.00     0.028 C 
BRANCH   4   5
ATOM      5  C   UNL d   1      32.922  18.881 -23.036  0.00  0.00     0.100 A 
ATOM      6  O   UNL d   1      32.911  19.142 -23.821  0.00  0.00    -0.305 OA
ATOM      7  C   UNL d   1      32.765  18.497 -24.310  0.00  0.00     0.123 A 
ATOM      8  C   UNL d   1      32.683  17.823 -23.824  0.00  0.00     0.029 A 
ATOM      9  C   UNL d   1      32.779  18.054 -23.039  0.00  0.00     0.027 A 
ENDBRANCH   4   5
ENDBRANCH   3   4
ENDBRANCH   1   3
BRANCH   1  10
ATOM     10  C   UNL d   1      32.769  21.274 -21.318  0.00  0.00     0.039 A 
ATOM     11  C   UNL d   1      32.130  21.513 -20.854  0.00  0.00     0.006 A 
ATOM     12  C   UNL d   1      31.934  22.312 -20.806  0.00  0.00     0.042 A 
ATOM     13  C   UNL d   1      32.377  22.874 -21.221  0.00  0.00     0.196 A 
ATOM     14  C   UNL d   1      33.021  22.628 -21.688  0.00  0.00     0.042 A 
ATOM     15  O   UNL d   1      32.181  23.673 -21.172  0.00  0.00    -0.287 OA
ATOM     16  C   UNL d   1      33.212  21.835 -21.734  0.00  0.00     0.006 A 
ENDBRANCH   1  10
TORSDOF 4
ENDMDL
MODEL 2
REMARK VINA RESULT:      -3.1      2.922      5.491
REMARK  4 active torsions:
REMARK  status: ('A' for Active; 'I' for Inactive)
REMARK    1  A    between atoms: C_3  and  C_1 
REMARK    2  A    between atoms: C_4  and  C_1 
REMARK    3  A    between atoms: C_2  and  C_3 
REMARK    4  A    between atoms: C_6  and  C_4 
ROOT
ATOM      1  C   UNL d   1      31.189  16.416 -23.975  0.00  0.00     0.196 C 
ATOM      2  O   UNL d   1      31.617  15.916 -24.476  0.00  0.00    -0.287 OA
ENDROOT
BRANCH   1   3
ATOM      3  C   UNL d   1      31.568  17.052 -23.609  0.00  0.00     0.044 C 
BRANCH   3   4
ATOM      4  C   UNL d   1      32.295  17.423 -23.707  0.00  0.00     0.028 C 
BRANCH   4   5
ATOM      5  C   UNL d   1      32.666  18.070 -23.354  0.00  0.00     0.100 A 
ATOM      6  O   UNL d   1      32.888  18.200 -22.567  0.00  0.00    -0.305 OA
ATOM      7  C   UNL d   1      33.241  18.941 -22.512  0.00  0.00     0.123 A 
ATOM      8  C   UNL d   1      33.240  19.279 -23.276  0.00  0.00     0.029 A 
ATOM      9  C   UNL d   1      32.888  18.747 -23.797  0.00  0.00     0.027 A 
ENDBRANCH   4   5
ENDBRANCH   3   4
ENDBRANCH   1   3
BRANCH   1  10
ATOM     10  C   UNL d   1      30.385  16.271 -23.848  0.00  0.00     0.039 A 
ATOM     11  C   UNL d   1      30.136  15.763 -23.247  0.00  0.00     0.006 A 
ATOM     12  C   UNL d   1      29.331  15.628 -23.132  0.00  0.00     0.042 A 
ATOM     13  C   UNL d   1      28.774  16.000 -23.617  0.00  0.00     0.196 A 
ATOM     14  C   UNL d   1      29.030  16.511 -24.222  0.00  0.00     0.042 A 
ATOM     15  O   UNL d   1      27.969  15.864 -23.501  0.00  0.00    -0.287 OA
ATOM     16  C   UNL d   1      29.829  16.643 -24.333  0.00  0.00     0.006 A 
ENDBRANCH   1  10
TORSDOF 4
ENDMDL
MODEL 3
REMARK VINA RESULT:      -2.9      2.940      4.563
REMARK  4 active torsions:
REMARK  status: ('A' for Active; 'I' for Inactive)
REMARK    1  A    between atoms: C_3  and  C_1 
REMARK    2  A    between atoms: C_4  and  C_1 
REMARK    3  A    between atoms: C_2  and  C_3 
REMARK    4  A    between atoms: C_6  and  C_4 
ROOT
ATOM      1  C   UNL d   1      32.084  16.808 -23.658  0.00  0.00     0.196 C 
ATOM      2  O   UNL d   1      32.620  16.184 -23.569  0.00  0.00    -0.287 OA
ENDROOT
BRANCH   1   3
ATOM      3  C   UNL d   1      31.273  16.657 -23.649  0.00  0.00     0.044 C 
BRANCH   3   4
ATOM      4  C   UNL d   1      30.812  15.995 -23.490  0.00  0.00     0.028 C 
BRANCH   4   5
ATOM      5  C   UNL d   1      30.001  15.841 -23.493  0.00  0.00     0.100 A 
ATOM      6  O   UNL d   1      29.439  15.929 -24.094  0.00  0.00    -0.305 OA
ATOM      7  C   UNL d   1      28.706  15.694 -23.805  0.00  0.00     0.123 A 
ATOM      8  C   UNL d   1      28.811  15.455 -23.011  0.00  0.00     0.029 A 
ATOM      9  C   UNL d   1      29.607  15.544 -22.815  0.00  0.00     0.027 A 
ENDBRANCH   4   5
ENDBRANCH   3   4
ENDBRANCH   1   3
BRANCH   1  10
ATOM     10  C   UNL d   1      32.372  17.577 -23.755  0.00  0.00     0.039 A 
ATOM     11  C   UNL d   1      32.387  17.934 -24.499  0.00  0.00     0.006 A 
ATOM     12  C   UNL d   1      32.677  18.702 -24.581  0.00  0.00     0.042 A 
ATOM     13  C   UNL d   1      32.951  19.114 -23.918  0.00  0.00     0.196 A 
ATOM     14  C   UNL d   1      32.934  18.751 -23.170  0.00  0.00     0.042 A 
ATOM     15  O   UNL d   1      33.240  19.882 -24.001  0.00  0.00    -0.287 OA
ATOM     16  C   UNL d   1      32.646  17.990 -23.093  0.00  0.00     0.006 A 
ENDBRANCH   1  10
TORSDOF 4
ENDMDL
MODEL 4
REMARK VINA RESULT:      -2.9      1.237      4.595
REMARK  4 active torsions:
REMARK  status: ('A' for Active; 'I' for Inactive)
REMARK    1  A    between atoms: C_3  and  C_1 
REMARK    2  A    between atoms: C_4  and  C_1 
REMARK    3  A    between atoms: C_2  and  C_3 
REMARK    4  A    between atoms: C_6  and  C_4 
ROOT
ATOM      1  C   UNL d   1      32.857  18.732 -23.514  0.00  0.00     0.196 C 
ATOM      2  O   UNL d   1      33.229  19.053 -24.179  0.00  0.00    -0.287 OA
ENDROOT
BRANCH   1   3
ATOM      3  C   UNL d   1      32.875  19.140 -22.797  0.00  0.00     0.044 C 
BRANCH   3   4
ATOM      4  C   UNL d   1      33.111  19.894 -22.568  0.00  0.00     0.028 C 
BRANCH   4   5
ATOM      5  C   UNL d   1      33.093  20.316 -21.859  0.00  0.00     0.100 A 
ATOM      6  O   UNL d   1      33.231  20.068 -21.082  0.00  0.00    -0.305 OA
ATOM      7  C   UNL d   1      33.141  20.714 -20.580  0.00  0.00     0.123 A 
ATOM      8  C   UNL d   1      32.944  21.375 -21.051  0.00  0.00     0.029 A 
ATOM      9  C   UNL d   1      32.914  21.136 -21.839  0.00  0.00     0.027 A 
ENDBRANCH   4   5
ENDBRANCH   3   4
ENDBRANCH   1   3
BRANCH   1  10
ATOM     10  C   UNL d   1      32.472  18.003 -23.578  0.00  0.00     0.039 A 
ATOM     11  C   UNL d   1      31.740  17.942 -23.952  0.00  0.00     0.006 A 
ATOM     12  C   UNL d   1      31.367  17.208 -24.009  0.00  0.00     0.042 A 
ATOM     13  C   UNL d   1      31.726  16.535 -23.690  0.00  0.00     0.196 A 
ATOM     14  C   UNL d   1      32.466  16.601 -23.313  0.00  0.00     0.042 A 
ATOM     15  O   UNL d   1      31.353  15.802 -23.746  0.00  0.00    -0.287 OA
ATOM     16  C   UNL d   1      32.832  17.330 -23.259  0.00  0.00     0.006 A 
ENDBRANCH   1  10
TORSDOF 4
ENDMDL
MODEL 5
REMARK VINA RESULT:      -2.8      2.123      5.034
REMARK  4 active torsions:
REMARK  status: ('A' for Active; 'I' for Inactive)
REMARK    1  A    between atoms: C_3  and  C_1 
REMARK    2  A    between atoms: C_4  and  C_1 
REMARK    3  A    between atoms: C_2  and  C_3 
REMARK    4  A    between atoms: C_6  and  C_4 
ROOT
ATOM      1  C   UNL d   1      32.259  22.928 -20.579  0.00  0.00     0.196 C 
ATOM      2  O   UNL d   1      31.733  23.468 -20.919  0.00  0.00    -0.287 OA
ENDROOT
BRANCH   1   3
ATOM      3  C   UNL d   1      32.538  23.053 -19.813  0.00  0.00     0.044 C 
BRANCH   3   4
ATOM      4  C   UNL d   1      32.249  23.446 -19.151  0.00  0.00     0.028 C 
BRANCH   4   5
ATOM      5  C   UNL d   1      32.497  23.519 -18.367  0.00  0.00     0.100 A 
ATOM      6  O   UNL d   1      33.241  23.697 -18.052  0.00  0.00    -0.305 OA
ATOM      7  C   UNL d   1      33.185  23.700 -17.231  0.00  0.00     0.123 A 
ATOM      8  C   UNL d   1      32.394  23.521 -17.031  0.00  0.00     0.029 A 
ATOM      9  C   UNL d   1      31.967  23.408 -17.726  0.00  0.00     0.027 A 
ENDBRANCH   4   5
ENDBRANCH   3   4
ENDBRANCH   1   3
BRANCH   1  10
ATOM     10  C   UNL d   1      32.498  22.267 -21.015  0.00  0.00     0.039 A 
ATOM     11  C   UNL d   1      33.009  22.346 -21.658  0.00  0.00     0.006 A 
ATOM     12  C   UNL d   1      33.240  21.678 -22.084  0.00  0.00     0.042 A 
ATOM     13  C   UNL d   1      32.959  20.931 -21.867  0.00  0.00     0.196 A 
ATOM     14  C   UNL d   1      32.443  20.856 -21.218  0.00  0.00     0.042 A 
ATOM     15  O   UNL d   1      33.189  20.263 -22.293  0.00  0.00    -0.287 OA
ATOM     16  C   UNL d   1      32.217  21.520 -20.798  0.00  0.00     0.006 A 
ENDBRANCH   1  10
TORSDOF 4
ENDMDL
MODEL 6
REMARK VINA RESULT:      -2.4      1.154      2.097
REMARK  4 active torsions:
REMARK  status: ('A' for Active; 'I' for Inactive)
REMARK    1  A    between atoms: C_3  and  C_1 
REMARK    2  A    between atoms: C_4  and  C_1 
REMARK    3  A    between atoms: C_2  and  C_3 
REMARK    4  A    between atoms: C_6  and  C_4 
ROOT
ATOM      1  C   UNL d   1      33.004  19.493 -22.932  0.00  0.00     0.196 C 
ATOM      2  O   UNL d   1      33.240  19.842 -23.644  0.00  0.00    -0.287 OA
ENDROOT
BRANCH   1   3
ATOM      3  C   UNL d   1      32.774  18.701 -22.920  0.00  0.00     0.044 C 
BRANCH   3   4
ATOM      4  C   UNL d   1      32.601  18.141 -23.497  0.00  0.00     0.028 C 
BRANCH   4   5
ATOM      5  C   UNL d   1      32.415  17.337 -23.486  0.00  0.00     0.100 A 
ATOM      6  O   UNL d   1      32.835  16.691 -23.185  0.00  0.00    -0.305 OA
ATOM      7  C   UNL d   1      32.398  16.008 -23.319  0.00  0.00     0.123 A 
ATOM      8  C   UNL d   1      31.694  16.230 -23.710  0.00  0.00     0.029 A 
ATOM      9  C   UNL d   1      31.700  17.047 -23.815  0.00  0.00     0.027 A 
ENDBRANCH   4   5
ENDBRANCH   3   4
ENDBRANCH   1   3
BRANCH   1  10
ATOM     10  C   UNL d   1      33.003  19.947 -22.241  0.00  0.00     0.039 A 
ATOM     11  C   UNL d   1      33.240  19.622 -21.521  0.00  0.00     0.006 A 
ATOM     12  C   UNL d   1      33.234  20.086 -20.839  0.00  0.00     0.042 A 
ATOM     13  C   UNL d   1      32.989  20.875 -20.877  0.00  0.00     0.196 A 
ATOM     14  C   UNL d   1      32.750  21.199 -21.606  0.00  0.00     0.042 A 
ATOM     15  O   UNL d   1      32.982  21.339 -20.195  0.00  0.00    -0.287 OA
ATOM     16  C   UNL d   1      32.758  20.736 -22.279  0.00  0.00     0.006 A 
ENDBRANCH   1  10
TORSDOF 4
ENDMDL
MODEL 7
REMARK VINA RESULT:      -2.3      0.711      4.038
REMARK  4 active torsions:
REMARK  status: ('A' for Active; 'I' for Inactive)
REMARK    1  A    between atoms: C_3  and  C_1 
REMARK    2  A    between atoms: C_4  and  C_1 
REMARK    3  A    between atoms: C_2  and  C_3 
REMARK    4  A    between atoms: C_6  and  C_4 
ROOT
ATOM      1  C   UNL d   1      33.139  20.257 -21.446  0.00  0.00     0.196 C 
ATOM      2  O   UNL d   1      33.241  19.844 -20.736  0.00  0.00    -0.287 OA
ENDROOT
BRANCH   1   3
ATOM      3  C   UNL d   1      33.025  21.074 -21.433  0.00  0.00     0.044 C 
BRANCH   3   4
ATOM      4  C   UNL d   1      32.723  21.606 -20.883  0.00  0.00     0.028 C 
BRANCH   4   5
ATOM      5  C   UNL d   1      32.433  22.378 -20.924  0.00  0.00     0.100 A 
ATOM      6  O   UNL d   1      31.786  22.689 -21.335  0.00  0.00    -0.305 OA
ATOM      7  C   UNL d   1      31.743  23.496 -21.184  0.00  0.00     0.123 A 
ATOM      8  C   UNL d   1      32.372  23.692 -20.671  0.00  0.00     0.029 A 
ATOM      9  C   UNL d   1      32.800  23.007 -20.508  0.00  0.00     0.027 A 
ENDBRANCH   4   5
ENDBRANCH   3   4
ENDBRANCH   1   3
BRANCH   1  10
ATOM     10  C   UNL d   1      33.152  19.841 -22.160  0.00  0.00     0.039 A 
ATOM     11  C   UNL d   1      33.092  19.018 -22.173  0.00  0.00     0.006 A 
ATOM     12  C   UNL d   1      33.107  18.616 -22.894  0.00  0.00     0.042 A 
ATOM     13  C   UNL d   1      33.181  19.038 -23.601  0.00  0.00     0.196 A 
ATOM     14  C   UNL d   1      33.241  19.868 -23.583  0.00  0.00     0.042 A 
ATOM     15  O   UNL d   1      33.196  18.636 -24.322  0.00  0.00    -0.287 OA
ATOM     16  C   UNL d   1      33.226  20.262 -22.868  0.00  0.00     0.006 A 
ENDBRANCH   1  10
TORSDOF 4
ENDMDL
MODEL 8
REMARK VINA RESULT:      -2.2      1.898      3.394
REMARK  4 active torsions:
REMARK  status: ('A' for Active; 'I' for Inactive)
REMARK    1  A    between atoms: C_3  and  C_1 
REMARK    2  A    between atoms: C_4  and  C_1 
REMARK    3  A    between atoms: C_2  and  C_3 
REMARK    4  A    between atoms: C_6  and  C_4 
ROOT
ATOM      1  C   UNL d   1      32.673  18.045 -23.709  0.00  0.00     0.196 C 
ATOM      2  O   UNL d   1      33.241  17.833 -24.271  0.00  0.00    -0.287 OA
ENDROOT
BRANCH   1   3
ATOM      3  C   UNL d   1      31.978  17.605 -23.641  0.00  0.00     0.044 C 
BRANCH   3   4
ATOM      4  C   UNL d   1      31.734  16.867 -23.910  0.00  0.00     0.028 C 
BRANCH   4   5
ATOM      5  C   UNL d   1      31.031  16.437 -23.863  0.00  0.00     0.100 A 
ATOM      6  O   UNL d   1      30.335  16.494 -24.307  0.00  0.00    -0.305 OA
ATOM      7  C   UNL d   1      29.801  15.932 -24.032  0.00  0.00     0.123 A 
ATOM      8  C   UNL d   1      30.170  15.518 -23.407  0.00  0.00     0.029 A 
ATOM      9  C   UNL d   1      30.926  15.825 -23.299  0.00  0.00     0.027 A 
ENDBRANCH   4   5
ENDBRANCH   3   4
ENDBRANCH   1   3
BRANCH   1  10
ATOM     10  C   UNL d   1      32.811  18.697 -23.220  0.00  0.00     0.039 A 
ATOM     11  C   UNL d   1      32.672  19.465 -23.488  0.00  0.00     0.006 A 
ATOM     12  C   UNL d   1      32.814  20.107 -22.989  0.00  0.00     0.042 A 
ATOM     13  C   UNL d   1      33.096  19.980 -22.222  0.00  0.00     0.196 A 
ATOM     14  C   UNL d   1      33.235  19.204 -21.956  0.00  0.00     0.042 A 
ATOM     15  O   UNL d   1      33.238  20.622 -21.724  0.00  0.00    -0.287 OA
ATOM     16  C   UNL d   1      33.093  18.571 -22.453  0.00  0.00     0.006 A 
ENDBRANCH   1  10
TORSDOF 4
ENDMDL
MODEL 9
REMARK VINA RESULT:      -2.1      1.169      1.468
REMARK  4 active torsions:
REMARK  status: ('A' for Active; 'I' for Inactive)
REMARK    1  A    between atoms: C_3  and  C_1 
REMARK    2  A    between atoms: C_4  and  C_1 
REMARK    3  A    between atoms: C_2  and  C_3 
REMARK    4  A    between atoms: C_6  and  C_4 
ROOT
ATOM      1  C   UNL d   1      33.029  21.628 -21.993  0.00  0.00     0.196 C 
ATOM      2  O   UNL d   1      33.106  22.085 -22.678  0.00  0.00    -0.287 OA
ENDROOT
BRANCH   1   3
ATOM      3  C   UNL d   1      33.000  20.805 -22.051  0.00  0.00     0.044 C 
BRANCH   3   4
ATOM      4  C   UNL d   1      33.054  20.267 -22.671  0.00  0.00     0.028 C 
BRANCH   4   5
ATOM      5  C   UNL d   1      33.005  19.446 -22.731  0.00  0.00     0.100 A 
ATOM      6  O   UNL d   1      33.237  18.853 -22.202  0.00  0.00    -0.305 OA
ATOM      7  C   UNL d   1      33.062  18.121 -22.535  0.00  0.00     0.123 A 
ATOM      8  C   UNL d   1      32.714  18.259 -23.282  0.00  0.00     0.029 A 
ATOM      9  C   UNL d   1      32.677  19.073 -23.407  0.00  0.00     0.027 A 
ENDBRANCH   4   5
ENDBRANCH   3   4
ENDBRANCH   1   3
BRANCH   1  10
ATOM     10  C   UNL d   1      32.983  22.004 -21.259  0.00  0.00     0.039 A 
ATOM     11  C   UNL d   1      33.217  21.617 -20.569  0.00  0.00     0.006 A 
ATOM     12  C   UNL d   1      33.165  22.005 -19.842  0.00  0.00     0.042 A 
ATOM     13  C   UNL d   1      32.878  22.780 -19.806  0.00  0.00     0.196 A 
ATOM     14  C   UNL d   1      32.643  23.166 -20.505  0.00  0.00     0.042 A 
ATOM     15  O   UNL d   1      32.826  23.167 -19.080  0.00  0.00    -0.287 OA
ATOM     16  C   UNL d   1      32.696  22.779 -21.222  0.00  0.00     0.006 A 
ENDBRANCH   1  10
TORSDOF 4
ENDMDL
