MODEL 1
REMARK VINA RESULT:      84.5      0.000      0.000
REMARK  2 active torsions:
REMARK  status: ('A' for Active; 'I' for Inactive)
REMARK    1  A    between atoms: C_3  and  C_1 
REMARK       I    between atoms: N_6  and  C_3 
REMARK    2  A    between atoms: C_9  and  N_7 
ROOT
ATOM      1  C   UNL d   1      60.175  49.172  50.891  0.00  0.00     0.270 C 
ATOM      2  N   UNL d   1      60.593  48.532  50.612  0.00  0.00    -0.269 N 
ATOM      3  N   UNL d   1      61.439  47.209  50.026  0.00  0.00    -0.286 N 
ATOM      4  O   UNL d   1      60.547  49.708  51.425  0.00  0.00    -0.266 OA
ATOM      5  C   UNL d   1      60.224  47.998  50.080  0.00  0.00     0.102 A 
ATOM      6  C   UNL d   1      61.384  48.388  50.838  0.00  0.00     0.102 A 
ATOM      7  C   UNL d   1      60.658  47.340  49.794  0.00  0.00     0.101 A 
ATOM      8  C   UNL d   1      61.809  47.743  50.558  0.00  0.00     0.101 A 
ENDROOT
BRANCH   1   9
ATOM      9  C   UNL d   1      59.379  49.306  50.656  0.00  0.00     0.120 A 
ATOM     10  C   UNL d   1      59.207  49.484  49.845  0.00  0.00     0.305 A 
ATOM     11  O   UNL d   1      58.431  49.614  49.619  0.00  0.00    -0.273 OA
ATOM     12  O   UNL d   1      59.834  49.525  49.282  0.00  0.00    -0.259 OA
ATOM     13  C   UNL d   1      57.814  49.575  50.161  0.00  0.00     0.103 A 
ATOM     14  C   UNL d   1      57.986  49.397  50.971  0.00  0.00     0.023 A 
ATOM     15  C   UNL d   1      57.031  49.706  49.936  0.00  0.00     0.025 A 
ATOM     16  C   UNL d   1      58.765  49.267  51.195  0.00  0.00     0.012 A 
ATOM     17  C   UNL d   1      57.365  49.359  51.512  0.00  0.00     0.002 A 
ATOM     18  C   UNL d   1      56.594  49.489  51.286  0.00  0.00     0.000 A 
ATOM     19  C   UNL d   1      56.422  49.667  50.476  0.00  0.00     0.002 A 
ENDBRANCH   1   9
BRANCH   3  20
ATOM     20  C   UNL d   1      61.857  46.562  49.741  0.00  0.00     0.148 A 
ATOM     21  N   UNL d   1      62.689  46.614  49.643  0.00  0.00    -0.227 NA
ATOM     22  C   UNL d   1      63.123  45.964  49.354  0.00  0.00     0.101 A 
ATOM     23  C   UNL d   1      62.716  45.265  49.167  0.00  0.00     0.021 A 
ATOM     24  C   UNL d   1      61.885  45.214  49.266  0.00  0.00     0.005 A 
ATOM     25  C   UNL d   1      61.467  45.861  49.551  0.00  0.00     0.037 A 
ENDBRANCH   3  20
TORSDOF 2
ENDMDL
MODEL 2
REMARK VINA RESULT:      87.0      1.352      4.765
REMARK  2 active torsions:
REMARK  status: ('A' for Active; 'I' for Inactive)
REMARK    1  A    between atoms: C_3  and  C_1 
REMARK       I    between atoms: N_6  and  C_3 
REMARK    2  A    between atoms: C_9  and  N_7 
ROOT
ATOM      1  C   UNL d   1      60.782  48.427  50.905  0.00  0.00     0.270 C 
ATOM      2  N   UNL d   1      60.005  48.640  50.783  0.00  0.00    -0.269 N 
ATOM      3  N   UNL d   1      58.406  49.065  50.520  0.00  0.00    -0.286 N 
ATOM      4  O   UNL d   1      61.253  48.869  51.446  0.00  0.00    -0.266 OA
ATOM      5  C   UNL d   1      59.537  48.200  50.244  0.00  0.00     0.102 A 
ATOM      6  C   UNL d   1      59.658  49.287  51.179  0.00  0.00     0.102 A 
ATOM      7  C   UNL d   1      58.737  48.423  50.122  0.00  0.00     0.101 A 
ATOM      8  C   UNL d   1      58.875  49.505  51.059  0.00  0.00     0.101 A 
ENDROOT
BRANCH   1   9
ATOM      9  C   UNL d   1      61.120  47.772  50.499  0.00  0.00     0.120 A 
ATOM     10  C   UNL d   1      61.731  47.906  49.927  0.00  0.00     0.305 A 
ATOM     11  O   UNL d   1      62.059  47.267  49.534  0.00  0.00    -0.273 OA
ATOM     12  O   UNL d   1      61.994  48.692  49.770  0.00  0.00    -0.259 OA
ATOM     13  C   UNL d   1      61.808  46.498  49.681  0.00  0.00     0.103 A 
ATOM     14  C   UNL d   1      61.198  46.365  50.252  0.00  0.00     0.023 A 
ATOM     15  C   UNL d   1      62.137  45.852  49.286  0.00  0.00     0.025 A 
ATOM     16  C   UNL d   1      60.871  47.007  50.646  0.00  0.00     0.012 A 
ATOM     17  C   UNL d   1      60.948  45.592  50.398  0.00  0.00     0.002 A 
ATOM     18  C   UNL d   1      61.275  44.958  50.006  0.00  0.00     0.000 A 
ATOM     19  C   UNL d   1      61.886  45.092  49.435  0.00  0.00     0.002 A 
ENDBRANCH   1   9
BRANCH   3  20
ATOM     20  C   UNL d   1      57.623  49.276  50.394  0.00  0.00     0.148 A 
ATOM     21  N   UNL d   1      57.094  49.322  51.044  0.00  0.00    -0.227 NA
ATOM     22  C   UNL d   1      56.297  49.535  50.928  0.00  0.00     0.101 A 
ATOM     23  C   UNL d   1      56.038  49.701  50.157  0.00  0.00     0.021 A 
ATOM     24  C   UNL d   1      56.567  49.655  49.508  0.00  0.00     0.005 A 
ATOM     25  C   UNL d   1      57.350  49.443  49.634  0.00  0.00     0.037 A 
ENDBRANCH   3  20
TORSDOF 2
ENDMDL
