MODEL 1
REMARK VINA RESULT:      -5.4      0.000      0.000
REMARK  4 active torsions:
REMARK  status: ('A' for Active; 'I' for Inactive)
REMARK    1  A    between atoms: N_5  and  C_1 
REMARK    2  A    between atoms: N_9  and  N_5 
REMARK    3  A    between atoms: C_7  and  C_8 
REMARK    4  A    between atoms: C_12  and  N_9 
ROOT
ATOM      1  N   UNL d   1     -41.877-122.392 -52.204  0.00  0.00    -0.146 NA
ENDROOT
BRANCH   1   2
ATOM      2  C   UNL d   1     -41.742-122.220 -51.358  0.00  0.00     0.122 A 
ATOM      3  C   UNL d   1     -41.401-121.550 -51.077  0.00  0.00     0.101 A 
ATOM      4  N   UNL d   1     -41.372-121.598 -50.243  0.00  0.00    -0.244 NA
ATOM      5  C   UNL d   1     -41.123-120.917 -51.518  0.00  0.00     0.022 C 
ATOM      6  C   UNL d   1     -41.700-122.304 -50.025  0.00  0.00     0.083 A 
ATOM      7  C   UNL d   1     -41.939-122.708 -50.723  0.00  0.00     0.039 A 
ATOM      8  C   UNL d   1     -41.834-122.674 -49.292  0.00  0.00     0.019 A 
ATOM      9  C   UNL d   1     -42.301-123.462 -50.681  0.00  0.00     0.003 A 
ATOM     10  C   UNL d   1     -42.427-123.817 -49.943  0.00  0.00     0.000 A 
ATOM     11  C   UNL d   1     -42.192-123.423 -49.234  0.00  0.00     0.002 A 
ENDBRANCH   1   2
BRANCH   1  12
ATOM     12  N   UNL d   1     -41.237-122.531 -52.713  0.00  0.00    -0.148 NA
BRANCH  12  13
ATOM     13  C   UNL d   1     -41.370-122.740 -53.496  0.00  0.00     0.103 A 
ATOM     14  C   UNL d   1     -41.710-122.224 -54.004  0.00  0.00     0.027 A 
ATOM     15  C   UNL d   1     -41.843-122.433 -54.787  0.00  0.00     0.066 A 
ATOM     16  C   UNL d   1     -41.629-123.165 -55.044  0.00  0.00     0.006 A 
ATOM     17  C   UNL d   1     -41.286-123.688 -54.534  0.00  0.00     0.002 A 
ATOM     18  C   UNL d   1     -41.159-123.474 -53.764  0.00  0.00     0.021 A 
BRANCH  15  19
ATOM     19  C   UNL d   1     -42.190-121.930 -55.342  0.00  0.00     0.211 C 
ATOM     20  O   UNL d   1     -41.716-121.368 -55.738  0.00  0.00    -0.644 OA
ATOM     21  O   UNL d   1     -43.008-121.980 -55.508  0.00  0.00    -0.644 OA
ENDBRANCH  15  19
ENDBRANCH  12  13
ENDBRANCH   1  12
TORSDOF 4
ENDMDL
MODEL 2
REMARK VINA RESULT:      -3.3      2.042      4.590
REMARK  4 active torsions:
REMARK  status: ('A' for Active; 'I' for Inactive)
REMARK    1  A    between atoms: N_5  and  C_1 
REMARK    2  A    between atoms: N_9  and  N_5 
REMARK    3  A    between atoms: C_7  and  C_8 
REMARK    4  A    between atoms: C_12  and  N_9 
ROOT
ATOM      1  N   UNL d   1     -41.939-122.307 -52.760  0.00  0.00    -0.146 NA
ENDROOT
BRANCH   1   2
ATOM      2  C   UNL d   1     -41.796-122.568 -53.582  0.00  0.00     0.122 A 
ATOM      3  C   UNL d   1     -41.427-123.251 -53.787  0.00  0.00     0.101 A 
ATOM      4  N   UNL d   1     -41.401-123.297 -54.621  0.00  0.00    -0.244 NA
ATOM      5  C   UNL d   1     -41.123-123.817 -53.278  0.00  0.00     0.022 C 
ATOM      6  C   UNL d   1     -41.758-122.634 -54.916  0.00  0.00     0.083 A 
ATOM      7  C   UNL d   1     -42.013-122.164 -54.268  0.00  0.00     0.039 A 
ATOM      8  C   UNL d   1     -41.907-122.357 -55.686  0.00  0.00     0.019 A 
ATOM      9  C   UNL d   1     -42.406-121.436 -54.392  0.00  0.00     0.003 A 
ATOM     10  C   UNL d   1     -42.547-121.172 -55.166  0.00  0.00     0.000 A 
ATOM     11  C   UNL d   1     -42.296-121.634 -55.827  0.00  0.00     0.002 A 
ENDBRANCH   1   2
BRANCH   1  12
ATOM     12  N   UNL d   1     -41.336-122.357 -52.192  0.00  0.00    -0.148 NA
BRANCH  12  13
ATOM     13  C   UNL d   1     -41.507-122.242 -51.398  0.00  0.00     0.103 A 
ATOM     14  C   UNL d   1     -41.941-122.779 -50.992  0.00  0.00     0.027 A 
ATOM     15  C   UNL d   1     -42.112-122.663 -50.197  0.00  0.00     0.066 A 
ATOM     16  C   UNL d   1     -41.840-122.003 -49.824  0.00  0.00     0.006 A 
ATOM     17  C   UNL d   1     -41.404-121.461 -50.230  0.00  0.00     0.002 A 
ATOM     18  C   UNL d   1     -41.240-121.582 -51.013  0.00  0.00     0.021 A 
BRANCH  15  19
ATOM     19  C   UNL d   1     -42.555-123.192 -49.743  0.00  0.00     0.211 C 
ATOM     20  O   UNL d   1     -43.377-123.256 -49.875  0.00  0.00    -0.644 OA
ATOM     21  O   UNL d   1     -42.186-123.661 -49.156  0.00  0.00    -0.644 OA
ENDBRANCH  15  19
ENDBRANCH  12  13
ENDBRANCH   1  12
TORSDOF 4
ENDMDL
