MODEL 1
REMARK VINA RESULT:      58.8      0.000      0.000
REMARK  5 active torsions:
REMARK  status: ('A' for Active; 'I' for Inactive)
REMARK    1  A    between atoms: C_3  and  C_1 
REMARK    2  A    between atoms: S_2  and  C_3 
REMARK    3  A    between atoms: C_7  and  S_2 
REMARK    4  A    between atoms: C_9  and  C_3 
REMARK    5  A    between atoms: N_8  and  C_4 
ROOT
ATOM      1  C   UNL d   1      45.915 -17.879  42.899  0.00  0.00     0.128 A 
ATOM      2  C   UNL d   1      45.990 -18.475  42.334  0.00  0.00     0.166 A 
ATOM      3  N   UNL d   1      46.041 -18.045  43.694  0.00  0.00    -0.240 NA
ATOM      4  N   UNL d   1      46.193 -19.244  42.570  0.00  0.00    -0.225 NA
ATOM      5  C   UNL d   1      46.242 -18.806  43.922  0.00  0.00     0.099 A 
ATOM      6  C   UNL d   1      46.317 -19.402  43.363  0.00  0.00     0.101 A 
ATOM      7  C   UNL d   1      46.520 -20.169  43.601  0.00  0.00     0.021 A 
ATOM      8  C   UNL d   1      46.368 -18.971  44.720  0.00  0.00     0.021 A 
ATOM      9  C   UNL d   1      46.568 -19.731  44.954  0.00  0.00     0.002 A 
ATOM     10  C   UNL d   1      46.644 -20.328  44.395  0.00  0.00     0.002 A 
ENDROOT
BRANCH   1  11
ATOM     11  C   UNL d   1      45.714 -17.115  42.669  0.00  0.00     0.129 C 
BRANCH  11  12
ATOM     12  S   UNL d   1      45.312 -16.593  43.270  0.00  0.00     0.213 S 
ATOM     13  O   UNL d   1      44.757 -17.176  43.065  0.00  0.00    -0.217 OA
ATOM     14  O   UNL d   1      44.475 -16.800  43.495  0.00  0.00    -0.217 OA
BRANCH  12  15
ATOM     15  C   UNL d   1      45.553 -15.918  43.693  0.00  0.00     0.088 A 
ATOM     16  C   UNL d   1      45.058 -15.260  43.736  0.00  0.00     0.011 A 
ATOM     17  C   UNL d   1      45.295 -14.586  44.157  0.00  0.00     0.001 A 
ATOM     18  C   UNL d   1      44.802 -13.928  44.201  0.00  0.00     0.000 C 
ATOM     19  C   UNL d   1      46.034 -14.580  44.533  0.00  0.00     0.000 A 
ATOM     20  C   UNL d   1      46.531 -15.245  44.487  0.00  0.00     0.001 A 
ATOM     21  C   UNL d   1      46.275 -13.917  44.951  0.00  0.00     0.000 C 
ATOM     22  C   UNL d   1      46.288 -15.913  44.067  0.00  0.00     0.011 A 
ENDBRANCH  12  15
ENDBRANCH  11  12
BRANCH  11  23
ATOM     23  C   UNL d   1      45.829 -16.715  41.914  0.00  0.00     0.135 C 
ATOM     24  N   UNL d   1      46.449 -16.113  41.704  0.00  0.00    -0.146 N 
ENDBRANCH  11  23
ENDBRANCH   1  11
BRANCH   2  25
ATOM     25  N   UNL d   1      45.861 -18.297  41.531  0.00  0.00    -0.288 N 
ATOM     26  C   UNL d   1      46.433 -18.048  40.989  0.00  0.00     0.082 A 
ATOM     27  C   UNL d   1      46.054 -17.935  40.250  0.00  0.00     0.021 A 
ATOM     28  C   UNL d   1      45.244 -18.117  40.344  0.00  0.00     0.021 A 
ATOM     29  C   UNL d   1      45.123 -18.343  41.141  0.00  0.00     0.082 A 
ENDBRANCH   2  25
TORSDOF 5
ENDMDL
MODEL 2
REMARK VINA RESULT:      61.1      1.361      3.892
REMARK  5 active torsions:
REMARK  status: ('A' for Active; 'I' for Inactive)
REMARK    1  A    between atoms: C_3  and  C_1 
REMARK    2  A    between atoms: S_2  and  C_3 
REMARK    3  A    between atoms: C_7  and  S_2 
REMARK    4  A    between atoms: C_9  and  C_3 
REMARK    5  A    between atoms: N_8  and  C_4 
ROOT
ATOM      1  C   UNL d   1      45.679 -18.175  43.405  0.00  0.00     0.128 A 
ATOM      2  C   UNL d   1      45.880 -18.327  44.190  0.00  0.00     0.166 A 
ATOM      3  N   UNL d   1      45.620 -17.401  43.137  0.00  0.00    -0.240 NA
ATOM      4  N   UNL d   1      46.021 -17.696  44.710  0.00  0.00    -0.225 NA
ATOM      5  C   UNL d   1      45.761 -16.781  43.653  0.00  0.00     0.099 A 
ATOM      6  C   UNL d   1      45.960 -16.928  44.436  0.00  0.00     0.101 A 
ATOM      7  C   UNL d   1      46.101 -16.295  44.952  0.00  0.00     0.021 A 
ATOM      8  C   UNL d   1      45.701 -16.004  43.382  0.00  0.00     0.021 A 
ATOM      9  C   UNL d   1      45.841 -15.380  43.895  0.00  0.00     0.002 A 
ATOM     10  C   UNL d   1      46.040 -15.526  44.677  0.00  0.00     0.002 A 
ENDROOT
BRANCH   1  11
ATOM     11  C   UNL d   1      45.539 -18.799  42.888  0.00  0.00     0.129 C 
BRANCH  11  12
ATOM     12  S   UNL d   1      45.876 -18.739  42.064  0.00  0.00     0.213 S 
ATOM     13  O   UNL d   1      46.406 -19.210  42.494  0.00  0.00    -0.217 OA
ATOM     14  O   UNL d   1      46.643 -19.164  41.905  0.00  0.00    -0.217 OA
BRANCH  12  15
ATOM     15  C   UNL d   1      45.624 -18.354  41.370  0.00  0.00     0.088 A 
ATOM     16  C   UNL d   1      44.840 -18.113  41.294  0.00  0.00     0.011 A 
ATOM     17  C   UNL d   1      44.585 -17.730  40.604  0.00  0.00     0.001 A 
ATOM     18  C   UNL d   1      43.802 -17.488  40.527  0.00  0.00     0.000 C 
ATOM     19  C   UNL d   1      45.127 -17.592  39.992  0.00  0.00     0.000 A 
ATOM     20  C   UNL d   1      45.918 -17.837  40.072  0.00  0.00     0.001 A 
ATOM     21  C   UNL d   1      44.883 -17.214  39.306  0.00  0.00     0.000 C 
ATOM     22  C   UNL d   1      46.164 -18.218  40.761  0.00  0.00     0.011 A 
ENDBRANCH  12  15
ENDBRANCH  11  12
BRANCH  11  23
ATOM     23  C   UNL d   1      45.103 -19.533  43.008  0.00  0.00     0.135 C 
ATOM     24  N   UNL d   1      45.243 -20.321  42.623  0.00  0.00    -0.146 N 
ENDBRANCH  11  23
ENDBRANCH   1  11
BRANCH   2  25
ATOM     25  N   UNL d   1      45.937 -19.115  44.454  0.00  0.00    -0.288 N 
ATOM     26  C   UNL d   1      46.623 -19.578  44.458  0.00  0.00     0.082 A 
ATOM     27  C   UNL d   1      46.421 -20.330  44.768  0.00  0.00     0.021 A 
ATOM     28  C   UNL d   1      45.607 -20.324  44.955  0.00  0.00     0.021 A 
ATOM     29  C   UNL d   1      45.305 -19.568  44.759  0.00  0.00     0.082 A 
ENDBRANCH   2  25
TORSDOF 5
ENDMDL
