MODEL 1
REMARK VINA RESULT:      -7.7      0.000      0.000
REMARK  7 active torsions:
REMARK  status: ('A' for Active; 'I' for Inactive)
REMARK    1  A    between atoms: C_19  and  N_5 
REMARK    2  A    between atoms: C_12  and  C_6 
REMARK       I    between atoms: N_20  and  C_12 
REMARK    3  A    between atoms: C_21  and  C_19 
REMARK    4  A    between atoms: C_26  and  N_20 
REMARK    5  A    between atoms: C_23  and  C_26 
REMARK    6  A    between atoms: C_27  and  C_23 
REMARK    7  A    between atoms: O_24  and  C_27 
ROOT
ATOM      1  C   UNL d   1      53.145  32.510  53.522  0.00  0.00     0.155 A 
ATOM      2  C   UNL d   1      52.433  32.278  53.176  0.00  0.00     0.091 A 
ATOM      3  N   UNL d   1      53.680  31.943  53.786  0.00  0.00    -0.210 NA
ATOM      4  N   UNL d   1      52.781  30.907  53.351  0.00  0.00    -0.258 N 
ATOM      5  N   UNL d   1      53.323  33.310  53.605  0.00  0.00    -0.274 N 
ATOM      6  C   UNL d   1      52.080  33.660  52.997  0.00  0.00     0.094 A 
ATOM      7  C   UNL d   1      52.245  31.475  53.087  0.00  0.00     0.269 A 
ATOM      8  C   UNL d   1      52.793  33.887  53.344  0.00  0.00     0.175 A 
ATOM      9  C   UNL d   1      53.504  31.138  53.703  0.00  0.00     0.152 A 
ATOM     10  C   UNL d   1      51.893  32.857  52.909  0.00  0.00     0.016 A 
ATOM     11  C   UNL d   1      52.604  30.103  53.269  0.00  0.00     0.084 A 
ATOM     12  C   UNL d   1      54.035  30.569  53.965  0.00  0.00     0.038 A 
ATOM     13  N   UNL d   1      52.972  34.693  53.428  0.00  0.00    -0.128 N 
ATOM     14  C   UNL d   1      53.139  29.536  53.533  0.00  0.00     0.018 A 
ATOM     15  C   UNL d   1      53.862  29.771  53.884  0.00  0.00     0.005 A 
ATOM     16  O   UNL d   1      51.532  31.251  52.740  0.00  0.00    -0.266 OA
ATOM     17  C   UNL d   1      52.972  28.730  53.454  0.00  0.00     0.002 C 
ENDROOT
BRANCH   6  18
ATOM     18  C   UNL d   1      51.549  34.229  52.735  0.00  0.00     0.282 C 
ATOM     19  O   UNL d   1      51.760  34.752  52.133  0.00  0.00    -0.265 OA
ATOM     20  N   UNL d   1      50.799  34.279  53.073  0.00  0.00    -0.206 NA
BRANCH  20  21
ATOM     21  C   UNL d   1      50.257  34.845  52.818  0.00  0.00     0.104 C 
BRANCH  21  22
ATOM     22  C   UNL d   1      49.532  34.938  53.196  0.00  0.00     0.047 C 
BRANCH  22  23
ATOM     23  C   UNL d   1      48.939  35.384  52.835  0.00  0.00     0.118 C 
BRANCH  23  24
ATOM     24  O   UNL d   1      48.408  35.824  53.292  0.00  0.00    -0.326 OA
ATOM     25  C   UNL d   1      47.748  36.176  52.944  0.00  0.00     0.181 C 
ENDBRANCH  23  24
ENDBRANCH  22  23
ENDBRANCH  21  22
ENDBRANCH  20  21
ENDBRANCH   6  18
BRANCH   5  26
ATOM     26  C   UNL d   1      54.034  33.542  53.952  0.00  0.00     0.083 C 
BRANCH  26  27
ATOM     27  C   UNL d   1      54.048  33.843  54.721  0.00  0.00     0.019 C 
ATOM     28  C   UNL d   1      54.768  33.970  55.106  0.00  0.00     0.002 C 
ENDBRANCH  26  27
ENDBRANCH   5  26
TORSDOF 7
ENDMDL
MODEL 2
REMARK VINA RESULT:      -7.1      1.240      2.898
REMARK  7 active torsions:
REMARK  status: ('A' for Active; 'I' for Inactive)
REMARK    1  A    between atoms: C_19  and  N_5 
REMARK    2  A    between atoms: C_12  and  C_6 
REMARK       I    between atoms: N_20  and  C_12 
REMARK    3  A    between atoms: C_21  and  C_19 
REMARK    4  A    between atoms: C_26  and  N_20 
REMARK    5  A    between atoms: C_23  and  C_26 
REMARK    6  A    between atoms: C_27  and  C_23 
REMARK    7  A    between atoms: O_24  and  C_27 
ROOT
ATOM      1  C   UNL d   1      52.568  33.134  53.735  0.00  0.00     0.155 A 
ATOM      2  C   UNL d   1      52.537  33.958  53.720  0.00  0.00     0.091 A 
ATOM      3  N   UNL d   1      53.192  32.751  54.112  0.00  0.00    -0.210 NA
ATOM      4  N   UNL d   1      53.753  34.030  54.459  0.00  0.00    -0.258 N 
ATOM      5  N   UNL d   1      51.975  32.692  53.372  0.00  0.00    -0.274 N 
ATOM      6  C   UNL d   1      51.309  33.889  52.975  0.00  0.00     0.094 A 
ATOM      7  C   UNL d   1      53.129  34.413  54.082  0.00  0.00     0.269 A 
ATOM      8  C   UNL d   1      51.345  33.065  52.992  0.00  0.00     0.175 A 
ATOM      9  C   UNL d   1      53.788  33.194  54.476  0.00  0.00     0.152 A 
ATOM     10  C   UNL d   1      51.902  34.344  53.337  0.00  0.00     0.016 A 
ATOM     11  C   UNL d   1      54.350  34.472  54.824  0.00  0.00     0.084 A 
ATOM     12  C   UNL d   1      54.413  32.816  54.853  0.00  0.00     0.038 A 
ATOM     13  N   UNL d   1      50.748  32.620  52.627  0.00  0.00    -0.128 N 
ATOM     14  C   UNL d   1      54.973  34.089  55.201  0.00  0.00     0.018 A 
ATOM     15  C   UNL d   1      55.005  33.253  55.215  0.00  0.00     0.005 A 
ATOM     16  O   UNL d   1      53.090  35.237  54.063  0.00  0.00    -0.266 OA
ATOM     17  C   UNL d   1      55.574  34.523  55.568  0.00  0.00     0.002 C 
ENDROOT
BRANCH   6  18
ATOM     18  C   UNL d   1      50.686  34.268  52.598  0.00  0.00     0.282 C 
ATOM     19  O   UNL d   1      50.666  34.323  51.775  0.00  0.00    -0.265 OA
ATOM     20  N   UNL d   1      50.074  34.597  53.042  0.00  0.00    -0.206 NA
BRANCH  20  21
ATOM     21  C   UNL d   1      49.443  34.980  52.675  0.00  0.00     0.104 C 
BRANCH  21  22
ATOM     22  C   UNL d   1      48.898  35.412  53.113  0.00  0.00     0.047 C 
BRANCH  22  23
ATOM     23  C   UNL d   1      48.249  35.753  52.734  0.00  0.00     0.118 C 
BRANCH  23  24
ATOM     24  O   UNL d   1      47.792  36.327  53.116  0.00  0.00    -0.326 OA
ATOM     25  C   UNL d   1      47.056  36.545  52.815  0.00  0.00     0.181 C 
ENDBRANCH  23  24
ENDBRANCH  22  23
ENDBRANCH  21  22
ENDBRANCH  20  21
ENDBRANCH   6  18
BRANCH   5  26
ATOM     26  C   UNL d   1      52.006  31.867  53.387  0.00  0.00     0.083 C 
BRANCH  26  27
ATOM     27  C   UNL d   1      52.354  31.449  52.765  0.00  0.00     0.019 C 
ATOM     28  C   UNL d   1      52.474  30.634  52.826  0.00  0.00     0.002 C 
ENDBRANCH  26  27
ENDBRANCH   5  26
TORSDOF 7
ENDMDL
MODEL 3
REMARK VINA RESULT:      -5.5      1.306      4.748
REMARK  7 active torsions:
REMARK  status: ('A' for Active; 'I' for Inactive)
REMARK    1  A    between atoms: C_19  and  N_5 
REMARK    2  A    between atoms: C_12  and  C_6 
REMARK       I    between atoms: N_20  and  C_12 
REMARK    3  A    between atoms: C_21  and  C_19 
REMARK    4  A    between atoms: C_26  and  N_20 
REMARK    5  A    between atoms: C_23  and  C_26 
REMARK    6  A    between atoms: C_27  and  C_23 
REMARK    7  A    between atoms: O_24  and  C_27 
ROOT
ATOM      1  C   UNL d   1      52.808  33.223  53.541  0.00  0.00     0.155 A 
ATOM      2  C   UNL d   1      52.291  32.651  53.246  0.00  0.00     0.091 A 
ATOM      3  N   UNL d   1      52.559  34.004  53.618  0.00  0.00    -0.210 NA
ATOM      4  N   UNL d   1      51.268  33.633  53.101  0.00  0.00    -0.258 N 
ATOM      5  N   UNL d   1      53.575  33.013  53.758  0.00  0.00    -0.274 N 
ATOM      6  C   UNL d   1      53.321  31.658  53.391  0.00  0.00     0.094 A 
ATOM      7  C   UNL d   1      51.518  32.851  53.024  0.00  0.00     0.269 A 
ATOM      8  C   UNL d   1      53.834  32.233  53.685  0.00  0.00     0.175 A 
ATOM      9  C   UNL d   1      51.790  34.216  53.400  0.00  0.00     0.152 A 
ATOM     10  C   UNL d   1      52.547  31.859  53.169  0.00  0.00     0.016 A 
ATOM     11  C   UNL d   1      50.499  33.845  52.883  0.00  0.00     0.084 A 
ATOM     12  C   UNL d   1      51.538  34.994  53.475  0.00  0.00     0.038 A 
ATOM     13  N   UNL d   1      54.606  32.023  53.904  0.00  0.00    -0.128 N 
ATOM     14  C   UNL d   1      50.250  34.626  52.961  0.00  0.00     0.018 A 
ATOM     15  C   UNL d   1      50.775  35.206  53.259  0.00  0.00     0.005 A 
ATOM     16  O   UNL d   1      51.006  32.274  52.731  0.00  0.00    -0.266 OA
ATOM     17  C   UNL d   1      49.484  34.847  52.745  0.00  0.00     0.002 C 
ENDROOT
BRANCH   6  18
ATOM     18  C   UNL d   1      53.572  30.880  53.315  0.00  0.00     0.282 C 
ATOM     19  O   UNL d   1      54.138  30.676  52.750  0.00  0.00    -0.265 OA
ATOM     20  N   UNL d   1      53.259  30.296  53.805  0.00  0.00    -0.206 NA
BRANCH  20  21
ATOM     21  C   UNL d   1      53.503  29.511  53.738  0.00  0.00     0.104 C 
BRANCH  21  22
ATOM     22  C   UNL d   1      53.167  28.923  54.204  0.00  0.00     0.047 C 
BRANCH  22  23
ATOM     23  C   UNL d   1      53.603  28.599  54.826  0.00  0.00     0.118 C 
BRANCH  23  24
ATOM     24  O   UNL d   1      53.221  28.197  55.441  0.00  0.00    -0.326 OA
ATOM     25  C   UNL d   1      53.236  28.498  56.209  0.00  0.00     0.181 C 
ENDBRANCH  23  24
ENDBRANCH  22  23
ENDBRANCH  21  22
ENDBRANCH  20  21
ENDBRANCH   6  18
BRANCH   5  26
ATOM     26  C   UNL d   1      54.091  33.585  54.053  0.00  0.00     0.083 C 
BRANCH  26  27
ATOM     27  C   UNL d   1      54.442  33.491  54.795  0.00  0.00     0.019 C 
ATOM     28  C   UNL d   1      54.952  34.070  55.091  0.00  0.00     0.002 C 
ENDBRANCH  26  27
ENDBRANCH   5  26
TORSDOF 7
ENDMDL
