MODEL 1
REMARK VINA RESULT:      50.1      0.000      0.000
REMARK  7 active torsions:
REMARK  status: ('A' for Active; 'I' for Inactive)
REMARK    1  A    between atoms: C_3  and  N_1 
REMARK       I    between atoms: C_2  and  N_8 
REMARK    2  A    between atoms: O_16  and  C_2 
REMARK    3  A    between atoms: C_7  and  C_5 
REMARK    4  A    between atoms: C_12  and  C_7 
REMARK    5  A    between atoms: N_8  and  C_14 
REMARK    6  A    between atoms: S_11  and  C_12 
REMARK    7  A    between atoms: C_15  and  S_11 
ROOT
ATOM      1  S   UNL d   1     -49.373  27.727  33.670  0.00  0.00    -0.083 SA
ENDROOT
BRANCH   1   2
ATOM      2  C   UNL d   1     -49.210  28.076  34.395  0.00  0.00     0.077 C 
BRANCH   2   3
ATOM      3  C   UNL d   1     -48.917  28.847  34.426  0.00  0.00     0.202 C 
ATOM      4  O   UNL d   1     -49.318  29.454  34.045  0.00  0.00    -0.286 OA
BRANCH   3   5
ATOM      5  C   UNL d   1     -48.221  29.006  34.840  0.00  0.00     0.041 A 
ATOM      6  C   UNL d   1     -48.076  29.760  35.123  0.00  0.00     0.027 A 
ATOM      7  C   UNL d   1     -47.380  29.919  35.536  0.00  0.00     0.127 A 
ATOM      8  C   UNL d   1     -46.829  29.313  35.664  0.00  0.00     0.024 A 
ATOM      9  C   UNL d   1     -46.978  28.555  35.378  0.00  0.00     0.002 A 
ATOM     10  C   UNL d   1     -47.669  28.400  34.968  0.00  0.00     0.003 A 
BRANCH   7  11
ATOM     11  N   UNL d   1     -47.230  30.678  35.823  0.00  0.00    -0.114 N 
ATOM     12  O   UNL d   1     -46.953  30.856  36.582  0.00  0.00    -0.532 OA
ATOM     13  O   UNL d   1     -47.340  31.356  35.385  0.00  0.00    -0.532 OA
ENDBRANCH   7  11
ENDBRANCH   3   5
ENDBRANCH   2   3
ENDBRANCH   1   2
BRANCH   1  14
ATOM     14  C   UNL d   1     -49.956  27.142  33.614  0.00  0.00     0.030 A 
ATOM     15  C   UNL d   1     -49.782  26.337  33.768  0.00  0.00     0.008 A 
ATOM     16  C   UNL d   1     -50.363  25.755  33.712  0.00  0.00     0.020 A 
ATOM     17  C   UNL d   1     -51.133  25.963  33.500  0.00  0.00     0.087 A 
ATOM     18  C   UNL d   1     -51.322  26.746  33.345  0.00  0.00     0.020 A 
ATOM     19  C   UNL d   1     -50.740  27.329  33.401  0.00  0.00     0.008 A 
BRANCH  17  20
ATOM     20  N   UNL d   1     -51.717  25.377  33.443  0.00  0.00    -0.186 NA
ATOM     21  C   UNL d   1     -51.503  24.589  33.364  0.00  0.00     0.388 C 
ATOM     22  O   UNL d   1     -50.705  24.377  33.341  0.00  0.00    -0.236 OA
BRANCH  21  23
ATOM     23  O   UNL d   1     -52.084  24.006  33.308  0.00  0.00    -0.281 OA
ATOM     24  C   UNL d   1     -51.995  23.297  33.719  0.00  0.00     0.186 C 
ENDBRANCH  21  23
ENDBRANCH  17  20
ENDBRANCH   1  14
TORSDOF 7
ENDMDL
MODEL 2
REMARK VINA RESULT:      51.8      1.354      6.016
REMARK  7 active torsions:
REMARK  status: ('A' for Active; 'I' for Inactive)
REMARK    1  A    between atoms: C_3  and  N_1 
REMARK       I    between atoms: C_2  and  N_8 
REMARK    2  A    between atoms: O_16  and  C_2 
REMARK    3  A    between atoms: C_7  and  C_5 
REMARK    4  A    between atoms: C_12  and  C_7 
REMARK    5  A    between atoms: N_8  and  C_14 
REMARK    6  A    between atoms: S_11  and  C_12 
REMARK    7  A    between atoms: C_15  and  S_11 
ROOT
ATOM      1  S   UNL d   1     -48.618  28.562  35.042  0.00  0.00    -0.083 SA
ENDROOT
BRANCH   1   2
ATOM      2  C   UNL d   1     -49.209  28.375  34.504  0.00  0.00     0.077 C 
BRANCH   2   3
ATOM      3  C   UNL d   1     -49.186  27.657  34.098  0.00  0.00     0.202 C 
ATOM      4  O   UNL d   1     -48.466  27.287  33.957  0.00  0.00    -0.286 OA
BRANCH   3   5
ATOM      5  C   UNL d   1     -49.887  27.311  33.834  0.00  0.00     0.041 A 
ATOM      6  C   UNL d   1     -49.951  26.496  33.790  0.00  0.00     0.027 A 
ATOM      7  C   UNL d   1     -50.652  26.151  33.526  0.00  0.00     0.127 A 
ATOM      8  C   UNL d   1     -51.291  26.631  33.306  0.00  0.00     0.024 A 
ATOM      9  C   UNL d   1     -51.223  27.452  33.351  0.00  0.00     0.002 A 
ATOM     10  C   UNL d   1     -50.526  27.791  33.614  0.00  0.00     0.003 A 
BRANCH   7  11
ATOM     11  N   UNL d   1     -50.720  25.330  33.480  0.00  0.00    -0.114 N 
ATOM     12  O   UNL d   1     -50.093  24.805  33.361  0.00  0.00    -0.532 OA
ATOM     13  O   UNL d   1     -51.427  24.931  33.550  0.00  0.00    -0.532 OA
ENDBRANCH   7  11
ENDBRANCH   3   5
ENDBRANCH   2   3
ENDBRANCH   1   2
BRANCH   1  14
ATOM     14  C   UNL d   1     -48.324  29.335  35.084  0.00  0.00     0.030 A 
ATOM     15  C   UNL d   1     -48.472  29.889  34.474  0.00  0.00     0.008 A 
ATOM     16  C   UNL d   1     -48.179  30.659  34.515  0.00  0.00     0.020 A 
ATOM     17  C   UNL d   1     -47.731  30.893  35.166  0.00  0.00     0.087 A 
ATOM     18  C   UNL d   1     -47.576  30.363  35.773  0.00  0.00     0.020 A 
ATOM     19  C   UNL d   1     -47.869  29.593  35.732  0.00  0.00     0.008 A 
BRANCH  17  20
ATOM     20  N   UNL d   1     -47.436  31.667  35.208  0.00  0.00    -0.186 NA
ATOM     21  C   UNL d   1     -47.564  32.189  34.587  0.00  0.00     0.388 C 
ATOM     22  O   UNL d   1     -47.987  31.945  33.921  0.00  0.00    -0.236 OA
BRANCH  21  23
ATOM     23  O   UNL d   1     -47.271  32.960  34.628  0.00  0.00    -0.281 OA
ATOM     24  C   UNL d   1     -46.973  33.321  33.949  0.00  0.00     0.186 C 
ENDBRANCH  21  23
ENDBRANCH  17  20
ENDBRANCH   1  14
TORSDOF 7
ENDMDL
