MODEL 1
REMARK VINA RESULT:      60.4      0.000      0.000
REMARK  4 active torsions:
REMARK  status: ('A' for Active; 'I' for Inactive)
REMARK    1  A    between atoms: S_13  and  C_7 
REMARK       I    between atoms: N_10  and  C_12 
REMARK    2  A    between atoms: C_25  and  C_11 
REMARK    3  A    between atoms: C_12  and  C_16 
REMARK    4  A    between atoms: C_16  and  S_13 
ROOT
ATOM      1  N   UNL d   1      15.082  15.910  -1.361  0.00  0.00    -0.224 N 
ATOM      2  N   UNL d   1      15.797  14.955  -0.559  0.00  0.00    -0.241 N 
ATOM      3  C   UNL d   1      15.684  15.733  -0.811  0.00  0.00     0.343 A 
ATOM      4  C   UNL d   1      15.308  14.356  -0.857  0.00  0.00     0.160 A 
ATOM      5  C   UNL d   1      14.598  15.309  -1.654  0.00  0.00     0.273 A 
ATOM      6  C   UNL d   1      14.712  14.532  -1.402  0.00  0.00     0.115 A 
ATOM      7  C   UNL d   1      14.228  13.931  -1.695  0.00  0.00     0.120 A 
ATOM      8  N   UNL d   1      15.419  13.571  -0.606  0.00  0.00    -0.209 NA
ATOM      9  N   UNL d   1      14.338  13.154  -1.446  0.00  0.00    -0.220 NA
ATOM     10  C   UNL d   1      14.936  12.969  -0.898  0.00  0.00     0.165 A 
ATOM     11  O   UNL d   1      16.168  16.338  -0.518  0.00  0.00    -0.245 OA
ATOM     12  O   UNL d   1      14.003  15.489  -2.198  0.00  0.00    -0.266 OA
ATOM     13  C   UNL d   1      14.975  16.686  -1.608  0.00  0.00     0.107 C 
ATOM     14  C   UNL d   1      16.394  14.779  -0.014  0.00  0.00     0.105 C 
ENDROOT
BRANCH   7  15
ATOM     15  S   UNL d   1      13.633  14.111  -2.239  0.00  0.00    -0.062 SA
BRANCH  15  16
ATOM     16  C   UNL d   1      13.445  13.574  -2.841  0.00  0.00     0.098 C 
BRANCH  16  17
ATOM     17  C   UNL d   1      13.260  13.846  -3.596  0.00  0.00     0.271 C 
ATOM     18  N   UNL d   1      13.267  13.332  -4.237  0.00  0.00    -0.272 N 
ATOM     19  C   UNL d   1      13.460  12.554  -4.118  0.00  0.00     0.083 A 
ATOM     20  C   UNL d   1      13.082  13.600  -4.992  0.00  0.00     0.083 A 
ATOM     21  C   UNL d   1      13.470  12.026  -4.764  0.00  0.00     0.019 A 
ATOM     22  C   UNL d   1      13.283  12.297  -5.525  0.00  0.00     0.003 A 
ATOM     23  C   UNL d   1      13.088  13.094  -5.633  0.00  0.00     0.019 A 
ATOM     24  C   UNL d   1      13.293  11.779  -6.159  0.00  0.00     0.000 C 
ATOM     25  O   UNL d   1      13.062  14.649  -3.714  0.00  0.00    -0.266 OA
ENDBRANCH  16  17
ENDBRANCH  15  16
ENDBRANCH   7  15
BRANCH  10  26
ATOM     26  C   UNL d   1      15.045  12.188  -0.649  0.00  0.00     0.039 C 
ATOM     27  C   UNL d   1      15.640  12.003  -0.108  0.00  0.00     0.003 C 
ENDBRANCH  10  26
TORSDOF 4
ENDMDL
MODEL 2
REMARK VINA RESULT:      62.5      1.986      3.209
REMARK  4 active torsions:
REMARK  status: ('A' for Active; 'I' for Inactive)
REMARK    1  A    between atoms: S_13  and  C_7 
REMARK       I    between atoms: N_10  and  C_12 
REMARK    2  A    between atoms: C_25  and  C_11 
REMARK    3  A    between atoms: C_12  and  C_16 
REMARK    4  A    between atoms: C_16  and  S_13 
ROOT
ATOM      1  N   UNL d   1      14.934  13.954  -1.061  0.00  0.00    -0.224 N 
ATOM      2  N   UNL d   1      14.615  12.568  -1.268  0.00  0.00    -0.241 N 
ATOM      3  C   UNL d   1      14.956  13.160  -0.805  0.00  0.00     0.343 A 
ATOM      4  C   UNL d   1      14.252  12.769  -1.985  0.00  0.00     0.160 A 
ATOM      5  C   UNL d   1      14.571  14.149  -1.776  0.00  0.00     0.273 A 
ATOM      6  C   UNL d   1      14.230  13.556  -2.238  0.00  0.00     0.115 A 
ATOM      7  C   UNL d   1      13.867  13.751  -2.953  0.00  0.00     0.120 A 
ATOM      8  N   UNL d   1      13.907  12.175  -2.454  0.00  0.00    -0.209 NA
ATOM      9  N   UNL d   1      13.526  13.163  -3.416  0.00  0.00    -0.220 NA
ATOM     10  C   UNL d   1      13.544  12.369  -3.168  0.00  0.00     0.165 A 
ATOM     11  O   UNL d   1      15.321  12.967  -0.087  0.00  0.00    -0.245 OA
ATOM     12  O   UNL d   1      14.551  14.936  -2.025  0.00  0.00    -0.266 OA
ATOM     13  C   UNL d   1      15.275  14.539  -0.596  0.00  0.00     0.107 C 
ATOM     14  C   UNL d   1      14.637  11.780  -1.015  0.00  0.00     0.105 C 
ENDROOT
BRANCH   7  15
ATOM     15  S   UNL d   1      13.847  14.539  -3.202  0.00  0.00    -0.062 SA
BRANCH  15  16
ATOM     16  C   UNL d   1      14.163  14.749  -3.937  0.00  0.00     0.098 C 
BRANCH  16  17
ATOM     17  C   UNL d   1      13.813  15.347  -4.384  0.00  0.00     0.271 C 
ATOM     18  N   UNL d   1      14.248  16.007  -4.607  0.00  0.00    -0.272 N 
ATOM     19  C   UNL d   1      15.024  16.065  -4.383  0.00  0.00     0.083 A 
ATOM     20  C   UNL d   1      13.901  16.605  -5.053  0.00  0.00     0.083 A 
ATOM     21  C   UNL d   1      15.471  16.733  -4.607  0.00  0.00     0.019 A 
ATOM     22  C   UNL d   1      15.121  17.336  -5.056  0.00  0.00     0.003 A 
ATOM     23  C   UNL d   1      14.328  17.265  -5.278  0.00  0.00     0.019 A 
ATOM     24  C   UNL d   1      15.560  17.992  -5.275  0.00  0.00     0.000 C 
ATOM     25  O   UNL d   1      13.013  15.282  -4.612  0.00  0.00    -0.266 OA
ENDBRANCH  16  17
ENDBRANCH  15  16
ENDBRANCH   7  15
BRANCH  10  26
ATOM     26  C   UNL d   1      13.200  11.780  -3.636  0.00  0.00     0.039 C 
ATOM     27  C   UNL d   1      13.062  11.913  -4.439  0.00  0.00     0.003 C 
ENDBRANCH  10  26
TORSDOF 4
ENDMDL
