MODEL 1
REMARK VINA RESULT:      -8.9      0.000      0.000
REMARK  3 active torsions:
REMARK  status: ('A' for Active; 'I' for Inactive)
REMARK    1  A    between atoms: C_7  and  N_1 
REMARK    2  A    between atoms: C_2  and  C_5 
REMARK    3  A    between atoms: N_3  and  C_2 
REMARK       I    between atoms: C_6  and  N_4 
ROOT
ATOM      1  C   UNL d   1      53.884  32.889  53.353  0.00  0.00     0.120 C 
ATOM      2  S   UNL d   1      54.662  33.062  53.139  0.00  0.00    -0.059 SA
ENDROOT
BRANCH   1   3
ATOM      3  C   UNL d   1      53.337  33.507  53.461  0.00  0.00     0.028 A 
ATOM      4  C   UNL d   1      53.446  34.051  54.075  0.00  0.00     0.026 A 
ATOM      5  C   UNL d   1      52.905  34.664  54.184  0.00  0.00     0.127 A 
ATOM      6  C   UNL d   1      52.256  34.735  53.680  0.00  0.00     0.024 A 
ATOM      7  C   UNL d   1      52.147  34.191  53.066  0.00  0.00     0.002 A 
ATOM      8  C   UNL d   1      52.687  33.577  52.956  0.00  0.00     0.002 A 
BRANCH   5   9
ATOM      9  N   UNL d   1      53.010  35.210  54.796  0.00  0.00    -0.114 N 
ATOM     10  O   UNL d   1      53.185  34.960  55.564  0.00  0.00    -0.532 OA
ATOM     11  O   UNL d   1      52.936  36.014  54.627  0.00  0.00    -0.532 OA
ENDBRANCH   5   9
ENDBRANCH   1   3
BRANCH   1  12
ATOM     12  N   UNL d   1      53.648  32.105  53.461  0.00  0.00    -0.293 N 
ATOM     13  C   UNL d   1      53.855  31.703  54.155  0.00  0.00     0.100 A 
ATOM     14  C   UNL d   1      53.620  30.919  54.263  0.00  0.00     0.102 A 
ATOM     15  N   UNL d   1      53.178  30.535  53.678  0.00  0.00    -0.269 N 
ATOM     16  C   UNL d   1      52.972  30.937  52.984  0.00  0.00     0.102 A 
ATOM     17  C   UNL d   1      52.944  29.751  53.786  0.00  0.00     0.265 C 
ATOM     18  C   UNL d   1      53.207  31.721  52.876  0.00  0.00     0.100 A 
ATOM     19  O   UNL d   1      52.502  29.367  53.202  0.00  0.00    -0.267 OA
ATOM     20  C   UNL d   1      53.148  29.350  54.475  0.00  0.00     0.066 C 
ENDBRANCH   1  12
TORSDOF 3
ENDMDL
MODEL 2
REMARK VINA RESULT:      -8.3      0.948      4.122
REMARK  3 active torsions:
REMARK  status: ('A' for Active; 'I' for Inactive)
REMARK    1  A    between atoms: C_7  and  N_1 
REMARK    2  A    between atoms: C_2  and  C_5 
REMARK    3  A    between atoms: N_3  and  C_2 
REMARK       I    between atoms: C_6  and  N_4 
ROOT
ATOM      1  C   UNL d   1      54.066  32.069  53.451  0.00  0.00     0.120 C 
ATOM      2  S   UNL d   1      54.824  32.002  53.131  0.00  0.00    -0.059 SA
ENDROOT
BRANCH   1   3
ATOM      3  C   UNL d   1      53.545  31.420  53.423  0.00  0.00     0.028 A 
ATOM      4  C   UNL d   1      53.653  30.784  53.940  0.00  0.00     0.026 A 
ATOM      5  C   UNL d   1      53.139  30.139  53.914  0.00  0.00     0.127 A 
ATOM      6  C   UNL d   1      52.518  30.130  53.372  0.00  0.00     0.024 A 
ATOM      7  C   UNL d   1      52.409  30.767  52.855  0.00  0.00     0.002 A 
ATOM      8  C   UNL d   1      52.923  31.412  52.880  0.00  0.00     0.002 A 
BRANCH   5   9
ATOM      9  N   UNL d   1      53.243  29.500  54.429  0.00  0.00    -0.114 N 
ATOM     10  O   UNL d   1      53.181  29.599  55.247  0.00  0.00    -0.532 OA
ATOM     11  O   UNL d   1      53.412  28.758  54.111  0.00  0.00    -0.532 OA
ENDBRANCH   5   9
ENDBRANCH   1   3
BRANCH   1  12
ATOM     12  N   UNL d   1      53.824  32.778  53.797  0.00  0.00    -0.293 N 
ATOM     13  C   UNL d   1      53.409  33.338  53.347  0.00  0.00     0.100 A 
ATOM     14  C   UNL d   1      53.168  34.047  53.694  0.00  0.00     0.102 A 
ATOM     15  N   UNL d   1      53.338  34.200  54.488  0.00  0.00    -0.269 N 
ATOM     16  C   UNL d   1      53.753  33.640  54.937  0.00  0.00     0.102 A 
ATOM     17  C   UNL d   1      53.096  34.909  54.833  0.00  0.00     0.265 C 
ATOM     18  C   UNL d   1      53.995  32.931  54.592  0.00  0.00     0.100 A 
ATOM     19  O   UNL d   1      53.267  35.062  55.628  0.00  0.00    -0.267 OA
ATOM     20  C   UNL d   1      52.685  35.466  54.389  0.00  0.00     0.066 C 
ENDBRANCH   1  12
TORSDOF 3
ENDMDL
MODEL 3
REMARK VINA RESULT:      -8.1      2.103      3.236
REMARK  3 active torsions:
REMARK  status: ('A' for Active; 'I' for Inactive)
REMARK    1  A    between atoms: C_7  and  N_1 
REMARK    2  A    between atoms: C_2  and  C_5 
REMARK    3  A    between atoms: N_3  and  C_2 
REMARK       I    between atoms: C_6  and  N_4 
ROOT
ATOM      1  C   UNL d   1      52.951  32.336  53.395  0.00  0.00     0.120 C 
ATOM      2  S   UNL d   1      52.853  31.516  53.386  0.00  0.00    -0.059 SA
ENDROOT
BRANCH   1   3
ATOM      3  C   UNL d   1      53.677  32.664  53.638  0.00  0.00     0.028 A 
ATOM      4  C   UNL d   1      53.730  33.047  54.369  0.00  0.00     0.026 A 
ATOM      5  C   UNL d   1      54.448  33.373  54.613  0.00  0.00     0.127 A 
ATOM      6  C   UNL d   1      55.112  33.316  54.127  0.00  0.00     0.024 A 
ATOM      7  C   UNL d   1      55.058  32.932  53.397  0.00  0.00     0.002 A 
ATOM      8  C   UNL d   1      54.341  32.606  53.152  0.00  0.00     0.002 A 
BRANCH   5   9
ATOM      9  N   UNL d   1      54.506  33.757  55.343  0.00  0.00    -0.114 N 
ATOM     10  O   UNL d   1      54.241  34.535  55.437  0.00  0.00    -0.532 OA
ATOM     11  O   UNL d   1      54.836  33.350  55.980  0.00  0.00    -0.532 OA
ENDBRANCH   5   9
ENDBRANCH   1   3
BRANCH   1  12
ATOM     12  N   UNL d   1      52.332  32.830  53.163  0.00  0.00    -0.293 N 
ATOM     13  C   UNL d   1      51.704  32.977  53.683  0.00  0.00     0.100 A 
ATOM     14  C   UNL d   1      51.084  33.471  53.451  0.00  0.00     0.102 A 
ATOM     15  N   UNL d   1      51.090  33.818  52.701  0.00  0.00    -0.269 N 
ATOM     16  C   UNL d   1      51.718  33.671  52.182  0.00  0.00     0.102 A 
ATOM     17  C   UNL d   1      50.470  34.312  52.470  0.00  0.00     0.265 C 
ATOM     18  C   UNL d   1      52.337  33.178  52.413  0.00  0.00     0.100 A 
ATOM     19  O   UNL d   1      50.475  34.659  51.719  0.00  0.00    -0.267 OA
ATOM     20  C   UNL d   1      49.845  34.459  52.984  0.00  0.00     0.066 C 
ENDBRANCH   1  12
TORSDOF 3
ENDMDL
MODEL 4
REMARK VINA RESULT:      -7.8      1.924      3.897
REMARK  3 active torsions:
REMARK  status: ('A' for Active; 'I' for Inactive)
REMARK    1  A    between atoms: C_7  and  N_1 
REMARK    2  A    between atoms: C_2  and  C_5 
REMARK    3  A    between atoms: N_3  and  C_2 
REMARK       I    between atoms: C_6  and  N_4 
ROOT
ATOM      1  C   UNL d   1      52.907  33.656  53.930  0.00  0.00     0.120 C 
ATOM      2  S   UNL d   1      53.068  34.118  54.595  0.00  0.00    -0.059 SA
ENDROOT
BRANCH   1   3
ATOM      3  C   UNL d   1      53.407  33.019  53.737  0.00  0.00     0.028 A 
ATOM      4  C   UNL d   1      53.110  32.247  53.742  0.00  0.00     0.026 A 
ATOM      5  C   UNL d   1      53.604  31.614  53.551  0.00  0.00     0.127 A 
ATOM      6  C   UNL d   1      54.393  31.752  53.356  0.00  0.00     0.024 A 
ATOM      7  C   UNL d   1      54.690  32.525  53.351  0.00  0.00     0.002 A 
ATOM      8  C   UNL d   1      54.197  33.158  53.542  0.00  0.00     0.002 A 
BRANCH   5   9
ATOM      9  N   UNL d   1      53.312  30.841  53.554  0.00  0.00    -0.114 N 
ATOM     10  O   UNL d   1      53.419  30.348  54.209  0.00  0.00    -0.532 OA
ATOM     11  O   UNL d   1      52.909  30.566  52.889  0.00  0.00    -0.532 OA
ENDBRANCH   5   9
ENDBRANCH   1   3
BRANCH   1  12
ATOM     12  N   UNL d   1      52.251  33.824  53.458  0.00  0.00    -0.293 N 
ATOM     13  C   UNL d   1      51.486  33.711  53.757  0.00  0.00     0.100 A 
ATOM     14  C   UNL d   1      50.831  33.880  53.285  0.00  0.00     0.102 A 
ATOM     15  N   UNL d   1      50.936  34.161  52.514  0.00  0.00    -0.269 N 
ATOM     16  C   UNL d   1      51.700  34.274  52.216  0.00  0.00     0.102 A 
ATOM     17  C   UNL d   1      50.280  34.330  52.043  0.00  0.00     0.265 C 
ATOM     18  C   UNL d   1      52.356  34.106  52.688  0.00  0.00     0.100 A 
ATOM     19  O   UNL d   1      50.385  34.611  51.272  0.00  0.00    -0.267 OA
ATOM     20  C   UNL d   1      49.520  34.218  52.337  0.00  0.00     0.066 C 
ENDBRANCH   1  12
TORSDOF 3
ENDMDL
