MODEL 1
REMARK VINA RESULT:      78.9      0.000      0.000
REMARK  7 active torsions:
REMARK  status: ('A' for Active; 'I' for Inactive)
REMARK    1  A    between atoms: N_9  and  C_1 
REMARK    2  A    between atoms: C_10  and  C_2 
REMARK    3  A    between atoms: C_5  and  S_14 
REMARK       I    between atoms: C_13  and  N_9 
REMARK    4  A    between atoms: O_18  and  C_10 
REMARK    5  A    between atoms: C_17  and  C_13 
REMARK    6  A    between atoms: S_14  and  C_17 
REMARK    7  A    between atoms: C_23  and  O_18 
ROOT
ATOM      1  N   UNL d   1      60.625  47.633  50.362  0.00  0.00    -0.201 NA
ATOM      2  C   UNL d   1      60.494  48.419  50.597  0.00  0.00     0.286 C 
ATOM      3  O   UNL d   1      60.517  48.612  51.409  0.00  0.00    -0.265 OA
ENDROOT
BRANCH   1   4
ATOM      4  C   UNL d   1      60.778  47.049  50.925  0.00  0.00     0.119 A 
ATOM      5  C   UNL d   1      60.982  46.267  50.760  0.00  0.00     0.088 A 
ATOM      6  C   UNL d   1      61.082  45.882  51.483  0.00  0.00     0.013 A 
ATOM      7  C   UNL d   1      61.289  45.089  51.580  0.00  0.00     0.001 C 
ATOM      8  C   UNL d   1      60.941  46.423  52.090  0.00  0.00     0.031 A 
ATOM      9  S   UNL d   1      60.751  47.148  51.738  0.00  0.00    -0.068 SA
ATOM     10  C   UNL d   1      60.981  46.270  52.891  0.00  0.00     0.007 C 
BRANCH   5  11
ATOM     11  C   UNL d   1      61.071  45.927  50.010  0.00  0.00     0.302 C 
ATOM     12  O   UNL d   1      60.526  45.380  49.745  0.00  0.00    -0.259 OA
BRANCH  11  13
ATOM     13  O   UNL d   1      61.712  46.149  49.542  0.00  0.00    -0.271 OA
BRANCH  13  14
ATOM     14  C   UNL d   1      62.033  45.624  48.995  0.00  0.00     0.126 C 
ATOM     15  C   UNL d   1      62.854  45.585  48.883  0.00  0.00     0.029 C 
ENDBRANCH  13  14
ENDBRANCH  11  13
ENDBRANCH   5  11
ENDBRANCH   1   4
BRANCH   2  16
ATOM     16  C   UNL d   1      60.341  49.003  50.035  0.00  0.00     0.100 C 
BRANCH  16  17
ATOM     17  S   UNL d   1      59.881  49.662  50.234  0.00  0.00    -0.056 SA
BRANCH  17  18
ATOM     18  C   UNL d   1      59.065  49.670  50.061  0.00  0.00     0.141 A 
ATOM     19  N   UNL d   1      58.737  49.689  49.300  0.00  0.00    -0.232 NA
ATOM     20  C   UNL d   1      57.905  49.692  49.385  0.00  0.00     0.088 A 
ATOM     21  C   UNL d   1      57.295  49.708  48.833  0.00  0.00     0.020 A 
ATOM     22  C   UNL d   1      57.732  49.675  50.199  0.00  0.00     0.049 A 
ATOM     23  C   UNL d   1      56.511  49.707  49.089  0.00  0.00     0.002 A 
ATOM     24  C   UNL d   1      56.338  49.690  49.903  0.00  0.00     0.001 A 
ATOM     25  C   UNL d   1      56.950  49.674  50.455  0.00  0.00     0.008 A 
ATOM     26  S   UNL d   1      58.458  49.662  50.613  0.00  0.00    -0.060 SA
ENDBRANCH  17  18
ENDBRANCH  16  17
ENDBRANCH   2  16
TORSDOF 7
ENDMDL
