MODEL 1
REMARK VINA RESULT:      -9.3      0.000      0.000
REMARK  3 active torsions:
REMARK  status: ('A' for Active; 'I' for Inactive)
REMARK    1  A    between atoms: C_10  and  N_4 
REMARK    2  A    between atoms: C_11  and  N_6 
REMARK    3  A    between atoms: C_16  and  C_11 
ROOT
ATOM      1  C   UNL d   1      52.339  33.317  53.027  0.00  0.00     0.172 A 
ATOM      2  C   UNL d   1      53.064  33.462  53.394  0.00  0.00     0.113 A 
ATOM      3  N   UNL d   1      52.131  32.554  52.810  0.00  0.00    -0.206 NA
ATOM      4  N   UNL d   1      51.948  34.046  52.955  0.00  0.00    -0.212 N 
ATOM      5  C   UNL d   1      53.580  32.843  53.544  0.00  0.00     0.270 A 
ATOM      6  N   UNL d   1      53.375  32.071  53.327  0.00  0.00    -0.254 N 
ATOM      7  N   UNL d   1      52.433  34.622  53.274  0.00  0.00    -0.162 NA
ATOM      8  C   UNL d   1      52.650  31.927  52.960  0.00  0.00     0.187 A 
ATOM      9  C   UNL d   1      53.108  34.277  53.541  0.00  0.00     0.129 A 
ATOM     10  O   UNL d   1      54.305  32.988  53.910  0.00  0.00    -0.266 OA
ENDROOT
BRANCH   4  11
ATOM     11  C   UNL d   1      51.217  34.203  52.632  0.00  0.00     0.085 A 
ATOM     12  C   UNL d   1      51.127  34.246  51.805  0.00  0.00     0.021 A 
ATOM     13  C   UNL d   1      50.390  34.404  51.487  0.00  0.00     0.031 A 
ATOM     14  C   UNL d   1      49.725  34.522  51.990  0.00  0.00     0.140 A 
ATOM     15  C   UNL d   1      49.827  34.477  52.795  0.00  0.00     0.031 A 
ATOM     16  F   UNL d   1      48.965  34.684  51.673  0.00  0.00    -0.204 F 
ATOM     17  C   UNL d   1      50.564  34.319  53.124  0.00  0.00     0.021 A 
ENDBRANCH   4  11
BRANCH   6  18
ATOM     18  C   UNL d   1      53.896  31.436  53.476  0.00  0.00     0.104 C 
BRANCH  18  19
ATOM     19  C   UNL d   1      53.593  30.688  53.676  0.00  0.00     0.099 A 
ATOM     20  N   UNL d   1      53.456  30.512  54.471  0.00  0.00    -0.242 NA
ATOM     21  C   UNL d   1      53.150  29.759  54.678  0.00  0.00     0.099 A 
ATOM     22  C   UNL d   1      53.000  29.224  54.079  0.00  0.00     0.021 A 
ATOM     23  C   UNL d   1      53.140  29.404  53.278  0.00  0.00     0.003 A 
ATOM     24  C   UNL d   1      53.437  30.142  53.089  0.00  0.00     0.021 A 
ENDBRANCH  18  19
ENDBRANCH   6  18
TORSDOF 3
ENDMDL
MODEL 2
REMARK VINA RESULT:      -8.9      1.729      4.485
REMARK  3 active torsions:
REMARK  status: ('A' for Active; 'I' for Inactive)
REMARK    1  A    between atoms: C_10  and  N_4 
REMARK    2  A    between atoms: C_11  and  N_6 
REMARK    3  A    between atoms: C_16  and  C_11 
ROOT
ATOM      1  C   UNL d   1      52.989  32.362  53.478  0.00  0.00     0.172 A 
ATOM      2  C   UNL d   1      53.392  33.080  53.430  0.00  0.00     0.113 A 
ATOM      3  N   UNL d   1      52.172  32.340  53.397  0.00  0.00    -0.206 NA
ATOM      4  N   UNL d   1      53.554  31.768  53.609  0.00  0.00    -0.212 N 
ATOM      5  C   UNL d   1      52.979  33.777  53.302  0.00  0.00     0.270 A 
ATOM      6  N   UNL d   1      52.155  33.760  53.219  0.00  0.00    -0.254 N 
ATOM      7  N   UNL d   1      54.289  32.126  53.639  0.00  0.00    -0.162 NA
ATOM      8  C   UNL d   1      51.752  33.042  53.267  0.00  0.00     0.187 A 
ATOM      9  C   UNL d   1      54.199  32.917  53.532  0.00  0.00     0.129 A 
ATOM     10  O   UNL d   1      53.382  34.495  53.254  0.00  0.00    -0.266 OA
ENDROOT
BRANCH   4  11
ATOM     11  C   UNL d   1      53.441  30.967  53.696  0.00  0.00     0.085 A 
ATOM     12  C   UNL d   1      53.318  30.487  53.026  0.00  0.00     0.021 A 
ATOM     13  C   UNL d   1      53.205  29.682  53.122  0.00  0.00     0.031 A 
ATOM     14  C   UNL d   1      53.212  29.339  53.891  0.00  0.00     0.140 A 
ATOM     15  C   UNL d   1      53.334  29.818  54.535  0.00  0.00     0.031 A 
ATOM     16  F   UNL d   1      53.097  28.515  53.998  0.00  0.00    -0.204 F 
ATOM     17  C   UNL d   1      53.448  30.628  54.450  0.00  0.00     0.021 A 
ENDBRANCH   4  11
BRANCH   6  18
ATOM     18  C   UNL d   1      51.727  34.465  53.089  0.00  0.00     0.104 C 
BRANCH  18  19
ATOM     19  C   UNL d   1      51.019  34.447  52.654  0.00  0.00     0.099 A 
ATOM     20  N   UNL d   1      51.053  34.334  51.838  0.00  0.00    -0.242 NA
ATOM     21  C   UNL d   1      50.340  34.316  51.396  0.00  0.00     0.099 A 
ATOM     22  C   UNL d   1      49.634  34.412  51.796  0.00  0.00     0.021 A 
ATOM     23  C   UNL d   1      49.603  34.526  52.620  0.00  0.00     0.003 A 
ATOM     24  C   UNL d   1      50.305  34.542  53.039  0.00  0.00     0.021 A 
ENDBRANCH  18  19
ENDBRANCH   6  18
TORSDOF 3
ENDMDL
MODEL 3
REMARK VINA RESULT:      -7.2      2.569      4.802
REMARK  3 active torsions:
REMARK  status: ('A' for Active; 'I' for Inactive)
REMARK    1  A    between atoms: C_10  and  N_4 
REMARK    2  A    between atoms: C_11  and  N_6 
REMARK    3  A    between atoms: C_16  and  C_11 
ROOT
ATOM      1  C   UNL d   1      53.249  31.308  53.617  0.00  0.00     0.172 A 
ATOM      2  C   UNL d   1      52.907  31.733  52.998  0.00  0.00     0.113 A 
ATOM      3  N   UNL d   1      53.752  31.682  54.147  0.00  0.00    -0.206 NA
ATOM      4  N   UNL d   1      52.981  30.525  53.558  0.00  0.00    -0.212 N 
ATOM      5  C   UNL d   1      53.067  32.532  52.909  0.00  0.00     0.270 A 
ATOM      6  N   UNL d   1      53.574  32.914  53.440  0.00  0.00    -0.254 N 
ATOM      7  N   UNL d   1      52.483  30.479  52.911  0.00  0.00    -0.162 NA
ATOM      8  C   UNL d   1      53.916  32.489  54.059  0.00  0.00     0.187 A 
ATOM      9  C   UNL d   1      52.433  31.204  52.568  0.00  0.00     0.129 A 
ATOM     10  O   UNL d   1      52.725  32.957  52.290  0.00  0.00    -0.266 OA
ENDROOT
BRANCH   4  11
ATOM     11  C   UNL d   1      53.156  29.888  54.035  0.00  0.00     0.085 A 
ATOM     12  C   UNL d   1      52.813  29.826  54.792  0.00  0.00     0.021 A 
ATOM     13  C   UNL d   1      52.994  29.185  55.266  0.00  0.00     0.031 A 
ATOM     14  C   UNL d   1      53.523  28.589  54.992  0.00  0.00     0.140 A 
ATOM     15  C   UNL d   1      53.850  28.661  54.253  0.00  0.00     0.031 A 
ATOM     16  F   UNL d   1      53.714  27.927  55.472  0.00  0.00    -0.204 F 
ATOM     17  C   UNL d   1      53.675  29.303  53.769  0.00  0.00     0.021 A 
ENDBRANCH   4  11
BRANCH   6  18
ATOM     18  C   UNL d   1      53.743  33.727  53.356  0.00  0.00     0.104 C 
BRANCH  18  19
ATOM     19  C   UNL d   1      53.488  34.267  53.933  0.00  0.00     0.099 A 
ATOM     20  N   UNL d   1      53.872  34.286  54.663  0.00  0.00    -0.242 NA
ATOM     21  C   UNL d   1      53.618  34.829  55.248  0.00  0.00     0.099 A 
ATOM     22  C   UNL d   1      52.992  35.325  55.071  0.00  0.00     0.021 A 
ATOM     23  C   UNL d   1      52.606  35.304  54.334  0.00  0.00     0.003 A 
ATOM     24  C   UNL d   1      52.864  34.769  53.772  0.00  0.00     0.021 A 
ENDBRANCH  18  19
ENDBRANCH   6  18
TORSDOF 3
ENDMDL
MODEL 4
REMARK VINA RESULT:      -6.8      1.507      2.460
REMARK  3 active torsions:
REMARK  status: ('A' for Active; 'I' for Inactive)
REMARK    1  A    between atoms: C_10  and  N_4 
REMARK    2  A    between atoms: C_11  and  N_6 
REMARK    3  A    between atoms: C_16  and  C_11 
ROOT
ATOM      1  C   UNL d   1      51.914  33.189  53.135  0.00  0.00     0.172 A 
ATOM      2  C   UNL d   1      52.186  32.412  53.184  0.00  0.00     0.113 A 
ATOM      3  N   UNL d   1      52.429  33.815  53.261  0.00  0.00    -0.206 NA
ATOM      4  N   UNL d   1      51.106  33.159  52.950  0.00  0.00    -0.212 N 
ATOM      5  C   UNL d   1      52.972  32.260  53.361  0.00  0.00     0.270 A 
ATOM      6  N   UNL d   1      53.496  32.888  53.490  0.00  0.00    -0.254 N 
ATOM      7  N   UNL d   1      50.893  32.371  52.890  0.00  0.00    -0.162 NA
ATOM      8  C   UNL d   1      53.224  33.666  53.440  0.00  0.00     0.187 A 
ATOM      9  C   UNL d   1      51.540  31.915  53.030  0.00  0.00     0.129 A 
ATOM     10  O   UNL d   1      53.243  31.483  53.410  0.00  0.00    -0.266 OA
ENDROOT
BRANCH   4  11
ATOM     11  C   UNL d   1      50.584  33.774  52.841  0.00  0.00     0.085 A 
ATOM     12  C   UNL d   1      50.363  34.002  52.071  0.00  0.00     0.021 A 
ATOM     13  C   UNL d   1      49.838  34.621  51.968  0.00  0.00     0.031 A 
ATOM     14  C   UNL d   1      49.522  35.026  52.635  0.00  0.00     0.140 A 
ATOM     15  C   UNL d   1      49.745  34.794  53.381  0.00  0.00     0.031 A 
ATOM     16  F   UNL d   1      48.983  35.663  52.540  0.00  0.00    -0.204 F 
ATOM     17  C   UNL d   1      50.272  34.173  53.494  0.00  0.00     0.021 A 
ENDBRANCH   4  11
BRANCH   6  18
ATOM     18  C   UNL d   1      54.297  32.743  53.670  0.00  0.00     0.104 C 
BRANCH  18  19
ATOM     19  C   UNL d   1      54.659  33.134  54.308  0.00  0.00     0.099 A 
ATOM     20  N   UNL d   1      54.393  32.980  55.073  0.00  0.00    -0.242 NA
ATOM     21  C   UNL d   1      54.755  33.372  55.720  0.00  0.00     0.099 A 
ATOM     22  C   UNL d   1      55.362  33.897  55.565  0.00  0.00     0.021 A 
ATOM     23  C   UNL d   1      55.628  34.050  54.791  0.00  0.00     0.003 A 
ATOM     24  C   UNL d   1      55.267  33.661  54.169  0.00  0.00     0.021 A 
ENDBRANCH  18  19
ENDBRANCH   6  18
TORSDOF 3
ENDMDL
MODEL 5
REMARK VINA RESULT:      -6.7      3.229      6.017
REMARK  3 active torsions:
REMARK  status: ('A' for Active; 'I' for Inactive)
REMARK    1  A    between atoms: C_10  and  N_4 
REMARK    2  A    between atoms: C_11  and  N_6 
REMARK    3  A    between atoms: C_16  and  C_11 
ROOT
ATOM      1  C   UNL d   1      49.467  34.837  52.521  0.00  0.00     0.172 A 
ATOM      2  C   UNL d   1      48.916  34.920  51.914  0.00  0.00     0.113 A 
ATOM      3  N   UNL d   1      49.359  35.229  53.234  0.00  0.00    -0.206 NA
ATOM      4  N   UNL d   1      50.062  34.327  52.248  0.00  0.00    -0.212 N 
ATOM      5  C   UNL d   1      48.256  35.396  52.018  0.00  0.00     0.270 A 
ATOM      6  N   UNL d   1      48.142  35.794  52.736  0.00  0.00    -0.254 N 
ATOM      7  N   UNL d   1      49.870  34.106  51.484  0.00  0.00    -0.162 NA
ATOM      8  C   UNL d   1      48.694  35.710  53.343  0.00  0.00     0.187 A 
ATOM      9  C   UNL d   1      49.180  34.461  51.275  0.00  0.00     0.129 A 
ATOM     10  O   UNL d   1      47.704  35.480  51.411  0.00  0.00    -0.266 OA
ENDROOT
BRANCH   4  11
ATOM     11  C   UNL d   1      50.730  34.068  52.635  0.00  0.00     0.085 A 
ATOM     12  C   UNL d   1      50.690  33.405  53.138  0.00  0.00     0.021 A 
ATOM     13  C   UNL d   1      51.365  33.150  53.524  0.00  0.00     0.031 A 
ATOM     14  C   UNL d   1      52.096  33.554  53.416  0.00  0.00     0.140 A 
ATOM     15  C   UNL d   1      52.121  34.199  52.922  0.00  0.00     0.031 A 
ATOM     16  F   UNL d   1      52.793  33.300  53.808  0.00  0.00    -0.204 F 
ATOM     17  C   UNL d   1      51.448  34.463  52.530  0.00  0.00     0.021 A 
ENDBRANCH   4  11
BRANCH   6  18
ATOM     18  C   UNL d   1      47.474  36.280  52.850  0.00  0.00     0.104 C 
BRANCH  18  19
ATOM     19  C   UNL d   1      47.059  36.254  53.570  0.00  0.00     0.099 A 
ATOM     20  N   UNL d   1      46.397  35.766  53.634  0.00  0.00    -0.242 NA
ATOM     21  C   UNL d   1      45.975  35.738  54.358  0.00  0.00     0.099 A 
ATOM     22  C   UNL d   1      46.240  36.199  54.979  0.00  0.00     0.021 A 
ATOM     23  C   UNL d   1      46.908  36.690  54.912  0.00  0.00     0.003 A 
ATOM     24  C   UNL d   1      47.311  36.710  54.200  0.00  0.00     0.021 A 
ENDBRANCH  18  19
ENDBRANCH   6  18
TORSDOF 3
ENDMDL
MODEL 6
REMARK VINA RESULT:      -6.4      2.191      4.631
REMARK  3 active torsions:
REMARK  status: ('A' for Active; 'I' for Inactive)
REMARK    1  A    between atoms: C_10  and  N_4 
REMARK    2  A    between atoms: C_11  and  N_6 
REMARK    3  A    between atoms: C_16  and  C_11 
ROOT
ATOM      1  C   UNL d   1      53.008  33.194  53.469  0.00  0.00     0.172 A 
ATOM      2  C   UNL d   1      52.582  32.625  53.050  0.00  0.00     0.113 A 
ATOM      3  N   UNL d   1      52.808  33.988  53.407  0.00  0.00    -0.206 NA
ATOM      4  N   UNL d   1      53.596  32.798  53.899  0.00  0.00    -0.212 N 
ATOM      5  C   UNL d   1      51.957  32.849  52.569  0.00  0.00     0.270 A 
ATOM      6  N   UNL d   1      51.752  33.649  52.503  0.00  0.00    -0.254 N 
ATOM      7  N   UNL d   1      53.525  31.998  53.740  0.00  0.00    -0.162 NA
ATOM      8  C   UNL d   1      52.177  34.218  52.921  0.00  0.00     0.187 A 
ATOM      9  C   UNL d   1      52.915  31.887  53.229  0.00  0.00     0.129 A 
ATOM     10  O   UNL d   1      51.531  32.280  52.150  0.00  0.00    -0.266 OA
ENDROOT
BRANCH   4  11
ATOM     11  C   UNL d   1      54.160  33.108  54.397  0.00  0.00     0.085 A 
ATOM     12  C   UNL d   1      54.879  33.394  54.088  0.00  0.00     0.021 A 
ATOM     13  C   UNL d   1      55.441  33.705  54.595  0.00  0.00     0.031 A 
ATOM     14  C   UNL d   1      55.297  33.735  55.424  0.00  0.00     0.140 A 
ATOM     15  C   UNL d   1      54.592  33.452  55.712  0.00  0.00     0.031 A 
ATOM     16  F   UNL d   1      55.868  34.052  55.951  0.00  0.00    -0.204 F 
ATOM     17  C   UNL d   1      54.021  33.139  55.211  0.00  0.00     0.021 A 
ENDBRANCH   4  11
BRANCH   6  18
ATOM     18  C   UNL d   1      51.117  33.885  52.015  0.00  0.00     0.104 C 
BRANCH  18  19
ATOM     19  C   UNL d   1      50.473  34.297  52.341  0.00  0.00     0.099 A 
ATOM     20  N   UNL d   1      50.491  34.502  53.140  0.00  0.00    -0.242 NA
ATOM     21  C   UNL d   1      49.843  34.918  53.472  0.00  0.00     0.099 A 
ATOM     22  C   UNL d   1      49.213  35.106  52.987  0.00  0.00     0.021 A 
ATOM     23  C   UNL d   1      49.197  34.897  52.181  0.00  0.00     0.003 A 
ATOM     24  C   UNL d   1      49.835  34.492  51.869  0.00  0.00     0.021 A 
ENDBRANCH  18  19
ENDBRANCH   6  18
TORSDOF 3
ENDMDL
MODEL 7
REMARK VINA RESULT:      -6.4      1.885      2.491
REMARK  3 active torsions:
REMARK  status: ('A' for Active; 'I' for Inactive)
REMARK    1  A    between atoms: C_10  and  N_4 
REMARK    2  A    between atoms: C_11  and  N_6 
REMARK    3  A    between atoms: C_16  and  C_11 
ROOT
ATOM      1  C   UNL d   1      52.838  32.740  53.396  0.00  0.00     0.172 A 
ATOM      2  C   UNL d   1      52.402  32.277  52.872  0.00  0.00     0.113 A 
ATOM      3  N   UNL d   1      53.466  32.415  53.811  0.00  0.00    -0.206 NA
ATOM      4  N   UNL d   1      52.511  33.503  53.384  0.00  0.00    -0.212 N 
ATOM      5  C   UNL d   1      52.594  31.487  52.762  0.00  0.00     0.270 A 
ATOM      6  N   UNL d   1      53.227  31.154  53.178  0.00  0.00    -0.254 N 
ATOM      7  N   UNL d   1      51.885  33.497  52.857  0.00  0.00    -0.162 NA
ATOM      8  C   UNL d   1      53.663  31.618  53.703  0.00  0.00     0.187 A 
ATOM      9  C   UNL d   1      51.813  32.761  52.544  0.00  0.00     0.129 A 
ATOM     10  O   UNL d   1      52.159  31.023  52.237  0.00  0.00    -0.266 OA
ENDROOT
BRANCH   4  11
ATOM     11  C   UNL d   1      52.739  34.163  53.802  0.00  0.00     0.085 A 
ATOM     12  C   UNL d   1      52.693  34.167  54.634  0.00  0.00     0.021 A 
ATOM     13  C   UNL d   1      52.924  34.833  55.048  0.00  0.00     0.031 A 
ATOM     14  C   UNL d   1      53.208  35.512  54.638  0.00  0.00     0.140 A 
ATOM     15  C   UNL d   1      53.248  35.495  53.827  0.00  0.00     0.031 A 
ATOM     16  F   UNL d   1      53.447  36.200  55.055  0.00  0.00    -0.204 F 
ATOM     17  C   UNL d   1      53.018  34.830  53.402  0.00  0.00     0.021 A 
ENDBRANCH   4  11
BRANCH   6  18
ATOM     18  C   UNL d   1      53.430  30.351  53.072  0.00  0.00     0.104 C 
BRANCH  18  19
ATOM     19  C   UNL d   1      53.372  29.820  53.709  0.00  0.00     0.099 A 
ATOM     20  N   UNL d   1      52.629  29.538  53.929  0.00  0.00    -0.242 NA
ATOM     21  C   UNL d   1      52.567  29.002  54.571  0.00  0.00     0.099 A 
ATOM     22  C   UNL d   1      53.252  28.777  54.956  0.00  0.00     0.021 A 
ATOM     23  C   UNL d   1      54.000  29.063  54.731  0.00  0.00     0.003 A 
ATOM     24  C   UNL d   1      54.048  29.585  54.104  0.00  0.00     0.021 A 
ENDBRANCH  18  19
ENDBRANCH   6  18
TORSDOF 3
ENDMDL
