MODEL 1
REMARK VINA RESULT:      -7.2      0.000      0.000
REMARK  5 active torsions:
REMARK  status: ('A' for Active; 'I' for Inactive)
REMARK    1  A    between atoms: C_7  and  N_1 
REMARK    2  A    between atoms: C_14  and  N_5 
REMARK    3  A    between atoms: C_8  and  C_7 
REMARK    4  A    between atoms: C_16  and  C_14 
REMARK    5  A    between atoms: O_15  and  C_16 
ROOT
ATOM      1  N   UNL d   1      53.127  33.782  53.869  0.00  0.00    -0.273 N 
ATOM      2  C   UNL d   1      53.563  33.905  54.574  0.00  0.00     0.153 A 
ATOM      3  S   UNL d   1      54.049  33.314  54.861  0.00  0.00    -0.039 SA
ATOM      4  C   UNL d   1      53.185  33.070  53.465  0.00  0.00     0.168 A 
ATOM      5  N   UNL d   1      53.678  32.472  53.758  0.00  0.00    -0.280 N 
ATOM      6  C   UNL d   1      54.114  32.596  54.462  0.00  0.00     0.120 A 
ATOM      7  S   UNL d   1      53.499  34.632  54.980  0.00  0.00    -0.052 SA
ENDROOT
BRANCH   1   8
ATOM      8  C   UNL d   1      52.637  34.389  53.588  0.00  0.00     0.107 C 
BRANCH   8   9
ATOM      9  C   UNL d   1      51.927  34.216  53.199  0.00  0.00     0.118 A 
ATOM     10  O   UNL d   1      51.243  33.913  53.555  0.00  0.00    -0.304 OA
ATOM     11  C   UNL d   1      50.675  33.828  52.961  0.00  0.00     0.123 A 
ATOM     12  C   UNL d   1      51.000  34.073  52.256  0.00  0.00     0.029 A 
ATOM     13  C   UNL d   1      51.775  34.314  52.400  0.00  0.00     0.028 A 
ENDBRANCH   8   9
ENDBRANCH   1   8
BRANCH   5  14
ATOM     14  C   UNL d   1      53.745  31.755  53.363  0.00  0.00     0.108 C 
BRANCH  14  15
ATOM     15  C   UNL d   1      53.424  31.071  53.696  0.00  0.00     0.135 C 
BRANCH  15  16
ATOM     16  O   UNL d   1      53.366  30.386  53.243  0.00  0.00    -0.325 OA
ATOM     17  C   UNL d   1      53.099  29.694  53.588  0.00  0.00     0.182 C 
ENDBRANCH  15  16
ENDBRANCH  14  15
ENDBRANCH   5  14
TORSDOF 5
ENDMDL
MODEL 2
REMARK VINA RESULT:      -7.0      1.674      3.549
REMARK  5 active torsions:
REMARK  status: ('A' for Active; 'I' for Inactive)
REMARK    1  A    between atoms: C_7  and  N_1 
REMARK    2  A    between atoms: C_14  and  N_5 
REMARK    3  A    between atoms: C_8  and  C_7 
REMARK    4  A    between atoms: C_16  and  C_14 
REMARK    5  A    between atoms: O_15  and  C_16 
ROOT
ATOM      1  N   UNL d   1      53.504  32.203  53.496  0.00  0.00    -0.273 N 
ATOM      2  C   UNL d   1      53.134  31.480  53.291  0.00  0.00     0.153 A 
ATOM      3  S   UNL d   1      52.403  31.486  52.927  0.00  0.00    -0.039 SA
ATOM      4  C   UNL d   1      53.136  32.919  53.334  0.00  0.00     0.168 A 
ATOM      5  N   UNL d   1      52.395  32.922  52.964  0.00  0.00    -0.280 N 
ATOM      6  C   UNL d   1      52.024  32.199  52.759  0.00  0.00     0.120 A 
ATOM      7  S   UNL d   1      53.515  30.756  53.460  0.00  0.00    -0.052 SA
ENDROOT
BRANCH   1   8
ATOM      8  C   UNL d   1      54.246  32.185  53.865  0.00  0.00     0.107 C 
BRANCH   8   9
ATOM      9  C   UNL d   1      54.443  32.734  54.452  0.00  0.00     0.118 A 
ATOM     10  O   UNL d   1      54.145  32.741  55.226  0.00  0.00    -0.304 OA
ATOM     11  C   UNL d   1      54.491  33.383  55.615  0.00  0.00     0.123 A 
ATOM     12  C   UNL d   1      54.990  33.762  55.095  0.00  0.00     0.029 A 
ATOM     13  C   UNL d   1      54.962  33.363  54.375  0.00  0.00     0.028 A 
ENDBRANCH   8   9
ENDBRANCH   1   8
BRANCH   5  14
ATOM     14  C   UNL d   1      52.015  33.631  52.796  0.00  0.00     0.108 C 
BRANCH  14  15
ATOM     15  C   UNL d   1      51.228  33.740  53.022  0.00  0.00     0.135 C 
BRANCH  15  16
ATOM     16  O   UNL d   1      50.878  34.480  52.934  0.00  0.00    -0.325 OA
ATOM     17  C   UNL d   1      50.063  34.539  52.888  0.00  0.00     0.182 C 
ENDBRANCH  15  16
ENDBRANCH  14  15
ENDBRANCH   5  14
TORSDOF 5
ENDMDL
MODEL 3
REMARK VINA RESULT:      -7.0      1.688      2.666
REMARK  5 active torsions:
REMARK  status: ('A' for Active; 'I' for Inactive)
REMARK    1  A    between atoms: C_7  and  N_1 
REMARK    2  A    between atoms: C_14  and  N_5 
REMARK    3  A    between atoms: C_8  and  C_7 
REMARK    4  A    between atoms: C_16  and  C_14 
REMARK    5  A    between atoms: O_15  and  C_16 
ROOT
ATOM      1  N   UNL d   1      53.238  32.625  53.401  0.00  0.00    -0.273 N 
ATOM      2  C   UNL d   1      52.484  32.675  53.039  0.00  0.00     0.153 A 
ATOM      3  S   UNL d   1      52.088  31.992  52.830  0.00  0.00    -0.039 SA
ATOM      4  C   UNL d   1      53.582  31.894  53.547  0.00  0.00     0.168 A 
ATOM      5  N   UNL d   1      53.177  31.203  53.334  0.00  0.00    -0.280 N 
ATOM      6  C   UNL d   1      52.423  31.253  52.972  0.00  0.00     0.120 A 
ATOM      7  S   UNL d   1      52.141  33.423  52.894  0.00  0.00    -0.052 SA
ENDROOT
BRANCH   1   8
ATOM      8  C   UNL d   1      53.631  33.325  53.609  0.00  0.00     0.107 C 
BRANCH   8   9
ATOM      9  C   UNL d   1      54.080  33.370  54.302  0.00  0.00     0.118 A 
ATOM     10  O   UNL d   1      53.781  33.336  55.075  0.00  0.00    -0.304 OA
ATOM     11  C   UNL d   1      54.424  33.402  55.590  0.00  0.00     0.123 A 
ATOM     12  C   UNL d   1      55.104  33.476  55.147  0.00  0.00     0.029 A 
ATOM     13  C   UNL d   1      54.894  33.456  54.350  0.00  0.00     0.028 A 
ENDBRANCH   8   9
ENDBRANCH   1   8
BRANCH   5  14
ATOM     14  C   UNL d   1      53.509  30.465  53.474  0.00  0.00     0.108 C 
BRANCH  14  15
ATOM     15  C   UNL d   1      53.144  29.944  54.000  0.00  0.00     0.135 C 
BRANCH  15  16
ATOM     16  O   UNL d   1      53.440  29.180  54.088  0.00  0.00    -0.325 OA
ATOM     17  C   UNL d   1      53.329  28.782  54.794  0.00  0.00     0.182 C 
ENDBRANCH  15  16
ENDBRANCH  14  15
ENDBRANCH   5  14
TORSDOF 5
ENDMDL
MODEL 4
REMARK VINA RESULT:      -6.7      1.461      2.508
REMARK  5 active torsions:
REMARK  status: ('A' for Active; 'I' for Inactive)
REMARK    1  A    between atoms: C_7  and  N_1 
REMARK    2  A    between atoms: C_14  and  N_5 
REMARK    3  A    between atoms: C_8  and  C_7 
REMARK    4  A    between atoms: C_16  and  C_14 
REMARK    5  A    between atoms: O_15  and  C_16 
ROOT
ATOM      1  N   UNL d   1      52.957  33.600  53.580  0.00  0.00    -0.273 N 
ATOM      2  C   UNL d   1      52.190  33.837  53.339  0.00  0.00     0.153 A 
ATOM      3  S   UNL d   1      51.718  33.320  52.918  0.00  0.00    -0.039 SA
ATOM      4  C   UNL d   1      53.237  32.850  53.397  0.00  0.00     0.168 A 
ATOM      5  N   UNL d   1      52.756  32.328  52.970  0.00  0.00    -0.280 N 
ATOM      6  C   UNL d   1      51.989  32.565  52.729  0.00  0.00     0.120 A 
ATOM      7  S   UNL d   1      51.913  34.601  53.530  0.00  0.00    -0.052 SA
ENDROOT
BRANCH   1   8
ATOM      8  C   UNL d   1      53.427  34.133  54.007  0.00  0.00     0.107 C 
BRANCH   8   9
ATOM      9  C   UNL d   1      53.986  33.864  54.554  0.00  0.00     0.118 A 
ATOM     10  O   UNL d   1      53.816  33.527  55.292  0.00  0.00    -0.304 OA
ATOM     11  C   UNL d   1      54.538  33.341  55.649  0.00  0.00     0.123 A 
ATOM     12  C   UNL d   1      55.139  33.557  55.143  0.00  0.00     0.029 A 
ATOM     13  C   UNL d   1      54.800  33.881  54.465  0.00  0.00     0.028 A 
ENDBRANCH   8   9
ENDBRANCH   1   8
BRANCH   5  14
ATOM     14  C   UNL d   1      53.023  31.575  52.780  0.00  0.00     0.108 C 
BRANCH  14  15
ATOM     15  C   UNL d   1      52.714  30.917  53.172  0.00  0.00     0.135 C 
BRANCH  15  16
ATOM     16  O   UNL d   1      53.039  30.173  53.037  0.00  0.00    -0.325 OA
ATOM     17  C   UNL d   1      53.016  29.609  53.629  0.00  0.00     0.182 C 
ENDBRANCH  15  16
ENDBRANCH  14  15
ENDBRANCH   5  14
TORSDOF 5
ENDMDL
MODEL 5
REMARK VINA RESULT:      -6.7      0.719      3.155
REMARK  5 active torsions:
REMARK  status: ('A' for Active; 'I' for Inactive)
REMARK    1  A    between atoms: C_7  and  N_1 
REMARK    2  A    between atoms: C_14  and  N_5 
REMARK    3  A    between atoms: C_8  and  C_7 
REMARK    4  A    between atoms: C_16  and  C_14 
REMARK    5  A    between atoms: O_15  and  C_16 
ROOT
ATOM      1  N   UNL d   1      53.627  32.874  53.892  0.00  0.00    -0.273 N 
ATOM      2  C   UNL d   1      53.824  33.405  54.510  0.00  0.00     0.153 A 
ATOM      3  S   UNL d   1      53.442  34.125  54.564  0.00  0.00    -0.039 SA
ATOM      4  C   UNL d   1      53.054  33.073  53.340  0.00  0.00     0.168 A 
ATOM      5  N   UNL d   1      52.668  33.804  53.397  0.00  0.00    -0.280 N 
ATOM      6  C   UNL d   1      52.865  34.335  54.014  0.00  0.00     0.120 A 
ATOM      7  S   UNL d   1      54.409  33.195  55.068  0.00  0.00    -0.052 SA
ENDROOT
BRANCH   1   8
ATOM      8  C   UNL d   1      54.021  32.145  53.848  0.00  0.00     0.107 C 
BRANCH   8   9
ATOM      9  C   UNL d   1      53.618  31.457  53.630  0.00  0.00     0.118 A 
ATOM     10  O   UNL d   1      53.142  30.997  54.129  0.00  0.00    -0.304 OA
ATOM     11  C   UNL d   1      52.852  30.367  53.680  0.00  0.00     0.123 A 
ATOM     12  C   UNL d   1      53.142  30.435  52.922  0.00  0.00     0.029 A 
ATOM     13  C   UNL d   1      53.616  31.109  52.888  0.00  0.00     0.028 A 
ENDBRANCH   8   9
ENDBRANCH   1   8
BRANCH   5  14
ATOM     14  C   UNL d   1      52.093  34.017  52.851  0.00  0.00     0.108 C 
BRANCH  14  15
ATOM     15  C   UNL d   1      51.303  34.071  53.087  0.00  0.00     0.135 C 
BRANCH  15  16
ATOM     16  O   UNL d   1      50.710  34.118  52.517  0.00  0.00    -0.325 OA
ATOM     17  C   UNL d   1      49.990  34.456  52.710  0.00  0.00     0.182 C 
ENDBRANCH  15  16
ENDBRANCH  14  15
ENDBRANCH   5  14
TORSDOF 5
ENDMDL
MODEL 6
REMARK VINA RESULT:      -6.2      1.701      2.508
REMARK  5 active torsions:
REMARK  status: ('A' for Active; 'I' for Inactive)
REMARK    1  A    between atoms: C_7  and  N_1 
REMARK    2  A    between atoms: C_14  and  N_5 
REMARK    3  A    between atoms: C_8  and  C_7 
REMARK    4  A    between atoms: C_16  and  C_14 
REMARK    5  A    between atoms: O_15  and  C_16 
ROOT
ATOM      1  N   UNL d   1      52.782  32.272  53.264  0.00  0.00    -0.273 N 
ATOM      2  C   UNL d   1      53.013  31.467  53.289  0.00  0.00     0.153 A 
ATOM      3  S   UNL d   1      53.552  31.215  53.848  0.00  0.00    -0.039 SA
ATOM      4  C   UNL d   1      53.095  32.810  53.799  0.00  0.00     0.168 A 
ATOM      5  N   UNL d   1      53.641  32.552  54.365  0.00  0.00    -0.280 N 
ATOM      6  C   UNL d   1      53.872  31.747  54.390  0.00  0.00     0.120 A 
ATOM      7  S   UNL d   1      52.690  30.925  52.741  0.00  0.00    -0.052 SA
ENDROOT
BRANCH   1   8
ATOM      8  C   UNL d   1      52.234  32.515  52.691  0.00  0.00     0.107 C 
BRANCH   8   9
ATOM      9  C   UNL d   1      51.711  33.139  52.842  0.00  0.00     0.118 A 
ATOM     10  O   UNL d   1      51.046  33.103  53.336  0.00  0.00    -0.304 OA
ATOM     11  C   UNL d   1      50.690  33.849  53.322  0.00  0.00     0.123 A 
ATOM     12  C   UNL d   1      51.124  34.333  52.831  0.00  0.00     0.029 A 
ATOM     13  C   UNL d   1      51.756  33.896  52.533  0.00  0.00     0.028 A 
ENDBRANCH   8   9
ENDBRANCH   1   8
BRANCH   5  14
ATOM     14  C   UNL d   1      53.963  33.080  54.907  0.00  0.00     0.108 C 
BRANCH  14  15
ATOM     15  C   UNL d   1      54.725  33.375  54.791  0.00  0.00     0.135 C 
BRANCH  15  16
ATOM     16  O   UNL d   1      54.991  34.006  55.248  0.00  0.00    -0.325 OA
ATOM     17  C   UNL d   1      55.778  34.227  55.214  0.00  0.00     0.182 C 
ENDBRANCH  15  16
ENDBRANCH  14  15
ENDBRANCH   5  14
TORSDOF 5
ENDMDL
MODEL 7
REMARK VINA RESULT:      -6.1      1.737      3.094
REMARK  5 active torsions:
REMARK  status: ('A' for Active; 'I' for Inactive)
REMARK    1  A    between atoms: C_7  and  N_1 
REMARK    2  A    between atoms: C_14  and  N_5 
REMARK    3  A    between atoms: C_8  and  C_7 
REMARK    4  A    between atoms: C_16  and  C_14 
REMARK    5  A    between atoms: O_15  and  C_16 
ROOT
ATOM      1  N   UNL d   1      52.110  33.233  53.202  0.00  0.00    -0.273 N 
ATOM      2  C   UNL d   1      51.859  33.960  52.870  0.00  0.00     0.153 A 
ATOM      3  S   UNL d   1      52.116  34.665  53.192  0.00  0.00    -0.039 SA
ATOM      4  C   UNL d   1      52.613  33.224  53.851  0.00  0.00     0.168 A 
ATOM      5  N   UNL d   1      52.872  33.941  54.176  0.00  0.00    -0.280 N 
ATOM      6  C   UNL d   1      52.621  34.668  53.844  0.00  0.00     0.120 A 
ATOM      7  S   UNL d   1      51.347  33.960  52.209  0.00  0.00    -0.052 SA
ENDROOT
BRANCH   1   8
ATOM      8  C   UNL d   1      51.842  32.524  52.866  0.00  0.00     0.107 C 
BRANCH   8   9
ATOM      9  C   UNL d   1      52.304  31.837  52.898  0.00  0.00     0.118 A 
ATOM     10  O   UNL d   1      52.999  31.702  52.468  0.00  0.00    -0.304 OA
ATOM     11  C   UNL d   1      53.271  30.949  52.672  0.00  0.00     0.123 A 
ATOM     12  C   UNL d   1      52.757  30.627  53.216  0.00  0.00     0.029 A 
ATOM     13  C   UNL d   1      52.158  31.175  53.358  0.00  0.00     0.028 A 
ENDBRANCH   8   9
ENDBRANCH   1   8
BRANCH   5  14
ATOM     14  C   UNL d   1      53.375  33.947  54.825  0.00  0.00     0.108 C 
BRANCH  14  15
ATOM     15  C   UNL d   1      54.187  34.052  54.715  0.00  0.00     0.135 C 
BRANCH  15  16
ATOM     16  O   UNL d   1      54.701  33.946  55.349  0.00  0.00    -0.325 OA
ATOM     17  C   UNL d   1      55.500  33.843  55.209  0.00  0.00     0.182 C 
ENDBRANCH  15  16
ENDBRANCH  14  15
ENDBRANCH   5  14
TORSDOF 5
ENDMDL
MODEL 8
REMARK VINA RESULT:      -5.5      1.740      3.697
REMARK  5 active torsions:
REMARK  status: ('A' for Active; 'I' for Inactive)
REMARK    1  A    between atoms: C_7  and  N_1 
REMARK    2  A    between atoms: C_14  and  N_5 
REMARK    3  A    between atoms: C_8  and  C_7 
REMARK    4  A    between atoms: C_16  and  C_14 
REMARK    5  A    between atoms: O_15  and  C_16 
ROOT
ATOM      1  N   UNL d   1      53.401  32.630  53.462  0.00  0.00    -0.273 N 
ATOM      2  C   UNL d   1      52.881  32.053  53.146  0.00  0.00     0.153 A 
ATOM      3  S   UNL d   1      52.174  32.283  52.810  0.00  0.00    -0.039 SA
ATOM      4  C   UNL d   1      53.202  33.426  53.436  0.00  0.00     0.168 A 
ATOM      5  N   UNL d   1      52.484  33.657  53.094  0.00  0.00    -0.280 N 
ATOM      6  C   UNL d   1      51.965  33.080  52.778  0.00  0.00     0.120 A 
ATOM      7  S   UNL d   1      53.091  31.245  53.176  0.00  0.00    -0.052 SA
ENDROOT
BRANCH   1   8
ATOM      8  C   UNL d   1      54.116  32.384  53.801  0.00  0.00     0.107 C 
BRANCH   8   9
ATOM      9  C   UNL d   1      54.461  32.809  54.421  0.00  0.00     0.118 A 
ATOM     10  O   UNL d   1      54.227  32.781  55.215  0.00  0.00    -0.304 OA
ATOM     11  C   UNL d   1      54.722  33.291  55.636  0.00  0.00     0.123 A 
ATOM     12  C   UNL d   1      55.250  33.627  55.114  0.00  0.00     0.029 A 
ATOM     13  C   UNL d   1      55.091  33.330  54.361  0.00  0.00     0.028 A 
ENDBRANCH   8   9
ENDBRANCH   1   8
BRANCH   5  14
ATOM     14  C   UNL d   1      52.273  34.450  53.061  0.00  0.00     0.108 C 
BRANCH  14  15
ATOM     15  C   UNL d   1      52.037  34.842  53.749  0.00  0.00     0.135 C 
BRANCH  15  16
ATOM     16  O   UNL d   1      52.276  35.619  53.877  0.00  0.00    -0.325 OA
ATOM     17  C   UNL d   1      52.337  35.904  54.641  0.00  0.00     0.182 C 
ENDBRANCH  15  16
ENDBRANCH  14  15
ENDBRANCH   5  14
TORSDOF 5
ENDMDL
