MODEL 1
REMARK VINA RESULT:      47.6      0.000      0.000
REMARK  4 active torsions:
REMARK  status: ('A' for Active; 'I' for Inactive)
REMARK    1  A    between atoms: N_3  and  S_1 
REMARK    2  A    between atoms: C_4  and  S_1 
REMARK    3  A    between atoms: C_13  and  N_3 
REMARK    4  A    between atoms: C_16  and  N_3 
ROOT
ATOM      1  S   UNL d   1     -56.088 -99.789 -44.489  0.00  0.00     0.271 S 
ATOM      2  O   UNL d   1     -55.608 -99.536 -43.869  0.00  0.00    -0.200 OA
ATOM      3  O   UNL d   1     -55.793-100.309 -45.053  0.00  0.00    -0.200 OA
ENDROOT
BRANCH   1   4
ATOM      4  N   UNL d   1     -55.314-100.061 -44.440  0.00  0.00    -0.231 N 
BRANCH   4   5
ATOM      5  C   UNL d   1     -55.125-100.694 -43.928  0.00  0.00     0.075 A 
ATOM      6  C   UNL d   1     -55.049-100.557 -43.123  0.00  0.00     0.018 A 
ATOM      7  C   UNL d   1     -54.862-101.181 -42.617  0.00  0.00     0.002 A 
ATOM      8  C   UNL d   1     -54.752-101.942 -42.917  0.00  0.00     0.000 A 
ATOM      9  C   UNL d   1     -54.828-102.079 -43.721  0.00  0.00     0.002 A 
ATOM     10  C   UNL d   1     -55.015-101.455 -44.232  0.00  0.00     0.018 A 
ENDBRANCH   4   5
BRANCH   4  11
ATOM     11  C   UNL d   1     -54.726 -99.713 -44.894  0.00  0.00     0.092 C 
ATOM     12  C   UNL d   1     -54.774 -98.916 -45.099  0.00  0.00     0.021 C 
ENDBRANCH   4  11
ENDBRANCH   1   4
BRANCH   1  13
ATOM     13  C   UNL d   1     -56.864 -99.522 -44.545  0.00  0.00     0.106 A 
ATOM     14  C   UNL d   1     -57.257 -99.554 -45.266  0.00  0.00     0.034 A 
ATOM     15  C   UNL d   1     -58.039 -99.286 -45.326  0.00  0.00     0.105 A 
ATOM     16  N   UNL d   1     -58.568 -99.248 -45.961  0.00  0.00    -0.189 NA
ATOM     17  C   UNL d   1     -58.426 -98.984 -44.654  0.00  0.00     0.104 A 
ATOM     18  C   UNL d   1     -59.284 -98.922 -45.685  0.00  0.00     0.369 A 
ATOM     19  O   UNL d   1     -59.961 -98.786 -46.135  0.00  0.00    -0.242 OA
ATOM     20  N   UNL d   1     -59.190 -98.761 -44.879  0.00  0.00    -0.189 NA
ATOM     21  C   UNL d   1     -58.025 -98.953 -43.928  0.00  0.00     0.021 A 
ATOM     22  C   UNL d   1     -57.247 -99.223 -43.879  0.00  0.00     0.015 A 
ENDBRANCH   1  13
TORSDOF 4
ENDMDL
