MODEL 1
REMARK VINA RESULT:      -5.1      0.000      0.000
REMARK  3 active torsions:
REMARK  status: ('A' for Active; 'I' for Inactive)
REMARK    1  A    between atoms: C_2  and  C_1 
REMARK    2  A    between atoms: C_4  and  C_1 
REMARK       I    between atoms: N_3  and  C_2 
REMARK    3  A    between atoms: C_6  and  N_5 
ROOT
ATOM      1  C   UNL d   1      58.505   0.124  29.513  0.00  0.00     0.253 C 
ATOM      2  N   UNL d   1      58.029   0.069  30.183  0.00  0.00    -0.272 N 
ATOM      3  N   UNL d   1      57.035   0.029  31.472  0.00  0.00    -0.299 N 
ATOM      4  O   UNL d   1      58.336   0.680  28.932  0.00  0.00    -0.271 OA
ATOM      5  C   UNL d   1      57.392   0.583  30.240  0.00  0.00     0.102 A 
ATOM      6  C   UNL d   1      58.163  -0.462  30.772  0.00  0.00     0.102 A 
ATOM      7  C   UNL d   1      56.895   0.570  30.876  0.00  0.00     0.100 A 
ATOM      8  C   UNL d   1      57.668  -0.489  31.425  0.00  0.00     0.100 A 
ENDROOT
BRANCH   1   9
ATOM      9  C   UNL d   1      59.155  -0.376  29.419  0.00  0.00     0.137 A 
ATOM     10  C   UNL d   1      59.796  -0.872  29.326  0.00  0.00     0.018 A 
ATOM     11  C   UNL d   1      60.564  -0.591  29.479  0.00  0.00     0.119 A 
ATOM     12  O   UNL d   1      60.679   0.177  29.720  0.00  0.00    -0.304 OA
ATOM     13  C   UNL d   1      60.033   0.679  29.815  0.00  0.00     0.119 A 
ATOM     14  C   UNL d   1      59.268   0.404  29.665  0.00  0.00     0.018 A 
BRANCH   9  15
ATOM     15  C   UNL d   1      59.037  -1.158  29.173  0.00  0.00     0.023 A 
ATOM     16  S   UNL d   1      58.641  -1.407  28.488  0.00  0.00    -0.090 SA
ATOM     17  C   UNL d   1      58.651  -2.230  28.457  0.00  0.00     0.035 A 
ATOM     18  C   UNL d   1      59.050  -2.510  29.117  0.00  0.00     0.007 A 
ATOM     19  C   UNL d   1      59.290  -1.847  29.563  0.00  0.00     0.004 A 
ENDBRANCH   9  15
ENDBRANCH   1   9
BRANCH   3  20
ATOM     20  C   UNL d   1      56.548   0.000  32.118  0.00  0.00     0.092 A 
ATOM     21  C   UNL d   1      56.189  -0.707  32.332  0.00  0.00     0.156 A 
ATOM     22  F   UNL d   1      56.319  -1.381  31.901  0.00  0.00    -0.203 F 
ATOM     23  C   UNL d   1      55.699  -0.735  32.980  0.00  0.00     0.031 A 
ATOM     24  C   UNL d   1      55.561  -0.054  33.424  0.00  0.00     0.002 A 
ATOM     25  C   UNL d   1      55.923   0.656  33.206  0.00  0.00     0.002 A 
ATOM     26  C   UNL d   1      56.420   0.682  32.548  0.00  0.00     0.020 A 
ENDBRANCH   3  20
TORSDOF 3
ENDMDL
MODEL 2
REMARK VINA RESULT:      -4.5      0.875      1.585
REMARK  3 active torsions:
REMARK  status: ('A' for Active; 'I' for Inactive)
REMARK    1  A    between atoms: C_2  and  C_1 
REMARK    2  A    between atoms: C_4  and  C_1 
REMARK       I    between atoms: N_3  and  C_2 
REMARK    3  A    between atoms: C_6  and  N_5 
ROOT
ATOM      1  C   UNL d   1      58.527   0.084  29.381  0.00  0.00     0.253 C 
ATOM      2  N   UNL d   1      58.107   0.031  30.087  0.00  0.00    -0.272 N 
ATOM      3  N   UNL d   1      57.216  -0.011  31.450  0.00  0.00    -0.299 N 
ATOM      4  O   UNL d   1      58.273   0.592  28.787  0.00  0.00    -0.271 OA
ATOM      5  C   UNL d   1      57.438   0.499  30.167  0.00  0.00     0.102 A 
ATOM      6  C   UNL d   1      58.325  -0.455  30.690  0.00  0.00     0.102 A 
ATOM      7  C   UNL d   1      56.990   0.484  30.840  0.00  0.00     0.100 A 
ATOM      8  C   UNL d   1      57.882  -0.482  31.380  0.00  0.00     0.100 A 
ENDROOT
BRANCH   1   9
ATOM      9  C   UNL d   1      59.206  -0.371  29.263  0.00  0.00     0.137 A 
ATOM     10  C   UNL d   1      59.876  -0.820  29.147  0.00  0.00     0.018 A 
ATOM     11  C   UNL d   1      59.827  -1.544  28.740  0.00  0.00     0.119 A 
ATOM     12  O   UNL d   1      59.112  -1.807  28.456  0.00  0.00    -0.304 OA
ATOM     13  C   UNL d   1      58.433  -1.356  28.573  0.00  0.00     0.119 A 
ATOM     14  C   UNL d   1      58.477  -0.636  28.976  0.00  0.00     0.018 A 
BRANCH   9  15
ATOM     15  C   UNL d   1      59.933  -0.103  29.551  0.00  0.00     0.023 A 
ATOM     16  S   UNL d   1      60.486  -0.541  29.988  0.00  0.00    -0.090 SA
ATOM     17  C   UNL d   1      61.132  -0.061  30.162  0.00  0.00     0.035 A 
ATOM     18  C   UNL d   1      60.998   0.681  29.840  0.00  0.00     0.007 A 
ATOM     19  C   UNL d   1      60.255   0.659  29.460  0.00  0.00     0.004 A 
ENDBRANCH   9  15
ENDBRANCH   1   9
BRANCH   3  20
ATOM     20  C   UNL d   1      56.781  -0.039  32.131  0.00  0.00     0.092 A 
ATOM     21  C   UNL d   1      56.305  -0.690  32.289  0.00  0.00     0.156 A 
ATOM     22  F   UNL d   1      56.268  -1.308  31.766  0.00  0.00    -0.203 F 
ATOM     23  C   UNL d   1      55.868  -0.718  32.974  0.00  0.00     0.031 A 
ATOM     24  C   UNL d   1      55.901  -0.093  33.511  0.00  0.00     0.002 A 
ATOM     25  C   UNL d   1      56.379   0.560  33.350  0.00  0.00     0.002 A 
ATOM     26  C   UNL d   1      56.822   0.586  32.655  0.00  0.00     0.020 A 
ENDBRANCH   3  20
TORSDOF 3
ENDMDL
