MODEL 1
REMARK VINA RESULT:      13.9      0.000      0.000
REMARK  3 active torsions:
REMARK  status: ('A' for Active; 'I' for Inactive)
REMARK    1  A    between atoms: C_6  and  C_1 
REMARK    2  A    between atoms: O_9  and  C_6 
REMARK    3  A    between atoms: C_12  and  O_9 
ROOT
ATOM      1  C   UNL d   1      58.991  49.702  50.529  0.00  0.00     0.182 A 
ATOM      2  C   UNL d   1      58.620  49.705  49.779  0.00  0.00     0.133 A 
ATOM      3  O   UNL d   1      58.393  49.700  51.110  0.00  0.00    -0.300 OA
ATOM      4  C   UNL d   1      57.799  49.705  49.900  0.00  0.00     0.044 A 
ATOM      5  C   UNL d   1      57.655  49.702  50.722  0.00  0.00     0.102 A 
ATOM      6  N   UNL d   1      59.002  49.707  49.047  0.00  0.00    -0.146 N 
ATOM      7  C   UNL d   1      57.166  49.707  49.384  0.00  0.00     0.004 A 
ATOM      8  C   UNL d   1      56.882  49.702  50.996  0.00  0.00     0.025 A 
ATOM      9  C   UNL d   1      56.394  49.707  49.662  0.00  0.00     0.000 A 
ATOM     10  C   UNL d   1      56.250  49.704  50.478  0.00  0.00     0.002 A 
ENDROOT
BRANCH   1  11
ATOM     11  C   UNL d   1      59.803  49.701  50.672  0.00  0.00     0.325 C 
ATOM     12  O   UNL d   1      60.324  49.695  50.041  0.00  0.00    -0.257 OA
BRANCH  11  13
ATOM     13  O   UNL d   1      60.086  49.706  51.445  0.00  0.00    -0.269 OA
BRANCH  13  14
ATOM     14  C   UNL d   1      60.899  49.694  51.584  0.00  0.00     0.126 C 
ATOM     15  C   UNL d   1      61.185  49.623  52.355  0.00  0.00     0.029 C 
ENDBRANCH  13  14
ENDBRANCH  11  13
ENDBRANCH   1  11
TORSDOF 3
ENDMDL
MODEL 2
REMARK VINA RESULT:      15.7      1.205      3.565
REMARK  3 active torsions:
REMARK  status: ('A' for Active; 'I' for Inactive)
REMARK    1  A    between atoms: C_6  and  C_1 
REMARK    2  A    between atoms: O_9  and  C_6 
REMARK    3  A    between atoms: C_12  and  O_9 
ROOT
ATOM      1  C   UNL d   1      58.426  49.701  50.865  0.00  0.00     0.182 A 
ATOM      2  C   UNL d   1      58.852  49.704  51.586  0.00  0.00     0.133 A 
ATOM      3  O   UNL d   1      58.979  49.697  50.242  0.00  0.00    -0.300 OA
ATOM      4  C   UNL d   1      59.661  49.702  51.404  0.00  0.00     0.044 A 
ATOM      5  C   UNL d   1      59.744  49.698  50.574  0.00  0.00     0.102 A 
ATOM      6  N   UNL d   1      58.524  49.708  52.344  0.00  0.00    -0.146 N 
ATOM      7  C   UNL d   1      60.330  49.704  51.872  0.00  0.00     0.004 A 
ATOM      8  C   UNL d   1      60.494  49.696  50.244  0.00  0.00     0.025 A 
ATOM      9  C   UNL d   1      61.080  49.702  51.538  0.00  0.00     0.000 A 
ATOM     10  C   UNL d   1      61.163  49.698  50.713  0.00  0.00     0.002 A 
ENDROOT
BRANCH   1  11
ATOM     11  C   UNL d   1      57.606  49.701  50.782  0.00  0.00     0.325 C 
ATOM     12  O   UNL d   1      57.133  49.696  51.450  0.00  0.00    -0.257 OA
BRANCH  11  13
ATOM     13  O   UNL d   1      57.266  49.706  50.032  0.00  0.00    -0.269 OA
BRANCH  13  14
ATOM     14  C   UNL d   1      56.458  49.567  49.947  0.00  0.00     0.126 C 
ATOM     15  C   UNL d   1      56.112  49.589  49.199  0.00  0.00     0.029 C 
ENDBRANCH  13  14
ENDBRANCH  11  13
ENDBRANCH   1  11
TORSDOF 3
ENDMDL
