MODEL 1
REMARK VINA RESULT:      -7.9      0.000      0.000
REMARK  2 active torsions:
REMARK  status: ('A' for Active; 'I' for Inactive)
REMARK    1  A    between atoms: C_5  and  C_1 
REMARK    2  A    between atoms: C_7  and  C_5 
ROOT
ATOM      1  C   UNL d   1     -49.198  13.106  22.951  0.00  0.00     0.158 A 
ATOM      2  C   UNL d   1     -49.881  12.911  22.532  0.00  0.00     0.131 A 
ATOM      3  O   UNL d   1     -49.142  13.850  23.316  0.00  0.00    -0.302 OA
ATOM      4  C   UNL d   1     -50.447  14.214  22.849  0.00  0.00     0.044 A 
ATOM      5  C   UNL d   1     -49.764  14.408  23.268  0.00  0.00     0.102 A 
ATOM      6  N   UNL d   1     -49.936  12.179  22.173  0.00  0.00    -0.146 N 
ATOM      7  C   UNL d   1     -51.064  14.766  22.801  0.00  0.00     0.004 A 
ATOM      8  C   UNL d   1     -49.708  15.153  23.633  0.00  0.00     0.025 A 
ATOM      9  C   UNL d   1     -51.007  15.504  23.163  0.00  0.00     0.000 A 
ATOM     10  C   UNL d   1     -50.324  15.698  23.582  0.00  0.00     0.002 A 
ENDROOT
BRANCH   1  11
ATOM     11  C   UNL d   1     -48.589  12.563  22.999  0.00  0.00     0.220 C 
ATOM     12  O   UNL d   1     -48.749  11.807  23.238  0.00  0.00    -0.284 OA
BRANCH  11  13
ATOM     13  C   UNL d   1     -47.835  12.755  22.817  0.00  0.00     0.041 A 
ATOM     14  C   UNL d   1     -47.624  12.983  22.054  0.00  0.00     0.003 A 
ATOM     15  C   UNL d   1     -46.832  13.179  21.881  0.00  0.00     0.000 A 
ATOM     16  C   UNL d   1     -46.247  13.144  22.493  0.00  0.00     0.000 A 
ATOM     17  C   UNL d   1     -46.475  12.913  23.254  0.00  0.00     0.000 A 
ATOM     18  C   UNL d   1     -45.459  13.337  22.330  0.00  0.00     0.000 C 
ATOM     19  C   UNL d   1     -47.250  12.719  23.429  0.00  0.00     0.003 A 
ENDBRANCH  11  13
ENDBRANCH   1  11
TORSDOF 2
ENDMDL
MODEL 2
REMARK VINA RESULT:      -7.8      1.571      3.966
REMARK  2 active torsions:
REMARK  status: ('A' for Active; 'I' for Inactive)
REMARK    1  A    between atoms: C_5  and  C_1 
REMARK    2  A    between atoms: C_7  and  C_5 
ROOT
ATOM      1  C   UNL d   1     -47.488  13.677  22.932  0.00  0.00     0.158 A 
ATOM      2  C   UNL d   1     -46.685  13.823  22.819  0.00  0.00     0.131 A 
ATOM      3  O   UNL d   1     -47.734  12.922  23.180  0.00  0.00    -0.302 OA
ATOM      4  C   UNL d   1     -46.381  12.454  23.203  0.00  0.00     0.044 A 
ATOM      5  C   UNL d   1     -47.184  12.307  23.317  0.00  0.00     0.102 A 
ATOM      6  N   UNL d   1     -46.444  14.565  22.575  0.00  0.00    -0.146 N 
ATOM      7  C   UNL d   1     -45.835  11.844  23.339  0.00  0.00     0.004 A 
ATOM      8  C   UNL d   1     -47.430  11.553  23.565  0.00  0.00     0.025 A 
ATOM      9  C   UNL d   1     -46.079  11.097  23.585  0.00  0.00     0.000 A 
ATOM     10  C   UNL d   1     -46.882  10.950  23.698  0.00  0.00     0.002 A 
ENDROOT
BRANCH   1  11
ATOM     11  C   UNL d   1     -48.028  14.275  22.799  0.00  0.00     0.220 C 
ATOM     12  O   UNL d   1     -47.824  15.039  22.972  0.00  0.00    -0.284 OA
BRANCH  11  13
ATOM     13  C   UNL d   1     -48.756  14.132  22.502  0.00  0.00     0.041 A 
ATOM     14  C   UNL d   1     -48.857  13.862  21.730  0.00  0.00     0.003 A 
ATOM     15  C   UNL d   1     -49.624  13.718  21.435  0.00  0.00     0.000 A 
ATOM     16  C   UNL d   1     -50.297  13.849  21.932  0.00  0.00     0.000 A 
ATOM     17  C   UNL d   1     -50.178  14.120  22.705  0.00  0.00     0.000 A 
ATOM     18  C   UNL d   1     -51.061  13.708  21.649  0.00  0.00     0.000 C 
ATOM     19  C   UNL d   1     -49.429  14.263  22.999  0.00  0.00     0.003 A 
ENDBRANCH  11  13
ENDBRANCH   1  11
TORSDOF 2
ENDMDL
MODEL 3
REMARK VINA RESULT:      -7.6      0.867      3.661
REMARK  2 active torsions:
REMARK  status: ('A' for Active; 'I' for Inactive)
REMARK    1  A    between atoms: C_5  and  C_1 
REMARK    2  A    between atoms: C_7  and  C_5 
ROOT
ATOM      1  C   UNL d   1     -49.045  12.958  22.464  0.00  0.00     0.158 A 
ATOM      2  C   UNL d   1     -49.078  12.156  22.653  0.00  0.00     0.131 A 
ATOM      3  O   UNL d   1     -48.334  13.374  22.573  0.00  0.00    -0.302 OA
ATOM      4  C   UNL d   1     -47.681  12.195  23.059  0.00  0.00     0.044 A 
ATOM      5  C   UNL d   1     -47.648  12.996  22.870  0.00  0.00     0.102 A 
ATOM      6  N   UNL d   1     -49.777  11.747  22.546  0.00  0.00    -0.146 N 
ATOM      7  C   UNL d   1     -47.002  11.820  23.353  0.00  0.00     0.004 A 
ATOM      8  C   UNL d   1     -46.937  13.413  22.978  0.00  0.00     0.025 A 
ATOM      9  C   UNL d   1     -46.297  12.233  23.460  0.00  0.00     0.000 A 
ATOM     10  C   UNL d   1     -46.265  13.035  23.272  0.00  0.00     0.002 A 
ENDROOT
BRANCH   1  11
ATOM     11  C   UNL d   1     -49.713  13.329  22.174  0.00  0.00     0.220 C 
ATOM     12  O   UNL d   1     -50.067  13.042  21.506  0.00  0.00    -0.284 OA
BRANCH  11  13
ATOM     13  C   UNL d   1     -50.030  13.970  22.530  0.00  0.00     0.041 A 
ATOM     14  C   UNL d   1     -49.840  14.733  22.284  0.00  0.00     0.003 A 
ATOM     15  C   UNL d   1     -50.181  15.391  22.667  0.00  0.00     0.000 A 
ATOM     16  C   UNL d   1     -50.722  15.272  23.308  0.00  0.00     0.000 A 
ATOM     17  C   UNL d   1     -50.902  14.499  23.542  0.00  0.00     0.000 A 
ATOM     18  C   UNL d   1     -51.064  15.919  23.693  0.00  0.00     0.000 C 
ATOM     19  C   UNL d   1     -50.571  13.851  23.171  0.00  0.00     0.003 A 
ENDBRANCH  11  13
ENDBRANCH   1  11
TORSDOF 2
ENDMDL
MODEL 4
REMARK VINA RESULT:      -7.2      1.179      3.622
REMARK  2 active torsions:
REMARK  status: ('A' for Active; 'I' for Inactive)
REMARK    1  A    between atoms: C_5  and  C_1 
REMARK    2  A    between atoms: C_7  and  C_5 
ROOT
ATOM      1  C   UNL d   1     -48.184  12.349  23.077  0.00  0.00     0.158 A 
ATOM      2  C   UNL d   1     -47.704  11.714  23.291  0.00  0.00     0.131 A 
ATOM      3  O   UNL d   1     -47.834  13.049  22.798  0.00  0.00    -0.302 OA
ATOM      4  C   UNL d   1     -46.523  12.489  22.943  0.00  0.00     0.044 A 
ATOM      5  C   UNL d   1     -47.003  13.124  22.729  0.00  0.00     0.102 A 
ATOM      6  N   UNL d   1     -48.048  11.026  23.566  0.00  0.00    -0.146 N 
ATOM      7  C   UNL d   1     -45.699  12.563  22.874  0.00  0.00     0.004 A 
ATOM      8  C   UNL d   1     -46.652  13.824  22.450  0.00  0.00     0.025 A 
ATOM      9  C   UNL d   1     -45.353  13.257  22.597  0.00  0.00     0.000 A 
ATOM     10  C   UNL d   1     -45.833  13.892  22.384  0.00  0.00     0.002 A 
ENDROOT
BRANCH   1  11
ATOM     11  C   UNL d   1     -48.995  12.279  23.144  0.00  0.00     0.220 C 
ATOM     12  O   UNL d   1     -49.306  11.722  23.642  0.00  0.00    -0.284 OA
BRANCH  11  13
ATOM     13  C   UNL d   1     -49.496  12.745  22.731  0.00  0.00     0.041 A 
ATOM     14  C   UNL d   1     -49.734  12.546  21.968  0.00  0.00     0.003 A 
ATOM     15  C   UNL d   1     -50.258  13.044  21.551  0.00  0.00     0.000 A 
ATOM     16  C   UNL d   1     -50.544  13.753  21.916  0.00  0.00     0.000 A 
ATOM     17  C   UNL d   1     -50.296  13.938  22.683  0.00  0.00     0.000 A 
ATOM     18  C   UNL d   1     -51.064  14.252  21.510  0.00  0.00     0.000 C 
ATOM     19  C   UNL d   1     -49.783  13.454  23.096  0.00  0.00     0.003 A 
ENDBRANCH  11  13
ENDBRANCH   1  11
TORSDOF 2
ENDMDL
MODEL 5
REMARK VINA RESULT:      -6.8      1.459      2.005
REMARK  2 active torsions:
REMARK  status: ('A' for Active; 'I' for Inactive)
REMARK    1  A    between atoms: C_5  and  C_1 
REMARK    2  A    between atoms: C_7  and  C_5 
ROOT
ATOM      1  C   UNL d   1     -48.183  14.247  22.665  0.00  0.00     0.158 A 
ATOM      2  C   UNL d   1     -48.045  15.059  22.693  0.00  0.00     0.131 A 
ATOM      3  O   UNL d   1     -48.922  13.950  22.902  0.00  0.00    -0.302 OA
ATOM      4  C   UNL d   1     -49.393  15.270  23.198  0.00  0.00     0.044 A 
ATOM      5  C   UNL d   1     -49.531  14.458  23.170  0.00  0.00     0.102 A 
ATOM      6  N   UNL d   1     -47.318  15.350  22.460  0.00  0.00    -0.146 N 
ATOM      7  C   UNL d   1     -49.996  15.774  23.463  0.00  0.00     0.004 A 
ATOM      8  C   UNL d   1     -50.270  14.161  23.407  0.00  0.00     0.025 A 
ATOM      9  C   UNL d   1     -50.729  15.479  23.698  0.00  0.00     0.000 A 
ATOM     10  C   UNL d   1     -50.866  14.667  23.669  0.00  0.00     0.002 A 
ENDROOT
BRANCH   1  11
ATOM     11  C   UNL d   1     -47.590  13.748  22.404  0.00  0.00     0.220 C 
ATOM     12  O   UNL d   1     -47.091  13.997  21.818  0.00  0.00    -0.284 OA
BRANCH  11  13
ATOM     13  C   UNL d   1     -47.486  13.017  22.710  0.00  0.00     0.041 A 
ATOM     14  C   UNL d   1     -47.040  12.899  23.392  0.00  0.00     0.003 A 
ATOM     15  C   UNL d   1     -46.941  12.129  23.698  0.00  0.00     0.000 A 
ATOM     16  C   UNL d   1     -47.301  11.471  23.304  0.00  0.00     0.000 A 
ATOM     17  C   UNL d   1     -47.745  11.607  22.620  0.00  0.00     0.000 A 
ATOM     18  C   UNL d   1     -47.208  10.704  23.600  0.00  0.00     0.000 C 
ATOM     19  C   UNL d   1     -47.846  12.359  22.316  0.00  0.00     0.003 A 
ENDBRANCH  11  13
ENDBRANCH   1  11
TORSDOF 2
ENDMDL
MODEL 6
REMARK VINA RESULT:      -6.1      9.341     10.224
REMARK  2 active torsions:
REMARK  status: ('A' for Active; 'I' for Inactive)
REMARK    1  A    between atoms: C_5  and  C_1 
REMARK    2  A    between atoms: C_7  and  C_5 
ROOT
ATOM      1  C   UNL d   1     -40.263  14.714  18.974  0.00  0.00     0.158 A 
ATOM      2  C   UNL d   1     -40.599  15.458  19.086  0.00  0.00     0.131 A 
ATOM      3  O   UNL d   1     -39.805  14.377  19.581  0.00  0.00    -0.302 OA
ATOM      4  C   UNL d   1     -40.014  15.522  20.417  0.00  0.00     0.044 A 
ATOM      5  C   UNL d   1     -39.678  14.778  20.305  0.00  0.00     0.102 A 
ATOM      6  N   UNL d   1     -41.049  15.789  18.489  0.00  0.00    -0.146 N 
ATOM      7  C   UNL d   1     -39.888  15.920  21.134  0.00  0.00     0.004 A 
ATOM      8  C   UNL d   1     -39.220  14.441  20.912  0.00  0.00     0.025 A 
ATOM      9  C   UNL d   1     -39.435  15.585  21.735  0.00  0.00     0.000 A 
ATOM     10  C   UNL d   1     -39.099  14.841  21.623  0.00  0.00     0.002 A 
ENDROOT
BRANCH   1  11
ATOM     11  C   UNL d   1     -40.386  14.320  18.269  0.00  0.00     0.220 C 
ATOM     12  O   UNL d   1     -41.128  14.056  18.086  0.00  0.00    -0.284 OA
BRANCH  11  13
ATOM     13  C   UNL d   1     -39.793  14.187  17.749  0.00  0.00     0.041 A 
ATOM     14  C   UNL d   1     -39.533  14.778  17.238  0.00  0.00     0.003 A 
ATOM     15  C   UNL d   1     -38.913  14.621  16.701  0.00  0.00     0.000 A 
ATOM     16  C   UNL d   1     -38.554  13.854  16.684  0.00  0.00     0.000 A 
ATOM     17  C   UNL d   1     -38.828  13.272  17.205  0.00  0.00     0.000 A 
ATOM     18  C   UNL d   1     -37.939  13.690  16.156  0.00  0.00     0.000 C 
ATOM     19  C   UNL d   1     -39.435  13.420  17.732  0.00  0.00     0.003 A 
ENDBRANCH  11  13
ENDBRANCH   1  11
TORSDOF 2
ENDMDL
MODEL 7
REMARK VINA RESULT:      -5.7      9.738     10.495
REMARK  2 active torsions:
REMARK  status: ('A' for Active; 'I' for Inactive)
REMARK    1  A    between atoms: C_5  and  C_1 
REMARK    2  A    between atoms: C_7  and  C_5 
ROOT
ATOM      1  C   UNL d   1     -38.969  14.443  19.016  0.00  0.00     0.158 A 
ATOM      2  C   UNL d   1     -38.681  13.732  19.315  0.00  0.00     0.131 A 
ATOM      3  O   UNL d   1     -39.268  15.015  19.540  0.00  0.00    -0.302 OA
ATOM      4  C   UNL d   1     -38.994  14.172  20.666  0.00  0.00     0.044 A 
ATOM      5  C   UNL d   1     -39.283  14.884  20.367  0.00  0.00     0.102 A 
ATOM      6  N   UNL d   1     -38.387  13.170  18.799  0.00  0.00    -0.146 N 
ATOM      7  C   UNL d   1     -39.009  14.041  21.485  0.00  0.00     0.004 A 
ATOM      8  C   UNL d   1     -39.582  15.455  20.891  0.00  0.00     0.025 A 
ATOM      9  C   UNL d   1     -39.305  14.608  22.004  0.00  0.00     0.000 A 
ATOM     10  C   UNL d   1     -39.594  15.319  21.705  0.00  0.00     0.002 A 
ENDROOT
BRANCH   1  11
ATOM     11  C   UNL d   1     -38.956  14.574  18.210  0.00  0.00     0.220 C 
ATOM     12  O   UNL d   1     -38.282  14.414  17.792  0.00  0.00    -0.284 OA
BRANCH  11  13
ATOM     13  C   UNL d   1     -39.591  14.857  17.815  0.00  0.00     0.041 A 
ATOM     14  C   UNL d   1     -40.287  14.419  17.755  0.00  0.00     0.003 A 
ATOM     15  C   UNL d   1     -40.940  14.730  17.340  0.00  0.00     0.000 A 
ATOM     16  C   UNL d   1     -40.886  15.495  16.981  0.00  0.00     0.000 A 
ATOM     17  C   UNL d   1     -40.180  15.922  17.051  0.00  0.00     0.000 A 
ATOM     18  C   UNL d   1     -41.529  15.811  16.568  0.00  0.00     0.000 C 
ATOM     19  C   UNL d   1     -39.537  15.623  17.457  0.00  0.00     0.003 A 
ENDBRANCH  11  13
ENDBRANCH   1  11
TORSDOF 2
ENDMDL
MODEL 8
REMARK VINA RESULT:      -5.5      8.591      9.774
REMARK  2 active torsions:
REMARK  status: ('A' for Active; 'I' for Inactive)
REMARK    1  A    between atoms: C_5  and  C_1 
REMARK    2  A    between atoms: C_7  and  C_5 
ROOT
ATOM      1  C   UNL d   1     -40.486  15.038  20.006  0.00  0.00     0.158 A 
ATOM      2  C   UNL d   1     -40.929  14.422  19.684  0.00  0.00     0.131 A 
ATOM      3  O   UNL d   1     -39.947  15.448  19.524  0.00  0.00    -0.302 OA
ATOM      4  C   UNL d   1     -40.286  14.633  18.396  0.00  0.00     0.044 A 
ATOM      5  C   UNL d   1     -39.843  15.249  18.718  0.00  0.00     0.102 A 
ATOM      6  N   UNL d   1     -41.459  14.019  20.158  0.00  0.00    -0.146 N 
ATOM      7  C   UNL d   1     -40.183  14.435  17.597  0.00  0.00     0.004 A 
ATOM      8  C   UNL d   1     -39.304  15.659  18.236  0.00  0.00     0.025 A 
ATOM      9  C   UNL d   1     -39.649  14.842  17.120  0.00  0.00     0.000 A 
ATOM     10  C   UNL d   1     -39.206  15.458  17.442  0.00  0.00     0.002 A 
ENDROOT
BRANCH   1  11
ATOM     11  C   UNL d   1     -40.585  15.234  20.793  0.00  0.00     0.220 C 
ATOM     12  O   UNL d   1     -41.312  15.475  21.053  0.00  0.00    -0.284 OA
BRANCH  11  13
ATOM     13  C   UNL d   1     -39.984  15.196  21.318  0.00  0.00     0.041 A 
ATOM     14  C   UNL d   1     -39.665  14.473  21.551  0.00  0.00     0.003 A 
ATOM     15  C   UNL d   1     -39.038  14.452  22.101  0.00  0.00     0.000 A 
ATOM     16  C   UNL d   1     -38.731  15.175  22.418  0.00  0.00     0.000 A 
ATOM     17  C   UNL d   1     -39.063  15.892  22.174  0.00  0.00     0.000 A 
ATOM     18  C   UNL d   1     -38.110  15.163  22.964  0.00  0.00     0.000 C 
ATOM     19  C   UNL d   1     -39.678  15.919  21.636  0.00  0.00     0.003 A 
ENDBRANCH  11  13
ENDBRANCH   1  11
TORSDOF 2
ENDMDL
MODEL 9
REMARK VINA RESULT:      -5.3      8.510     10.942
REMARK  2 active torsions:
REMARK  status: ('A' for Active; 'I' for Inactive)
REMARK    1  A    between atoms: C_5  and  C_1 
REMARK    2  A    between atoms: C_7  and  C_5 
ROOT
ATOM      1  C   UNL d   1     -38.561  14.336  19.125  0.00  0.00     0.158 A 
ATOM      2  C   UNL d   1     -38.228  13.583  19.107  0.00  0.00     0.131 A 
ATOM      3  O   UNL d   1     -38.784  14.700  18.412  0.00  0.00    -0.302 OA
ATOM      4  C   UNL d   1     -38.343  13.566  17.657  0.00  0.00     0.044 A 
ATOM      5  C   UNL d   1     -38.677  14.319  17.675  0.00  0.00     0.102 A 
ATOM      6  N   UNL d   1     -38.009  13.224  19.808  0.00  0.00    -0.146 N 
ATOM      7  C   UNL d   1     -38.236  13.187  16.927  0.00  0.00     0.004 A 
ATOM      8  C   UNL d   1     -38.899  14.683  16.962  0.00  0.00     0.025 A 
ATOM      9  C   UNL d   1     -38.457  13.549  16.221  0.00  0.00     0.000 A 
ATOM     10  C   UNL d   1     -38.791  14.302  16.238  0.00  0.00     0.002 A 
ENDROOT
BRANCH   1  11
ATOM     11  C   UNL d   1     -38.667  14.711  19.843  0.00  0.00     0.220 C 
ATOM     12  O   UNL d   1     -38.022  14.890  20.297  0.00  0.00    -0.284 OA
BRANCH  11  13
ATOM     13  C   UNL d   1     -39.392  14.908  20.116  0.00  0.00     0.041 A 
ATOM     14  C   UNL d   1     -39.878  14.350  20.480  0.00  0.00     0.003 A 
ATOM     15  C   UNL d   1     -40.632  14.573  20.759  0.00  0.00     0.000 A 
ATOM     16  C   UNL d   1     -40.895  15.373  20.667  0.00  0.00     0.000 A 
ATOM     17  C   UNL d   1     -40.395  15.920  20.299  0.00  0.00     0.000 A 
ATOM     18  C   UNL d   1     -41.641  15.603  20.941  0.00  0.00     0.000 C 
ATOM     19  C   UNL d   1     -39.656  15.708  20.024  0.00  0.00     0.003 A 
ENDBRANCH  11  13
ENDBRANCH   1  11
TORSDOF 2
ENDMDL
