MODEL 1
REMARK VINA RESULT:      -9.9      0.000      0.000
REMARK  1 active torsions:
REMARK  status: ('A' for Active; 'I' for Inactive)
REMARK    1  A    between atoms: C_8  and  C_3 
ROOT
ATOM      1  C   UNL d   1      52.787  34.287  53.964  0.00  0.00     0.199 A 
ATOM      2  C   UNL d   1      52.756  32.998  53.585  0.00  0.00     0.199 A 
ATOM      3  C   UNL d   1      52.387  33.738  53.504  0.00  0.00     0.078 A 
ATOM      4  C   UNL d   1      53.415  33.913  54.346  0.00  0.00     0.042 A 
ATOM      5  C   UNL d   1      53.395  33.114  54.111  0.00  0.00     0.042 A 
ATOM      6  O   UNL d   1      52.522  32.273  53.205  0.00  0.00    -0.286 OA
ATOM      7  O   UNL d   1      52.590  35.112  54.039  0.00  0.00    -0.286 OA
ATOM      8  C   UNL d   1      53.954  32.579  54.395  0.00  0.00     0.003 A 
ATOM      9  C   UNL d   1      53.992  34.171  54.863  0.00  0.00     0.003 A 
ATOM     10  C   UNL d   1      54.539  32.849  54.920  0.00  0.00     0.000 A 
ATOM     11  C   UNL d   1      54.558  33.648  55.155  0.00  0.00     0.000 A 
ENDROOT
BRANCH   3  12
ATOM     12  C   UNL d   1      51.727  33.915  53.043  0.00  0.00     0.009 A 
ATOM     13  C   UNL d   1      50.974  33.875  53.377  0.00  0.00     0.021 A 
ATOM     14  C   UNL d   1      50.320  34.051  52.920  0.00  0.00     0.099 A 
ATOM     15  N   UNL d   1      50.375  34.269  52.135  0.00  0.00    -0.242 NA
ATOM     16  C   UNL d   1      51.152  34.305  51.809  0.00  0.00     0.099 A 
ATOM     17  C   UNL d   1      51.813  34.127  52.271  0.00  0.00     0.021 A 
ENDBRANCH   3  12
TORSDOF 1
ENDMDL
MODEL 2
REMARK VINA RESULT:      -9.5      1.731      2.630
REMARK  1 active torsions:
REMARK  status: ('A' for Active; 'I' for Inactive)
REMARK    1  A    between atoms: C_8  and  C_3 
ROOT
ATOM      1  C   UNL d   1      52.568  32.642  53.427  0.00  0.00     0.199 A 
ATOM      2  C   UNL d   1      53.833  32.535  53.870  0.00  0.00     0.199 A 
ATOM      3  C   UNL d   1      53.190  33.053  53.769  0.00  0.00     0.078 A 
ATOM      4  C   UNL d   1      52.797  31.861  53.302  0.00  0.00     0.042 A 
ATOM      5  C   UNL d   1      53.580  31.794  53.577  0.00  0.00     0.042 A 
ATOM      6  O   UNL d   1      54.591  32.731  54.205  0.00  0.00    -0.286 OA
ATOM      7  O   UNL d   1      51.806  32.967  53.229  0.00  0.00    -0.286 OA
ATOM      8  C   UNL d   1      53.982  31.075  53.534  0.00  0.00     0.003 A 
ATOM      9  C   UNL d   1      52.420  31.208  52.987  0.00  0.00     0.003 A 
ATOM     10  C   UNL d   1      53.591  30.416  53.212  0.00  0.00     0.000 A 
ATOM     11  C   UNL d   1      52.808  30.482  52.938  0.00  0.00     0.000 A 
ENDROOT
BRANCH   3  12
ATOM     12  C   UNL d   1      53.160  33.852  53.971  0.00  0.00     0.009 A 
ATOM     13  C   UNL d   1      53.153  34.070  54.766  0.00  0.00     0.021 A 
ATOM     14  C   UNL d   1      53.123  34.862  54.967  0.00  0.00     0.099 A 
ATOM     15  N   UNL d   1      53.100  35.458  54.409  0.00  0.00    -0.242 NA
ATOM     16  C   UNL d   1      53.109  35.217  53.601  0.00  0.00     0.099 A 
ATOM     17  C   UNL d   1      53.139  34.418  53.398  0.00  0.00     0.021 A 
ENDBRANCH   3  12
TORSDOF 1
ENDMDL
MODEL 3
REMARK VINA RESULT:      -9.1      1.848      2.874
REMARK  1 active torsions:
REMARK  status: ('A' for Active; 'I' for Inactive)
REMARK    1  A    between atoms: C_8  and  C_3 
ROOT
ATOM      1  C   UNL d   1      52.811  33.017  53.109  0.00  0.00     0.199 A 
ATOM      2  C   UNL d   1      53.405  32.822  54.298  0.00  0.00     0.199 A 
ATOM      3  C   UNL d   1      53.128  32.449  53.608  0.00  0.00     0.078 A 
ATOM      4  C   UNL d   1      52.878  33.757  53.464  0.00  0.00     0.042 A 
ATOM      5  C   UNL d   1      53.246  33.636  54.201  0.00  0.00     0.042 A 
ATOM      6  O   UNL d   1      53.775  32.440  54.964  0.00  0.00    -0.286 OA
ATOM      7  O   UNL d   1      52.467  32.871  52.344  0.00  0.00    -0.286 OA
ATOM      8  C   UNL d   1      53.398  34.271  54.705  0.00  0.00     0.003 A 
ATOM      9  C   UNL d   1      52.664  34.512  53.236  0.00  0.00     0.003 A 
ATOM     10  C   UNL d   1      53.178  35.036  54.465  0.00  0.00     0.000 A 
ATOM     11  C   UNL d   1      52.809  35.157  53.728  0.00  0.00     0.000 A 
ENDROOT
BRANCH   3  12
ATOM     12  C   UNL d   1      53.157  31.644  53.434  0.00  0.00     0.009 A 
ATOM     13  C   UNL d   1      52.456  31.213  53.385  0.00  0.00     0.021 A 
ATOM     14  C   UNL d   1      52.484  30.415  53.212  0.00  0.00     0.099 A 
ATOM     15  N   UNL d   1      53.185  30.016  53.082  0.00  0.00    -0.242 NA
ATOM     16  C   UNL d   1      53.893  30.472  53.135  0.00  0.00     0.099 A 
ATOM     17  C   UNL d   1      53.864  31.278  53.310  0.00  0.00     0.021 A 
ENDBRANCH   3  12
TORSDOF 1
ENDMDL
MODEL 4
REMARK VINA RESULT:      -8.7      1.531      3.222
REMARK  1 active torsions:
REMARK  status: ('A' for Active; 'I' for Inactive)
REMARK    1  A    between atoms: C_8  and  C_3 
ROOT
ATOM      1  C   UNL d   1      52.694  34.328  53.676  0.00  0.00     0.199 A 
ATOM      2  C   UNL d   1      52.524  32.996  53.633  0.00  0.00     0.199 A 
ATOM      3  C   UNL d   1      53.045  33.607  53.848  0.00  0.00     0.078 A 
ATOM      4  C   UNL d   1      51.950  34.196  53.350  0.00  0.00     0.042 A 
ATOM      5  C   UNL d   1      51.844  33.370  53.324  0.00  0.00     0.042 A 
ATOM      6  O   UNL d   1      52.665  32.160  53.715  0.00  0.00    -0.286 OA
ATOM      7  O   UNL d   1      53.041  35.095  53.810  0.00  0.00    -0.286 OA
ATOM      8  C   UNL d   1      51.148  33.044  53.024  0.00  0.00     0.003 A 
ATOM      9  C   UNL d   1      51.359  34.690  53.078  0.00  0.00     0.003 A 
ATOM     10  C   UNL d   1      50.552  33.554  52.749  0.00  0.00     0.000 A 
ATOM     11  C   UNL d   1      50.657  34.380  52.776  0.00  0.00     0.000 A 
ENDROOT
BRANCH   3  12
ATOM     12  C   UNL d   1      53.795  33.526  54.180  0.00  0.00     0.009 A 
ATOM     13  C   UNL d   1      53.891  33.615  54.994  0.00  0.00     0.021 A 
ATOM     14  C   UNL d   1      54.635  33.534  55.324  0.00  0.00     0.099 A 
ATOM     15  N   UNL d   1      55.299  33.367  54.880  0.00  0.00    -0.242 NA
ATOM     16  C   UNL d   1      55.183  33.279  54.049  0.00  0.00     0.099 A 
ATOM     17  C   UNL d   1      54.432  33.360  53.716  0.00  0.00     0.021 A 
ENDBRANCH   3  12
TORSDOF 1
ENDMDL
MODEL 5
REMARK VINA RESULT:      -7.7      1.877      3.651
REMARK  1 active torsions:
REMARK  status: ('A' for Active; 'I' for Inactive)
REMARK    1  A    between atoms: C_8  and  C_3 
ROOT
ATOM      1  C   UNL d   1      53.693  32.273  53.852  0.00  0.00     0.199 A 
ATOM      2  C   UNL d   1      53.005  33.423  53.960  0.00  0.00     0.199 A 
ATOM      3  C   UNL d   1      53.709  33.031  54.165  0.00  0.00     0.078 A 
ATOM      4  C   UNL d   1      52.985  32.164  53.445  0.00  0.00     0.042 A 
ATOM      5  C   UNL d   1      52.559  32.877  53.511  0.00  0.00     0.042 A 
ATOM      6  O   UNL d   1      52.792  34.220  54.170  0.00  0.00    -0.286 OA
ATOM      7  O   UNL d   1      54.306  31.688  53.933  0.00  0.00    -0.286 OA
ATOM      8  C   UNL d   1      51.817  32.958  53.162  0.00  0.00     0.003 A 
ATOM      9  C   UNL d   1      52.666  31.537  53.029  0.00  0.00     0.003 A 
ATOM     10  C   UNL d   1      51.499  32.315  52.740  0.00  0.00     0.000 A 
ATOM     11  C   UNL d   1      51.925  31.602  52.674  0.00  0.00     0.000 A 
ENDROOT
BRANCH   3  12
ATOM     12  C   UNL d   1      54.335  33.334  54.608  0.00  0.00     0.009 A 
ATOM     13  C   UNL d   1      54.986  33.663  54.223  0.00  0.00     0.021 A 
ATOM     14  C   UNL d   1      55.606  33.963  54.663  0.00  0.00     0.099 A 
ATOM     15  N   UNL d   1      55.613  33.954  55.479  0.00  0.00    -0.242 NA
ATOM     16  C   UNL d   1      54.939  33.615  55.857  0.00  0.00     0.099 A 
ATOM     17  C   UNL d   1      54.313  33.311  55.414  0.00  0.00     0.021 A 
ENDBRANCH   3  12
TORSDOF 1
ENDMDL
