MODEL 1
REMARK VINA RESULT:      97.2      0.000      0.000
REMARK  7 active torsions:
REMARK  status: ('A' for Active; 'I' for Inactive)
REMARK    1  A    between atoms: C_7  and  C_1 
REMARK    2  A    between atoms: N_5  and  C_2 
REMARK       I    between atoms: C_8  and  N_5 
REMARK    3  A    between atoms: N_9  and  C_7 
REMARK    4  A    between atoms: C_12  and  C_7 
REMARK    5  A    between atoms: C_10  and  C_8 
REMARK    6  A    between atoms: C_26  and  N_11 
REMARK    7  A    between atoms: C_30  and  C_26 
ROOT
ATOM      1  C   UNL d   1     -50.486  25.894  34.018  0.00  0.00     0.068 C 
ENDROOT
BRANCH   1   2
ATOM      2  C   UNL d   1     -50.336  26.616  34.452  0.00  0.00     0.041 A 
ATOM      3  C   UNL d   1     -50.540  26.873  35.194  0.00  0.00     0.115 A 
ATOM      4  S   UNL d   1     -50.222  27.631  35.283  0.00  0.00    -0.068 SA
ATOM      5  C   UNL d   1     -49.818  27.865  34.613  0.00  0.00     0.031 A 
ATOM      6  C   UNL d   1     -49.882  27.217  34.063  0.00  0.00     0.009 A 
ATOM      7  C   UNL d   1     -49.430  28.578  34.496  0.00  0.00     0.007 C 
ATOM      8  C   UNL d   1     -49.560  27.198  33.308  0.00  0.00     0.001 C 
BRANCH   3   9
ATOM      9  N   UNL d   1     -50.976  26.469  35.755  0.00  0.00    -0.200 NA
ATOM     10  C   UNL d   1     -50.967  26.737  36.537  0.00  0.00     0.302 C 
ATOM     11  O   UNL d   1     -50.521  27.403  36.740  0.00  0.00    -0.263 OA
BRANCH  10  12
ATOM     12  C   UNL d   1     -51.397  26.350  37.124  0.00  0.00     0.158 A 
ATOM     13  O   UNL d   1     -52.225  26.334  37.258  0.00  0.00    -0.300 OA
ATOM     14  C   UNL d   1     -52.350  25.859  37.923  0.00  0.00     0.123 A 
ATOM     15  C   UNL d   1     -51.617  25.600  38.178  0.00  0.00     0.029 A 
ATOM     16  C   UNL d   1     -51.017  25.892  37.699  0.00  0.00     0.032 A 
ENDBRANCH  10  12
ENDBRANCH   3   9
ENDBRANCH   1   2
BRANCH   1  17
ATOM     17  N   UNL d   1     -51.300  25.698  33.839  0.00  0.00    -0.301 N 
ATOM     18  C   UNL d   1     -51.772  26.284  33.507  0.00  0.00     0.100 A 
ATOM     19  C   UNL d   1     -52.555  26.098  33.334  0.00  0.00     0.100 A 
ATOM     20  N   UNL d   1     -52.863  25.328  33.492  0.00  0.00    -0.297 N 
ATOM     21  C   UNL d   1     -52.379  24.772  33.817  0.00  0.00     0.100 A 
ATOM     22  C   UNL d   1     -51.609  24.929  33.997  0.00  0.00     0.100 A 
BRANCH  20  23
ATOM     23  C   UNL d   1     -53.668  25.154  33.308  0.00  0.00     0.126 C 
BRANCH  23  24
ATOM     24  C   UNL d   1     -53.956  24.361  33.351  0.00  0.00     0.253 C 
ATOM     25  O   UNL d   1     -54.286  24.068  34.066  0.00  0.00    -0.281 OA
ENDBRANCH  23  24
ENDBRANCH  20  23
ENDBRANCH   1  17
BRANCH   1  26
ATOM     26  C   UNL d   1     -49.857  25.393  33.778  0.00  0.00     0.035 A 
ATOM     27  C   UNL d   1     -49.984  24.567  33.767  0.00  0.00     0.100 A 
ATOM     28  N   UNL d   1     -49.352  24.065  33.525  0.00  0.00    -0.242 NA
ATOM     29  C   UNL d   1     -48.631  24.417  33.309  0.00  0.00     0.099 A 
ATOM     30  C   UNL d   1     -48.514  25.215  33.322  0.00  0.00     0.021 A 
ATOM     31  C   UNL d   1     -49.146  25.718  33.563  0.00  0.00     0.005 A 
ENDBRANCH   1  26
TORSDOF 7
ENDMDL
MODEL 2
REMARK VINA RESULT:      97.5      1.775      4.112
REMARK  7 active torsions:
REMARK  status: ('A' for Active; 'I' for Inactive)
REMARK    1  A    between atoms: C_7  and  C_1 
REMARK    2  A    between atoms: N_5  and  C_2 
REMARK       I    between atoms: C_8  and  N_5 
REMARK    3  A    between atoms: N_9  and  C_7 
REMARK    4  A    between atoms: C_12  and  C_7 
REMARK    5  A    between atoms: C_10  and  C_8 
REMARK    6  A    between atoms: C_26  and  N_11 
REMARK    7  A    between atoms: C_30  and  C_26 
ROOT
ATOM      1  C   UNL d   1     -51.930  25.808  34.466  0.00  0.00     0.068 C 
ENDROOT
BRANCH   1   2
ATOM      2  C   UNL d   1     -52.130  25.100  34.029  0.00  0.00     0.041 A 
ATOM      3  C   UNL d   1     -51.691  24.565  33.606  0.00  0.00     0.115 A 
ATOM      4  S   UNL d   1     -52.217  23.998  33.313  0.00  0.00    -0.068 SA
ATOM      5  C   UNL d   1     -52.985  24.159  33.540  0.00  0.00     0.031 A 
ATOM      6  C   UNL d   1     -52.946  24.872  34.006  0.00  0.00     0.009 A 
ATOM      7  C   UNL d   1     -53.654  23.723  33.356  0.00  0.00     0.007 C 
ATOM      8  C   UNL d   1     -53.586  25.249  34.356  0.00  0.00     0.001 C 
BRANCH   3   9
ATOM      9  N   UNL d   1     -50.882  24.572  33.485  0.00  0.00    -0.200 NA
ATOM     10  C   UNL d   1     -50.449  23.882  33.628  0.00  0.00     0.302 C 
ATOM     11  O   UNL d   1     -50.836  23.201  33.889  0.00  0.00    -0.263 OA
BRANCH  10  12
ATOM     12  C   UNL d   1     -49.633  23.861  33.514  0.00  0.00     0.158 A 
ATOM     13  O   UNL d   1     -49.113  23.204  33.492  0.00  0.00    -0.300 OA
ATOM     14  C   UNL d   1     -48.354  23.505  33.361  0.00  0.00     0.123 A 
ATOM     15  C   UNL d   1     -48.421  24.318  33.307  0.00  0.00     0.029 A 
ATOM     16  C   UNL d   1     -49.202  24.557  33.399  0.00  0.00     0.032 A 
ENDBRANCH  10  12
ENDBRANCH   3   9
ENDBRANCH   1   2
BRANCH   1  17
ATOM     17  N   UNL d   1     -52.025  25.792  35.317  0.00  0.00    -0.301 N 
ATOM     18  C   UNL d   1     -51.412  26.090  35.778  0.00  0.00     0.100 A 
ATOM     19  C   UNL d   1     -51.502  26.076  36.595  0.00  0.00     0.100 A 
ATOM     20  N   UNL d   1     -52.202  25.764  36.950  0.00  0.00    -0.297 N 
ATOM     21  C   UNL d   1     -52.787  25.478  36.476  0.00  0.00     0.100 A 
ATOM     22  C   UNL d   1     -52.724  25.480  35.672  0.00  0.00     0.100 A 
BRANCH  20  23
ATOM     23  C   UNL d   1     -52.277  25.757  37.791  0.00  0.00     0.126 C 
BRANCH  23  24
ATOM     24  C   UNL d   1     -52.690  25.130  38.179  0.00  0.00     0.253 C 
ATOM     25  O   UNL d   1     -53.202  24.626  37.744  0.00  0.00    -0.281 OA
ENDBRANCH  23  24
ENDBRANCH  20  23
ENDBRANCH   1  17
BRANCH   1  26
ATOM     26  C   UNL d   1     -51.650  26.495  34.074  0.00  0.00     0.035 A 
ATOM     27  C   UNL d   1     -52.205  26.999  33.705  0.00  0.00     0.100 A 
ATOM     28  N   UNL d   1     -51.924  27.689  33.311  0.00  0.00    -0.242 NA
ATOM     29  C   UNL d   1     -51.105  27.834  33.310  0.00  0.00     0.099 A 
ATOM     30  C   UNL d   1     -50.574  27.344  33.668  0.00  0.00     0.021 A 
ATOM     31  C   UNL d   1     -50.855  26.654  34.062  0.00  0.00     0.005 A 
ENDBRANCH   1  26
TORSDOF 7
ENDMDL
