MODEL 1
REMARK VINA RESULT:      -7.9      0.000      0.000
REMARK  5 active torsions:
REMARK  status: ('A' for Active; 'I' for Inactive)
REMARK    1  A    between atoms: C_9  and  N_2 
REMARK    2  A    between atoms: C_7  and  O_10 
REMARK    3  A    between atoms: O_11  and  C_8 
REMARK    4  A    between atoms: C_12  and  C_9 
REMARK    5  A    between atoms: O_10  and  C_12 
ROOT
ATOM      1  C   UNL d   1      54.092  32.511  53.916  0.00  0.00     0.110 C 
ENDROOT
BRANCH   1   2
ATOM      2  N   UNL d   1      53.919  33.222  54.298  0.00  0.00    -0.266 N 
ATOM      3  C   UNL d   1      54.173  33.440  55.049  0.00  0.00     0.296 A 
ATOM      4  S   UNL d   1      53.866  34.203  55.208  0.00  0.00    -0.025 SA
ATOM      5  O   UNL d   1      54.641  32.995  55.555  0.00  0.00    -0.259 OA
ATOM      6  C   UNL d   1      53.427  34.441  54.548  0.00  0.00     0.050 A 
ATOM      7  C   UNL d   1      53.003  35.137  54.394  0.00  0.00     0.008 A 
ATOM      8  C   UNL d   1      53.460  33.840  53.990  0.00  0.00     0.074 A 
ATOM      9  C   UNL d   1      52.612  35.215  53.667  0.00  0.00     0.001 A 
ATOM     10  C   UNL d   1      52.645  34.614  53.109  0.00  0.00     0.002 A 
ATOM     11  C   UNL d   1      53.069  33.921  53.265  0.00  0.00     0.018 A 
ENDBRANCH   1   2
BRANCH   1  12
ATOM     12  C   UNL d   1      53.570  31.877  53.958  0.00  0.00     0.142 C 
BRANCH  12  13
ATOM     13  O   UNL d   1      53.842  31.097  53.931  0.00  0.00    -0.302 OA
BRANCH  13  14
ATOM     14  C   UNL d   1      53.381  30.506  53.585  0.00  0.00     0.122 A 
ATOM     15  C   UNL d   1      53.260  29.793  53.982  0.00  0.00     0.117 A 
ATOM     16  C   UNL d   1      52.801  29.207  53.638  0.00  0.00     0.026 A 
ATOM     17  C   UNL d   1      52.463  29.333  52.896  0.00  0.00     0.002 A 
ATOM     18  C   UNL d   1      52.587  30.050  52.499  0.00  0.00     0.002 A 
ATOM     19  C   UNL d   1      53.048  30.633  52.852  0.00  0.00     0.027 A 
BRANCH  15  20
ATOM     20  O   UNL d   1      53.586  29.636  54.730  0.00  0.00    -0.326 OA
ATOM     21  C   UNL d   1      53.467  28.897  55.079  0.00  0.00     0.181 C 
ENDBRANCH  15  20
ENDBRANCH  13  14
ENDBRANCH  12  13
ENDBRANCH   1  12
TORSDOF 5
ENDMDL
MODEL 2
REMARK VINA RESULT:      -7.5      2.655      4.499
REMARK  5 active torsions:
REMARK  status: ('A' for Active; 'I' for Inactive)
REMARK    1  A    between atoms: C_9  and  N_2 
REMARK    2  A    between atoms: C_7  and  O_10 
REMARK    3  A    between atoms: O_11  and  C_8 
REMARK    4  A    between atoms: C_12  and  C_9 
REMARK    5  A    between atoms: O_10  and  C_12 
ROOT
ATOM      1  C   UNL d   1      52.379  33.588  52.713  0.00  0.00     0.110 C 
ENDROOT
BRANCH   1   2
ATOM      2  N   UNL d   1      52.802  33.057  53.181  0.00  0.00    -0.266 N 
ATOM      3  C   UNL d   1      52.818  32.240  53.089  0.00  0.00     0.296 A 
ATOM      4  S   UNL d   1      53.318  31.927  53.685  0.00  0.00    -0.025 SA
ATOM      5  O   UNL d   1      52.420  31.804  52.519  0.00  0.00    -0.259 OA
ATOM      6  C   UNL d   1      53.601  32.562  54.134  0.00  0.00     0.050 A 
ATOM      7  C   UNL d   1      54.110  32.586  54.789  0.00  0.00     0.008 A 
ATOM      8  C   UNL d   1      53.285  33.254  53.826  0.00  0.00     0.074 A 
ATOM      9  C   UNL d   1      54.295  33.321  55.126  0.00  0.00     0.001 A 
ATOM     10  C   UNL d   1      53.979  34.013  54.817  0.00  0.00     0.002 A 
ATOM     11  C   UNL d   1      53.471  33.986  54.164  0.00  0.00     0.018 A 
ENDBRANCH   1   2
BRANCH   1  12
ATOM     12  C   UNL d   1      51.586  33.740  52.868  0.00  0.00     0.142 C 
BRANCH  12  13
ATOM     13  O   UNL d   1      51.099  34.091  52.299  0.00  0.00    -0.302 OA
BRANCH  13  14
ATOM     14  C   UNL d   1      50.389  34.449  52.521  0.00  0.00     0.122 A 
ATOM     15  C   UNL d   1      49.759  34.477  51.989  0.00  0.00     0.117 A 
ATOM     16  C   UNL d   1      49.054  34.833  52.210  0.00  0.00     0.026 A 
ATOM     17  C   UNL d   1      48.979  35.161  52.964  0.00  0.00     0.002 A 
ATOM     18  C   UNL d   1      49.614  35.131  53.495  0.00  0.00     0.002 A 
ATOM     19  C   UNL d   1      50.317  34.772  53.265  0.00  0.00     0.027 A 
BRANCH  15  20
ATOM     20  O   UNL d   1      49.804  34.156  51.224  0.00  0.00    -0.326 OA
ATOM     21  C   UNL d   1      49.216  34.338  50.672  0.00  0.00     0.181 C 
ENDBRANCH  15  20
ENDBRANCH  13  14
ENDBRANCH  12  13
ENDBRANCH   1  12
TORSDOF 5
ENDMDL
MODEL 3
REMARK VINA RESULT:      -7.3      3.072      4.878
REMARK  5 active torsions:
REMARK  status: ('A' for Active; 'I' for Inactive)
REMARK    1  A    between atoms: C_9  and  N_2 
REMARK    2  A    between atoms: C_7  and  O_10 
REMARK    3  A    between atoms: O_11  and  C_8 
REMARK    4  A    between atoms: C_12  and  C_9 
REMARK    5  A    between atoms: O_10  and  C_12 
ROOT
ATOM      1  C   UNL d   1      51.811  34.334  52.727  0.00  0.00     0.110 C 
ENDROOT
BRANCH   1   2
ATOM      2  N   UNL d   1      52.389  34.116  53.273  0.00  0.00    -0.266 N 
ATOM      3  C   UNL d   1      52.734  34.609  53.833  0.00  0.00     0.296 A 
ATOM      4  S   UNL d   1      53.289  34.154  54.265  0.00  0.00    -0.025 SA
ATOM      5  O   UNL d   1      52.569  35.405  53.952  0.00  0.00    -0.259 OA
ATOM      6  C   UNL d   1      53.275  33.384  53.960  0.00  0.00     0.050 A 
ATOM      7  C   UNL d   1      53.701  32.704  54.169  0.00  0.00     0.008 A 
ATOM      8  C   UNL d   1      52.723  33.361  53.353  0.00  0.00     0.074 A 
ATOM      9  C   UNL d   1      53.561  32.001  53.753  0.00  0.00     0.001 A 
ATOM     10  C   UNL d   1      53.010  31.978  53.145  0.00  0.00     0.002 A 
ATOM     11  C   UNL d   1      52.586  32.657  52.940  0.00  0.00     0.018 A 
ENDBRANCH   1   2
BRANCH   1  12
ATOM     12  C   UNL d   1      51.032  34.447  52.966  0.00  0.00     0.142 C 
BRANCH  12  13
ATOM     13  O   UNL d   1      50.406  34.371  52.432  0.00  0.00    -0.302 OA
BRANCH  13  14
ATOM     14  C   UNL d   1      49.694  34.769  52.563  0.00  0.00     0.122 A 
ATOM     15  C   UNL d   1      49.133  34.816  51.961  0.00  0.00     0.117 A 
ATOM     16  C   UNL d   1      48.426  35.213  52.093  0.00  0.00     0.026 A 
ATOM     17  C   UNL d   1      48.282  35.562  52.827  0.00  0.00     0.002 A 
ATOM     18  C   UNL d   1      48.849  35.512  53.429  0.00  0.00     0.002 A 
ATOM     19  C   UNL d   1      49.554  35.113  53.289  0.00  0.00     0.027 A 
BRANCH  15  20
ATOM     20  O   UNL d   1      49.248  34.476  51.213  0.00  0.00    -0.326 OA
ATOM     21  C   UNL d   1      48.623  34.461  50.672  0.00  0.00     0.181 C 
ENDBRANCH  15  20
ENDBRANCH  13  14
ENDBRANCH  12  13
ENDBRANCH   1  12
TORSDOF 5
ENDMDL
MODEL 4
REMARK VINA RESULT:      -7.0      1.796      4.531
REMARK  5 active torsions:
REMARK  status: ('A' for Active; 'I' for Inactive)
REMARK    1  A    between atoms: C_9  and  N_2 
REMARK    2  A    between atoms: C_7  and  O_10 
REMARK    3  A    between atoms: O_11  and  C_8 
REMARK    4  A    between atoms: C_12  and  C_9 
REMARK    5  A    between atoms: O_10  and  C_12 
ROOT
ATOM      1  C   UNL d   1      53.389  31.601  53.597  0.00  0.00     0.110 C 
ENDROOT
BRANCH   1   2
ATOM      2  N   UNL d   1      53.262  30.793  53.485  0.00  0.00    -0.266 N 
ATOM      3  C   UNL d   1      53.087  30.428  52.770  0.00  0.00     0.296 A 
ATOM      4  S   UNL d   1      53.005  29.607  52.919  0.00  0.00    -0.025 SA
ATOM      5  O   UNL d   1      53.006  30.794  52.040  0.00  0.00    -0.259 OA
ATOM      6  C   UNL d   1      53.132  29.483  53.727  0.00  0.00     0.050 A 
ATOM      7  C   UNL d   1      53.121  28.791  54.184  0.00  0.00     0.008 A 
ATOM      8  C   UNL d   1      53.289  30.210  54.074  0.00  0.00     0.074 A 
ATOM      9  C   UNL d   1      53.273  28.846  54.998  0.00  0.00     0.001 A 
ATOM     10  C   UNL d   1      53.430  29.573  55.345  0.00  0.00     0.002 A 
ATOM     11  C   UNL d   1      53.440  30.262  54.886  0.00  0.00     0.018 A 
ENDBRANCH   1   2
BRANCH   1  12
ATOM     12  C   UNL d   1      52.792  32.143  53.435  0.00  0.00     0.142 C 
BRANCH  12  13
ATOM     13  O   UNL d   1      52.839  32.923  53.705  0.00  0.00    -0.302 OA
BRANCH  13  14
ATOM     14  C   UNL d   1      52.266  33.476  53.486  0.00  0.00     0.122 A 
ATOM     15  C   UNL d   1      52.413  34.281  53.584  0.00  0.00     0.117 A 
ATOM     16  C   UNL d   1      51.842  34.830  53.366  0.00  0.00     0.026 A 
ATOM     17  C   UNL d   1      51.125  34.572  53.050  0.00  0.00     0.002 A 
ATOM     18  C   UNL d   1      50.981  33.761  52.953  0.00  0.00     0.002 A 
ATOM     19  C   UNL d   1      51.558  33.219  53.174  0.00  0.00     0.027 A 
BRANCH  15  20
ATOM     20  O   UNL d   1      53.123  34.572  53.899  0.00  0.00    -0.326 OA
ATOM     21  C   UNL d   1      53.148  35.338  54.210  0.00  0.00     0.181 C 
ENDBRANCH  15  20
ENDBRANCH  13  14
ENDBRANCH  12  13
ENDBRANCH   1  12
TORSDOF 5
ENDMDL
MODEL 5
REMARK VINA RESULT:      -6.5      3.945      5.219
REMARK  5 active torsions:
REMARK  status: ('A' for Active; 'I' for Inactive)
REMARK    1  A    between atoms: C_9  and  N_2 
REMARK    2  A    between atoms: C_7  and  O_10 
REMARK    3  A    between atoms: O_11  and  C_8 
REMARK    4  A    between atoms: C_12  and  C_9 
REMARK    5  A    between atoms: O_10  and  C_12 
ROOT
ATOM      1  C   UNL d   1      49.469  34.367  52.748  0.00  0.00     0.110 C 
ENDROOT
BRANCH   1   2
ATOM      2  N   UNL d   1      48.933  34.861  52.362  0.00  0.00    -0.266 N 
ATOM      3  C   UNL d   1      48.748  34.840  51.561  0.00  0.00     0.296 A 
ATOM      4  S   UNL d   1      48.179  35.439  51.416  0.00  0.00    -0.025 SA
ATOM      5  O   UNL d   1      49.059  34.328  51.000  0.00  0.00    -0.259 OA
ATOM      6  C   UNL d   1      48.025  35.819  52.136  0.00  0.00     0.050 A 
ATOM      7  C   UNL d   1      47.517  36.446  52.326  0.00  0.00     0.008 A 
ATOM      8  C   UNL d   1      48.487  35.465  52.715  0.00  0.00     0.074 A 
ATOM      9  C   UNL d   1      47.483  36.709  53.111  0.00  0.00     0.001 A 
ATOM     10  C   UNL d   1      47.945  36.355  53.691  0.00  0.00     0.002 A 
ATOM     11  C   UNL d   1      48.451  35.730  53.498  0.00  0.00     0.018 A 
ENDBRANCH   1   2
BRANCH   1  12
ATOM     12  C   UNL d   1      50.279  34.476  52.654  0.00  0.00     0.142 C 
BRANCH  12  13
ATOM     13  O   UNL d   1      50.812  33.861  52.797  0.00  0.00    -0.302 OA
BRANCH  13  14
ATOM     14  C   UNL d   1      51.587  34.026  53.029  0.00  0.00     0.122 A 
ATOM     15  C   UNL d   1      52.142  33.417  53.071  0.00  0.00     0.117 A 
ATOM     16  C   UNL d   1      52.912  33.582  53.302  0.00  0.00     0.026 A 
ATOM     17  C   UNL d   1      53.126  34.356  53.492  0.00  0.00     0.002 A 
ATOM     18  C   UNL d   1      52.566  34.965  53.449  0.00  0.00     0.002 A 
ATOM     19  C   UNL d   1      51.797  34.791  53.216  0.00  0.00     0.027 A 
BRANCH  15  20
ATOM     20  O   UNL d   1      51.957  32.629  52.887  0.00  0.00    -0.326 OA
ATOM     21  C   UNL d   1      52.533  32.043  52.980  0.00  0.00     0.181 C 
ENDBRANCH  15  20
ENDBRANCH  13  14
ENDBRANCH  12  13
ENDBRANCH   1  12
TORSDOF 5
ENDMDL
