MODEL 1
REMARK VINA RESULT:       1.5      0.000      0.000
REMARK  1 active torsions:
REMARK  status: ('A' for Active; 'I' for Inactive)
REMARK    1  A    between atoms: C_4  and  C_1 
REMARK       I    between atoms: N_5  and  C_1 
ROOT
ATOM      1  N   UNL d   1     -54.792-102.195 -37.872  0.00  0.00    -0.242 NA
ATOM      2  C   UNL d   1     -54.867-102.117 -36.221  0.00  0.00     0.062 A 
ATOM      3  C   UNL d   1     -54.911-102.880 -37.425  0.00  0.00     0.099 A 
ATOM      4  C   UNL d   1     -54.712-101.468 -37.483  0.00  0.00     0.099 A 
ATOM      5  C   UNL d   1     -54.749-101.429 -36.660  0.00  0.00     0.025 A 
ATOM      6  C   UNL d   1     -54.948-102.841 -36.602  0.00  0.00     0.025 A 
ENDROOT
BRANCH   2   7
ATOM      7  C   UNL d   1     -54.898-102.168 -35.768  0.00  0.00     0.298 C 
ATOM      8  O   UNL d   1     -54.944-102.769 -35.358  0.00  0.00    -0.264 OA
ATOM      9  N   UNL d   1     -54.906-101.551 -35.316  0.00  0.00    -0.085 NA
ATOM     10  N   UNL d   1     -54.869-101.173 -35.696  0.00  0.00    -0.019 N 
ENDBRANCH   2   7
TORSDOF 1
ENDMDL
