MODEL 1
REMARK VINA RESULT:      -1.9      0.000      0.000
REMARK  8 active torsions:
REMARK  status: ('A' for Active; 'I' for Inactive)
REMARK       I    between atoms: C_2  and  N_1 
REMARK    1  A    between atoms: C_3  and  N_1 
REMARK    2  A    between atoms: C_4  and  N_1 
REMARK    3  A    between atoms: C_6  and  C_2 
REMARK    4  A    between atoms: C_5  and  C_4 
REMARK    5  A    between atoms: C_7  and  C_5 
REMARK    6  A    between atoms: O_19  and  C_7 
REMARK    7  A    between atoms: C_9  and  O_11 
REMARK    8  A    between atoms: O_11  and  C_16 
ROOT
ATOM      1  N   UNL d   1      58.988  -0.341  30.001  0.00  0.00    -0.258 N 
ATOM      2  C   UNL d   1      58.736   0.073  30.669  0.00  0.00     0.266 C 
ATOM      3  O   UNL d   1      59.198   0.681  30.977  0.00  0.00    -0.267 OA
ENDROOT
BRANCH   1   4
ATOM      4  C   UNL d   1      59.708  -0.142  29.641  0.00  0.00     0.150 A 
ATOM      5  N   UNL d   1      60.407  -0.504  29.882  0.00  0.00    -0.227 NA
ATOM      6  C   UNL d   1      61.119  -0.304  29.522  0.00  0.00     0.101 A 
ATOM      7  C   UNL d   1      61.133   0.263  28.916  0.00  0.00     0.021 A 
ATOM      8  C   UNL d   1      60.435   0.626  28.674  0.00  0.00     0.005 A 
ATOM      9  C   UNL d   1      59.723   0.426  29.035  0.00  0.00     0.037 A 
ENDBRANCH   1   4
BRANCH   1  10
ATOM     10  C   UNL d   1      58.533  -0.946  29.691  0.00  0.00     0.090 C 
BRANCH  10  11
ATOM     11  C   UNL d   1      58.827  -1.403  29.058  0.00  0.00     0.087 C 
BRANCH  11  12
ATOM     12  C   UNL d   1      58.527  -2.156  28.914  0.00  0.00     0.297 C 
ATOM     13  O   UNL d   1      57.726  -2.255  28.738  0.00  0.00    -0.259 OA
BRANCH  12  14
ATOM     14  O   UNL d   1      59.027  -2.810  28.944  0.00  0.00    -0.296 OA
ATOM     15  C   UNL d   1      58.553  -3.452  28.712  0.00  0.00     0.185 C 
ENDBRANCH  12  14
ENDBRANCH  11  12
ENDBRANCH  10  11
ENDBRANCH   1  10
BRANCH   2  16
ATOM     16  C   UNL d   1      58.019  -0.126  31.028  0.00  0.00     0.057 A 
ATOM     17  C   UNL d   1      57.401   0.419  31.030  0.00  0.00     0.007 A 
ATOM     18  C   UNL d   1      56.688   0.215  31.389  0.00  0.00     0.025 A 
ATOM     19  C   UNL d   1      56.595  -0.525  31.741  0.00  0.00     0.103 A 
ATOM     20  C   UNL d   1      57.218  -1.062  31.734  0.00  0.00     0.025 A 
ATOM     21  C   UNL d   1      57.942  -0.870  31.376  0.00  0.00     0.007 A 
BRANCH  19  22
ATOM     22  O   UNL d   1      55.882  -0.727  32.100  0.00  0.00    -0.273 OA
BRANCH  22  23
ATOM     23  C   UNL d   1      55.879  -1.068  32.851  0.00  0.00     0.300 C 
ATOM     24  O   UNL d   1      56.162  -1.834  32.959  0.00  0.00    -0.259 OA
ATOM     25  C   UNL d   1      55.591  -0.635  33.500  0.00  0.00     0.074 C 
ENDBRANCH  22  23
ENDBRANCH  19  22
ENDBRANCH   2  16
TORSDOF 8
ENDMDL
MODEL 2
REMARK VINA RESULT:      -1.0      1.438      2.541
REMARK  8 active torsions:
REMARK  status: ('A' for Active; 'I' for Inactive)
REMARK       I    between atoms: C_2  and  N_1 
REMARK    1  A    between atoms: C_3  and  N_1 
REMARK    2  A    between atoms: C_4  and  N_1 
REMARK    3  A    between atoms: C_6  and  C_2 
REMARK    4  A    between atoms: C_5  and  C_4 
REMARK    5  A    between atoms: C_7  and  C_5 
REMARK    6  A    between atoms: O_19  and  C_7 
REMARK    7  A    between atoms: C_9  and  O_11 
REMARK    8  A    between atoms: O_11  and  C_16 
ROOT
ATOM      1  N   UNL d   1      58.115  -0.970  30.516  0.00  0.00    -0.258 N 
ATOM      2  C   UNL d   1      57.380  -1.153  30.843  0.00  0.00     0.266 C 
ATOM      3  O   UNL d   1      56.947  -1.793  30.556  0.00  0.00    -0.267 OA
ENDROOT
BRANCH   1   4
ATOM      4  C   UNL d   1      58.417  -1.434  29.897  0.00  0.00     0.150 A 
ATOM      5  N   UNL d   1      58.726  -2.181  30.051  0.00  0.00    -0.227 NA
ATOM      6  C   UNL d   1      59.024  -2.637  29.435  0.00  0.00     0.101 A 
ATOM      7  C   UNL d   1      59.014  -2.344  28.658  0.00  0.00     0.021 A 
ATOM      8  C   UNL d   1      58.705  -1.598  28.504  0.00  0.00     0.005 A 
ATOM      9  C   UNL d   1      58.406  -1.141  29.120  0.00  0.00     0.037 A 
ENDBRANCH   1   4
BRANCH   1  10
ATOM     10  C   UNL d   1      58.549  -0.336  30.796  0.00  0.00     0.090 C 
BRANCH  10  11
ATOM     11  C   UNL d   1      59.360  -0.275  30.612  0.00  0.00     0.087 C 
BRANCH  11  12
ATOM     12  C   UNL d   1      59.809   0.346  30.912  0.00  0.00     0.297 C 
ATOM     13  O   UNL d   1      59.616   0.681  31.642  0.00  0.00    -0.259 OA
BRANCH  12  14
ATOM     14  O   UNL d   1      60.451   0.634  30.483  0.00  0.00    -0.296 OA
ATOM     15  C   UNL d   1      61.115   0.465  30.952  0.00  0.00     0.185 C 
ENDBRANCH  12  14
ENDBRANCH  11  12
ENDBRANCH  10  11
ENDBRANCH   1  10
BRANCH   2  16
ATOM     16  C   UNL d   1      57.080  -0.692  31.459  0.00  0.00     0.057 A 
ATOM     17  C   UNL d   1      56.939   0.110  31.334  0.00  0.00     0.007 A 
ATOM     18  C   UNL d   1      56.640   0.566  31.952  0.00  0.00     0.025 A 
ATOM     19  C   UNL d   1      56.483   0.223  32.686  0.00  0.00     0.103 A 
ATOM     20  C   UNL d   1      56.627  -0.580  32.801  0.00  0.00     0.025 A 
ATOM     21  C   UNL d   1      56.929  -1.050  32.187  0.00  0.00     0.007 A 
BRANCH  19  22
ATOM     22  O   UNL d   1      56.184   0.679  33.303  0.00  0.00    -0.273 OA
BRANCH  22  23
ATOM     23  C   UNL d   1      55.539   0.410  33.740  0.00  0.00     0.300 C 
ATOM     24  O   UNL d   1      54.879   0.101  33.356  0.00  0.00    -0.259 OA
ATOM     25  C   UNL d   1      55.557   0.451  34.570  0.00  0.00     0.074 C 
ENDBRANCH  22  23
ENDBRANCH  19  22
ENDBRANCH   2  16
TORSDOF 8
ENDMDL
