MODEL 1
REMARK VINA RESULT:      -8.5      0.000      0.000
REMARK  4 active torsions:
REMARK  status: ('A' for Active; 'I' for Inactive)
REMARK    1  A    between atoms: C_9  and  C_1 
REMARK    2  A    between atoms: C_8  and  C_6 
REMARK    3  A    between atoms: C_14  and  C_9 
REMARK    4  A    between atoms: C_15  and  C_10 
ROOT
ATOM      1  C   UNL d   1     -48.589  13.566  23.158  0.00  0.00     0.089 A 
ATOM      2  C   UNL d   1     -47.268  13.446  23.021  0.00  0.00     0.048 A 
ATOM      3  C   UNL d   1     -47.905  13.968  22.968  0.00  0.00     0.114 A 
ATOM      4  C   UNL d   1     -47.571  12.711  23.247  0.00  0.00     0.112 A 
ATOM      5  S   UNL d   1     -48.393  12.790  23.331  0.00  0.00    -0.063 SA
ATOM      6  C   UNL d   1     -46.455  13.537  22.894  0.00  0.00     0.076 A 
ATOM      7  N   UNL d   1     -47.059  12.078  23.344  0.00  0.00    -0.239 NA
ATOM      8  C   UNL d   1     -46.258  12.160  23.221  0.00  0.00     0.082 A 
ATOM      9  C   UNL d   1     -45.954  12.894  22.995  0.00  0.00     0.023 A 
ATOM     10  N   UNL d   1     -47.847  14.775  22.755  0.00  0.00    -0.147 N 
ENDROOT
BRANCH   1  11
ATOM     11  C   UNL d   1     -49.346  13.884  23.173  0.00  0.00     0.203 C 
ATOM     12  O   UNL d   1     -49.524  14.484  23.677  0.00  0.00    -0.286 OA
BRANCH  11  13
ATOM     13  C   UNL d   1     -49.924  13.580  22.663  0.00  0.00     0.040 A 
ATOM     14  C   UNL d   1     -50.415  12.962  22.895  0.00  0.00     0.003 A 
ATOM     15  C   UNL d   1     -50.979  12.669  22.388  0.00  0.00     0.000 A 
ATOM     16  C   UNL d   1     -51.063  12.997  21.620  0.00  0.00     0.000 A 
ATOM     17  C   UNL d   1     -50.580  13.608  21.386  0.00  0.00     0.000 A 
ATOM     18  C   UNL d   1     -50.008  13.908  21.895  0.00  0.00     0.003 A 
ENDBRANCH  11  13
ENDBRANCH   1  11
BRANCH   6  19
ATOM     19  C   UNL d   1     -46.152  14.270  22.668  0.00  0.00     0.419 C 
ATOM     20  F   UNL d   1     -45.853  14.992  22.445  0.00  0.00    -0.166 F 
ATOM     21  F   UNL d   1     -46.211  14.048  21.870  0.00  0.00    -0.166 F 
ATOM     22  F   UNL d   1     -46.094  14.489  23.458  0.00  0.00    -0.166 F 
ENDBRANCH   6  19
BRANCH   8  23
ATOM     23  C   UNL d   1     -45.744  11.526  23.318  0.00  0.00     0.018 A 
ATOM     24  C   UNL d   1     -44.944  11.621  23.124  0.00  0.00     0.002 A 
ATOM     25  C   UNL d   1     -44.407  10.996  23.213  0.00  0.00     0.000 A 
ATOM     26  C   UNL d   1     -44.691  10.262  23.505  0.00  0.00     0.000 A 
ATOM     27  C   UNL d   1     -45.492  10.168  23.698  0.00  0.00     0.000 A 
ATOM     28  C   UNL d   1     -46.006  10.807  23.600  0.00  0.00     0.002 A 
ENDBRANCH   8  23
TORSDOF 4
ENDMDL
MODEL 2
REMARK VINA RESULT:      -8.3      7.549      9.107
REMARK  4 active torsions:
REMARK  status: ('A' for Active; 'I' for Inactive)
REMARK    1  A    between atoms: C_9  and  C_1 
REMARK    2  A    between atoms: C_8  and  C_6 
REMARK    3  A    between atoms: C_14  and  C_9 
REMARK    4  A    between atoms: C_15  and  C_10 
ROOT
ATOM      1  C   UNL d   1     -40.047  14.361  18.756  0.00  0.00     0.089 A 
ATOM      2  C   UNL d   1     -40.252  14.603  20.051  0.00  0.00     0.048 A 
ATOM      3  C   UNL d   1     -40.572  14.676  19.293  0.00  0.00     0.114 A 
ATOM      4  C   UNL d   1     -39.516  14.236  19.971  0.00  0.00     0.112 A 
ATOM      5  S   UNL d   1     -39.392  14.087  19.165  0.00  0.00    -0.063 SA
ATOM      6  C   UNL d   1     -40.528  14.819  20.801  0.00  0.00     0.076 A 
ATOM      7  N   UNL d   1     -39.066  14.089  20.641  0.00  0.00    -0.239 NA
ATOM      8  C   UNL d   1     -39.331  14.299  21.383  0.00  0.00     0.082 A 
ATOM      9  C   UNL d   1     -40.066  14.667  21.463  0.00  0.00     0.023 A 
ATOM     10  N   UNL d   1     -41.315  15.019  19.118  0.00  0.00    -0.147 N 
ENDROOT
BRANCH   1  11
ATOM     11  C   UNL d   1     -40.154  14.324  17.942  0.00  0.00     0.203 C 
ATOM     12  O   UNL d   1     -40.828  14.014  17.636  0.00  0.00    -0.286 OA
BRANCH  11  13
ATOM     13  C   UNL d   1     -39.558  14.610  17.442  0.00  0.00     0.040 A 
ATOM     14  C   UNL d   1     -39.504  15.410  17.257  0.00  0.00     0.003 A 
ATOM     15  C   UNL d   1     -38.917  15.683  16.765  0.00  0.00     0.000 A 
ATOM     16  C   UNL d   1     -38.359  15.146  16.442  0.00  0.00     0.000 A 
ATOM     17  C   UNL d   1     -38.408  14.354  16.621  0.00  0.00     0.000 A 
ATOM     18  C   UNL d   1     -39.001  14.073  17.118  0.00  0.00     0.003 A 
ENDBRANCH  11  13
ENDBRANCH   1  11
BRANCH   6  19
ATOM     19  C   UNL d   1     -41.262  15.186  20.880  0.00  0.00     0.419 C 
ATOM     20  F   UNL d   1     -41.986  15.547  20.959  0.00  0.00    -0.166 F 
ATOM     21  F   UNL d   1     -41.620  14.445  20.987  0.00  0.00    -0.166 F 
ATOM     22  F   UNL d   1     -40.907  15.920  20.775  0.00  0.00    -0.166 F 
ENDBRANCH   6  19
BRANCH   8  23
ATOM     23  C   UNL d   1     -38.881  14.153  22.054  0.00  0.00     0.018 A 
ATOM     24  C   UNL d   1     -38.402  14.757  22.360  0.00  0.00     0.002 A 
ATOM     25  C   UNL d   1     -37.940  14.634  23.035  0.00  0.00     0.000 A 
ATOM     26  C   UNL d   1     -37.964  13.881  23.406  0.00  0.00     0.000 A 
ATOM     27  C   UNL d   1     -38.443  13.277  23.100  0.00  0.00     0.000 A 
ATOM     28  C   UNL d   1     -38.895  13.427  22.424  0.00  0.00     0.002 A 
ENDBRANCH   8  23
TORSDOF 4
ENDMDL
MODEL 3
REMARK VINA RESULT:      -6.9      2.020      4.846
REMARK  4 active torsions:
REMARK  status: ('A' for Active; 'I' for Inactive)
REMARK    1  A    between atoms: C_9  and  C_1 
REMARK    2  A    between atoms: C_8  and  C_6 
REMARK    3  A    between atoms: C_14  and  C_9 
REMARK    4  A    between atoms: C_15  and  C_10 
ROOT
ATOM      1  C   UNL d   1     -47.057  12.676  23.130  0.00  0.00     0.089 A 
ATOM      2  C   UNL d   1     -48.384  12.727  23.000  0.00  0.00     0.048 A 
ATOM      3  C   UNL d   1     -47.727  12.226  23.015  0.00  0.00     0.114 A 
ATOM      4  C   UNL d   1     -48.106  13.497  23.109  0.00  0.00     0.112 A 
ATOM      5  S   UNL d   1     -47.281  13.462  23.190  0.00  0.00    -0.063 SA
ATOM      6  C   UNL d   1     -49.194  12.588  22.903  0.00  0.00     0.076 A 
ATOM      7  N   UNL d   1     -48.641  14.119  23.120  0.00  0.00    -0.239 NA
ATOM      8  C   UNL d   1     -49.440  13.990  23.025  0.00  0.00     0.082 A 
ATOM      9  C   UNL d   1     -49.718  13.220  22.916  0.00  0.00     0.023 A 
ATOM     10  N   UNL d   1     -47.756  11.395  22.925  0.00  0.00    -0.147 N 
ENDROOT
BRANCH   1  11
ATOM     11  C   UNL d   1     -46.288  12.392  23.179  0.00  0.00     0.203 C 
ATOM     12  O   UNL d   1     -46.108  11.795  23.687  0.00  0.00    -0.286 OA
BRANCH  11  13
ATOM     13  C   UNL d   1     -45.701  12.726  22.699  0.00  0.00     0.040 A 
ATOM     14  C   UNL d   1     -45.583  13.540  22.674  0.00  0.00     0.003 A 
ATOM     15  C   UNL d   1     -45.005  13.861  22.201  0.00  0.00     0.000 A 
ATOM     16  C   UNL d   1     -44.523  13.359  21.732  0.00  0.00     0.000 A 
ATOM     17  C   UNL d   1     -44.636  12.554  21.752  0.00  0.00     0.000 A 
ATOM     18  C   UNL d   1     -45.219  12.225  22.230  0.00  0.00     0.003 A 
ENDBRANCH  11  13
ENDBRANCH   1  11
BRANCH   6  19
ATOM     19  C   UNL d   1     -49.471  11.819  22.794  0.00  0.00     0.419 C 
ATOM     20  F   UNL d   1     -49.744  11.061  22.687  0.00  0.00    -0.166 F 
ATOM     21  F   UNL d   1     -49.417  11.916  21.972  0.00  0.00    -0.166 F 
ATOM     22  F   UNL d   1     -49.524  11.723  23.609  0.00  0.00    -0.166 F 
ENDBRANCH   6  19
BRANCH   8  23
ATOM     23  C   UNL d   1     -49.976  14.612  23.035  0.00  0.00     0.018 A 
ATOM     24  C   UNL d   1     -50.456  14.745  22.372  0.00  0.00     0.002 A 
ATOM     25  C   UNL d   1     -51.003  15.365  22.359  0.00  0.00     0.000 A 
ATOM     26  C   UNL d   1     -51.064  15.860  23.034  0.00  0.00     0.000 A 
ATOM     27  C   UNL d   1     -50.585  15.728  23.698  0.00  0.00     0.000 A 
ATOM     28  C   UNL d   1     -50.046  15.101  23.685  0.00  0.00     0.002 A 
ENDBRANCH   8  23
TORSDOF 4
ENDMDL
MODEL 4
REMARK VINA RESULT:      -6.1      1.734      4.139
REMARK  4 active torsions:
REMARK  status: ('A' for Active; 'I' for Inactive)
REMARK    1  A    between atoms: C_9  and  C_1 
REMARK    2  A    between atoms: C_8  and  C_6 
REMARK    3  A    between atoms: C_14  and  C_9 
REMARK    4  A    between atoms: C_15  and  C_10 
ROOT
ATOM      1  C   UNL d   1     -46.512  13.895  22.726  0.00  0.00     0.089 A 
ATOM      2  C   UNL d   1     -47.832  14.079  22.774  0.00  0.00     0.048 A 
ATOM      3  C   UNL d   1     -47.107  14.442  22.620  0.00  0.00     0.114 A 
ATOM      4  C   UNL d   1     -47.674  13.294  22.978  0.00  0.00     0.112 A 
ATOM      5  S   UNL d   1     -46.853  13.184  22.947  0.00  0.00    -0.063 SA
ATOM      6  C   UNL d   1     -48.613  14.354  22.756  0.00  0.00     0.076 A 
ATOM      7  N   UNL d   1     -48.298  12.794  23.161  0.00  0.00    -0.239 NA
ATOM      8  C   UNL d   1     -49.069  13.057  23.146  0.00  0.00     0.082 A 
ATOM      9  C   UNL d   1     -49.227  13.841  22.943  0.00  0.00     0.023 A 
ATOM     10  N   UNL d   1     -47.010  15.242  22.393  0.00  0.00    -0.147 N 
ENDROOT
BRANCH   1  11
ATOM     11  C   UNL d   1     -45.708  14.032  22.629  0.00  0.00     0.203 C 
ATOM     12  O   UNL d   1     -45.400  14.759  22.779  0.00  0.00    -0.286 OA
BRANCH  11  13
ATOM     13  C   UNL d   1     -45.219  13.413  22.375  0.00  0.00     0.040 A 
ATOM     14  C   UNL d   1     -45.112  12.739  22.834  0.00  0.00     0.003 A 
ATOM     15  C   UNL d   1     -44.630  12.136  22.578  0.00  0.00     0.000 A 
ATOM     16  C   UNL d   1     -44.239  12.199  21.839  0.00  0.00     0.000 A 
ATOM     17  C   UNL d   1     -44.342  12.863  21.381  0.00  0.00     0.000 A 
ATOM     18  C   UNL d   1     -44.828  13.476  21.636  0.00  0.00     0.003 A 
ENDBRANCH  11  13
ENDBRANCH   1  11
BRANCH   6  19
ATOM     19  C   UNL d   1     -48.771  15.136  22.553  0.00  0.00     0.419 C 
ATOM     20  F   UNL d   1     -48.927  15.909  22.352  0.00  0.00    -0.166 F 
ATOM     21  F   UNL d   1     -48.845  14.915  21.757  0.00  0.00    -0.166 F 
ATOM     22  F   UNL d   1     -48.698  15.356  23.342  0.00  0.00    -0.166 F 
ENDBRANCH   6  19
BRANCH   8  23
ATOM     23  C   UNL d   1     -49.694  12.556  23.330  0.00  0.00     0.018 A 
ATOM     24  C   UNL d   1     -49.569  11.737  23.334  0.00  0.00     0.002 A 
ATOM     25  C   UNL d   1     -50.183  11.213  23.516  0.00  0.00     0.000 A 
ATOM     26  C   UNL d   1     -50.939  11.529  23.698  0.00  0.00     0.000 A 
ATOM     27  C   UNL d   1     -51.064  12.348  23.694  0.00  0.00     0.000 A 
ATOM     28  C   UNL d   1     -50.434  12.849  23.509  0.00  0.00     0.002 A 
ENDBRANCH   8  23
TORSDOF 4
ENDMDL
MODEL 5
REMARK VINA RESULT:      -6.1      1.887      2.498
REMARK  4 active torsions:
REMARK  status: ('A' for Active; 'I' for Inactive)
REMARK    1  A    between atoms: C_9  and  C_1 
REMARK    2  A    between atoms: C_8  and  C_6 
REMARK    3  A    between atoms: C_14  and  C_9 
REMARK    4  A    between atoms: C_15  and  C_10 
ROOT
ATOM      1  C   UNL d   1     -48.881  13.787  22.091  0.00  0.00     0.089 A 
ATOM      2  C   UNL d   1     -48.055  12.785  22.394  0.00  0.00     0.048 A 
ATOM      3  C   UNL d   1     -48.845  13.023  22.372  0.00  0.00     0.114 A 
ATOM      4  C   UNL d   1     -47.601  13.419  22.121  0.00  0.00     0.112 A 
ATOM      5  S   UNL d   1     -48.118  14.040  21.934  0.00  0.00    -0.063 SA
ATOM      6  C   UNL d   1     -47.687  12.081  22.625  0.00  0.00     0.076 A 
ATOM      7  N   UNL d   1     -46.785  13.341  22.082  0.00  0.00    -0.239 NA
ATOM      8  C   UNL d   1     -46.415  12.652  22.307  0.00  0.00     0.082 A 
ATOM      9  C   UNL d   1     -46.869  12.017  22.580  0.00  0.00     0.023 A 
ATOM     10  N   UNL d   1     -49.495  12.548  22.602  0.00  0.00    -0.147 N 
ENDROOT
BRANCH   1  11
ATOM     11  C   UNL d   1     -49.565  14.230  21.984  0.00  0.00     0.203 C 
ATOM     12  O   UNL d   1     -50.027  14.110  21.337  0.00  0.00    -0.286 OA
BRANCH  11  13
ATOM     13  C   UNL d   1     -49.772  14.799  22.549  0.00  0.00     0.040 A 
ATOM     14  C   UNL d   1     -49.212  15.319  22.855  0.00  0.00     0.003 A 
ATOM     15  C   UNL d   1     -49.424  15.875  23.410  0.00  0.00     0.000 A 
ATOM     16  C   UNL d   1     -50.219  15.922  23.673  0.00  0.00     0.000 A 
ATOM     17  C   UNL d   1     -50.775  15.410  23.373  0.00  0.00     0.000 A 
ATOM     18  C   UNL d   1     -50.567  14.846  22.812  0.00  0.00     0.003 A 
ENDBRANCH  11  13
ENDBRANCH   1  11
BRANCH   6  19
ATOM     19  C   UNL d   1     -48.139  11.448  22.897  0.00  0.00     0.419 C 
ATOM     20  F   UNL d   1     -48.585  10.824  23.166  0.00  0.00    -0.166 F 
ATOM     21  F   UNL d   1     -48.156  11.786  23.655  0.00  0.00    -0.166 F 
ATOM     22  F   UNL d   1     -48.122  11.113  22.147  0.00  0.00    -0.166 F 
ENDBRANCH   6  19
BRANCH   8  23
ATOM     23  C   UNL d   1     -45.598  12.573  22.269  0.00  0.00     0.018 A 
ATOM     24  C   UNL d   1     -45.169  13.065  21.758  0.00  0.00     0.002 A 
ATOM     25  C   UNL d   1     -44.345  13.005  21.702  0.00  0.00     0.000 A 
ATOM     26  C   UNL d   1     -43.952  12.433  22.174  0.00  0.00     0.000 A 
ATOM     27  C   UNL d   1     -44.382  11.941  22.684  0.00  0.00     0.000 A 
ATOM     28  C   UNL d   1     -45.203  12.022  22.721  0.00  0.00     0.002 A 
ENDBRANCH   8  23
TORSDOF 4
ENDMDL
