MODEL 1
REMARK VINA RESULT:      62.9      0.000      0.000
REMARK  6 active torsions:
REMARK  status: ('A' for Active; 'I' for Inactive)
REMARK    1  A    between atoms: C_10  and  N_6 
REMARK    2  A    between atoms: S_14  and  C_9 
REMARK    3  A    between atoms: C_17  and  C_10 
REMARK    4  A    between atoms: N_13  and  C_25 
REMARK    5  A    between atoms: C_20  and  S_14 
REMARK    6  A    between atoms: C_25  and  C_20 
ROOT
ATOM      1  C   UNL d   1      44.213 -15.882  44.908  0.00  0.00     0.174 A 
ATOM      2  C   UNL d   1      44.571 -15.132  44.905  0.00  0.00     0.158 A 
ATOM      3  N   UNL d   1      44.812 -16.449  44.892  0.00  0.00    -0.203 NA
ATOM      4  N   UNL d   1      43.387 -15.943  44.924  0.00  0.00    -0.240 N 
ATOM      5  N   UNL d   1      43.282 -14.516  44.936  0.00  0.00    -0.223 N 
ATOM      6  N   UNL d   1      45.389 -15.242  44.888  0.00  0.00    -0.279 N 
ATOM      7  C   UNL d   1      42.923 -15.265  44.938  0.00  0.00     0.343 A 
ATOM      8  C   UNL d   1      44.101 -14.451  44.920  0.00  0.00     0.287 A 
ATOM      9  C   UNL d   1      45.529 -16.055  44.880  0.00  0.00     0.181 A 
ATOM     10  O   UNL d   1      42.093 -15.328  44.955  0.00  0.00    -0.245 OA
ATOM     11  O   UNL d   1      44.457 -13.705  44.917  0.00  0.00    -0.265 OA
ATOM     12  C   UNL d   1      43.031 -16.688  44.927  0.00  0.00     0.105 C 
ATOM     13  C   UNL d   1      42.815 -13.836  44.950  0.00  0.00     0.107 C 
ENDROOT
BRANCH   9  14
ATOM     14  S   UNL d   1      46.280 -16.418  44.862  0.00  0.00    -0.048 SA
BRANCH  14  15
ATOM     15  C   UNL d   1      46.342 -17.236  44.874  0.00  0.00     0.057 C 
BRANCH  15  16
ATOM     16  C   UNL d   1      46.645 -17.630  44.215  0.00  0.00     0.087 C 
BRANCH  16  17
ATOM     17  N   UNL d   1      46.326 -18.354  43.998  0.00  0.00    -0.302 N 
ATOM     18  C   UNL d   1      45.805 -18.397  43.364  0.00  0.00     0.080 A 
ATOM     19  C   UNL d   1      45.485 -19.121  43.147  0.00  0.00     0.019 A 
ATOM     20  C   UNL d   1      45.685 -19.799  43.561  0.00  0.00     0.003 A 
ATOM     21  C   UNL d   1      46.205 -19.756  44.194  0.00  0.00     0.019 A 
ATOM     22  C   UNL d   1      46.529 -19.033  44.416  0.00  0.00     0.080 A 
ENDBRANCH  16  17
ENDBRANCH  15  16
ENDBRANCH  14  15
ENDBRANCH   9  14
BRANCH   6  23
ATOM     23  C   UNL d   1      45.956 -14.643  44.881  0.00  0.00     0.082 C 
BRANCH  23  24
ATOM     24  C   UNL d   1      45.925 -14.039  44.311  0.00  0.00     0.018 A 
ATOM     25  C   UNL d   1      45.739 -13.271  44.555  0.00  0.00     0.002 A 
ATOM     26  C   UNL d   1      45.706 -12.665  43.998  0.00  0.00     0.011 A 
ATOM     27  C   UNL d   1      45.859 -12.829  43.200  0.00  0.00     0.058 A 
ATOM     28  C   UNL d   1      46.046 -13.608  42.964  0.00  0.00     0.011 A 
ATOM     29 CL   UNL d   1      45.827 -12.225  42.640  0.00  0.00    -0.082 Cl
ATOM     30  C   UNL d   1      46.076 -14.205  43.529  0.00  0.00     0.002 A 
ENDBRANCH  23  24
ENDBRANCH   6  23
TORSDOF 6
ENDMDL
MODEL 2
REMARK VINA RESULT:      65.5      5.733      6.325
REMARK  6 active torsions:
REMARK  status: ('A' for Active; 'I' for Inactive)
REMARK    1  A    between atoms: C_10  and  N_6 
REMARK    2  A    between atoms: S_14  and  C_9 
REMARK    3  A    between atoms: C_17  and  C_10 
REMARK    4  A    between atoms: N_13  and  C_25 
REMARK    5  A    between atoms: C_20  and  S_14 
REMARK    6  A    between atoms: C_25  and  C_20 
ROOT
ATOM      1  C   UNL d   1      43.787 -16.357  38.270  0.00  0.00     0.174 A 
ATOM      2  C   UNL d   1      44.240 -16.087  37.628  0.00  0.00     0.158 A 
ATOM      3  N   UNL d   1      44.303 -16.684  38.824  0.00  0.00    -0.203 NA
ATOM      4  N   UNL d   1      42.964 -16.266  38.259  0.00  0.00    -0.240 N 
ATOM      5  N   UNL d   1      43.049 -15.640  36.975  0.00  0.00    -0.223 N 
ATOM      6  N   UNL d   1      45.033 -16.249  37.790  0.00  0.00    -0.279 N 
ATOM      7  C   UNL d   1      42.596 -15.910  37.616  0.00  0.00     0.343 A 
ATOM      8  C   UNL d   1      43.866 -15.728  36.981  0.00  0.00     0.287 A 
ATOM      9  C   UNL d   1      45.063 -16.617  38.528  0.00  0.00     0.181 A 
ATOM     10  O   UNL d   1      41.768 -15.820  37.607  0.00  0.00    -0.245 OA
ATOM     11  O   UNL d   1      44.317 -15.460  36.343  0.00  0.00    -0.265 OA
ATOM     12  C   UNL d   1      42.514 -16.534  38.897  0.00  0.00     0.105 C 
ATOM     13  C   UNL d   1      42.679 -15.283  36.330  0.00  0.00     0.107 C 
ENDROOT
BRANCH   9  14
ATOM     14  S   UNL d   1      45.757 -16.879  38.912  0.00  0.00    -0.048 SA
BRANCH  14  15
ATOM     15  C   UNL d   1      45.703 -17.359  39.575  0.00  0.00     0.057 C 
BRANCH  15  16
ATOM     16  C   UNL d   1      46.393 -17.640  39.930  0.00  0.00     0.087 C 
BRANCH  16  17
ATOM     17  N   UNL d   1      46.336 -18.161  40.561  0.00  0.00    -0.302 N 
ATOM     18  C   UNL d   1      45.980 -17.921  41.260  0.00  0.00     0.080 A 
ATOM     19  C   UNL d   1      45.923 -18.442  41.891  0.00  0.00     0.019 A 
ATOM     20  C   UNL d   1      46.221 -19.202  41.823  0.00  0.00     0.003 A 
ATOM     21  C   UNL d   1      46.577 -19.443  41.124  0.00  0.00     0.019 A 
ATOM     22  C   UNL d   1      46.637 -18.924  40.489  0.00  0.00     0.080 A 
ENDBRANCH  16  17
ENDBRANCH  15  16
ENDBRANCH  14  15
ENDBRANCH   9  14
BRANCH   6  23
ATOM     23  C   UNL d   1      45.672 -16.073  37.299  0.00  0.00     0.082 C 
BRANCH  23  24
ATOM     24  C   UNL d   1      45.917 -15.287  37.190  0.00  0.00     0.018 A 
ATOM     25  C   UNL d   1      46.068 -14.821  37.856  0.00  0.00     0.002 A 
ATOM     26  C   UNL d   1      46.312 -14.040  37.760  0.00  0.00     0.011 A 
ATOM     27  C   UNL d   1      46.403 -13.729  36.997  0.00  0.00     0.058 A 
ATOM     28  C   UNL d   1      46.248 -14.207  36.330  0.00  0.00     0.011 A 
ATOM     29 CL   UNL d   1      46.647 -12.947  36.896  0.00  0.00    -0.082 Cl
ATOM     30  C   UNL d   1      46.005 -14.985  36.440  0.00  0.00     0.002 A 
ENDBRANCH  23  24
ENDBRANCH   6  23
TORSDOF 6
ENDMDL
