MODEL 1
REMARK VINA RESULT:      25.2      0.000      0.000
REMARK  4 active torsions:
REMARK  status: ('A' for Active; 'I' for Inactive)
REMARK    1  A    between atoms: C_7  and  C_1 
REMARK    2  A    between atoms: N_4  and  C_9 
REMARK    3  A    between atoms: O_17  and  C_7 
REMARK    4  A    between atoms: C_18  and  O_17 
ROOT
ATOM      1  C   UNL d   1     -58.698 -98.991 -43.885  0.00  0.00     0.127 A 
ATOM      2  C   UNL d   1     -58.955 -98.903 -44.643  0.00  0.00     0.305 A 
ATOM      3  C   UNL d   1     -57.887 -99.002 -43.717  0.00  0.00     0.013 A 
ATOM      4  O   UNL d   1     -58.412 -98.823 -45.262  0.00  0.00    -0.273 OA
ATOM      5  C   UNL d   1     -57.367 -98.924 -44.328  0.00  0.00     0.025 A 
ATOM      6  C   UNL d   1     -57.625 -98.836 -45.087  0.00  0.00     0.103 A 
ATOM      7  C   UNL d   1     -56.018 -98.855 -44.778  0.00  0.00     0.127 A 
ATOM      8  C   UNL d   1     -56.559 -98.935 -44.160  0.00  0.00     0.025 A 
ATOM      9  O   UNL d   1     -59.762 -98.892 -44.812  0.00  0.00    -0.259 OA
ATOM     10  C   UNL d   1     -57.084 -98.756 -45.705  0.00  0.00     0.026 A 
ATOM     11  C   UNL d   1     -56.275 -98.767 -45.537  0.00  0.00     0.026 A 
ENDROOT
BRANCH   1  12
ATOM     12  C   UNL d   1     -59.238 -99.071 -43.266  0.00  0.00     0.305 C 
ATOM     13  O   UNL d   1     -59.959 -99.460 -43.387  0.00  0.00    -0.259 OA
BRANCH  12  14
ATOM     14  O   UNL d   1     -59.054 -98.761 -42.529  0.00  0.00    -0.271 OA
BRANCH  14  15
ATOM     15  C   UNL d   1     -59.606 -98.777 -41.933  0.00  0.00     0.126 C 
ATOM     16  C   UNL d   1     -59.369 -98.812 -41.161  0.00  0.00     0.029 C 
ENDBRANCH  14  15
ENDBRANCH  12  14
ENDBRANCH   1  12
BRANCH   7  17
ATOM     17  N   UNL d   1     -55.215 -98.863 -44.638  0.00  0.00    -0.114 N 
ATOM     18  O   UNL d   1     -54.950 -98.927 -43.875  0.00  0.00    -0.532 OA
ATOM     19  O   UNL d   1     -54.711 -98.807 -45.264  0.00  0.00    -0.532 OA
ENDBRANCH   7  17
TORSDOF 4
ENDMDL
