MODEL 1
REMARK VINA RESULT:      -2.7      0.000      0.000
REMARK  3 active torsions:
REMARK  status: ('A' for Active; 'I' for Inactive)
REMARK    1  A    between atoms: S_10  and  C_7 
REMARK    2  A    between atoms: C_13  and  S_10 
REMARK    3  A    between atoms: C_12  and  C_13 
ROOT
ATOM      1  N   UNL d   1      32.080  17.810 -23.680  0.00  0.00    -0.167 N 
ATOM      2  C   UNL d   1      32.725  17.421 -23.355  0.00  0.00     0.220 A 
ATOM      3  C   UNL d   1      31.481  17.386 -24.073  0.00  0.00     0.301 A 
ATOM      4  S   UNL d   1      33.212  17.987 -23.010  0.00  0.00    -0.019 SA
ATOM      5  N   UNL d   1      32.168  18.609 -23.538  0.00  0.00    -0.147 NA
ATOM      6  N   UNL d   1      32.777  16.596 -23.419  0.00  0.00    -0.121 NA
ATOM      7  C   UNL d   1      32.862  18.719 -23.127  0.00  0.00     0.163 A 
ATOM      8  N   UNL d   1      32.195  16.172 -23.803  0.00  0.00    -0.141 NA
ATOM      9  C   UNL d   1      31.548  16.566 -24.129  0.00  0.00     0.161 A 
ATOM     10  O   UNL d   1      30.838  17.778 -24.398  0.00  0.00    -0.263 OA
ATOM     11  C   UNL d   1      30.954  16.144 -24.519  0.00  0.00     0.028 C 
ENDROOT
BRANCH   7  12
ATOM     12  S   UNL d   1      33.164  19.446 -22.870  0.00  0.00    -0.059 SA
BRANCH  12  13
ATOM     13  C   UNL d   1      33.090  19.662 -22.081  0.00  0.00     0.038 C 
BRANCH  13  14
ATOM     14  C   UNL d   1      33.140  20.467 -21.921  0.00  0.00     0.017 A 
ATOM     15  C   UNL d   1      33.152  20.735 -21.137  0.00  0.00     0.058 A 
ATOM     16 CL   UNL d   1      33.114  20.194 -20.518  0.00  0.00    -0.082 Cl
ATOM     17  C   UNL d   1      33.202  21.531 -20.971  0.00  0.00     0.011 A 
ATOM     18  C   UNL d   1      33.240  22.084 -21.591  0.00  0.00     0.001 A 
ATOM     19  C   UNL d   1      33.229  21.828 -22.368  0.00  0.00     0.000 A 
ATOM     20  C   UNL d   1      33.179  21.021 -22.541  0.00  0.00     0.001 A 
ENDBRANCH  13  14
ENDBRANCH  12  13
ENDBRANCH   7  12
TORSDOF 3
ENDMDL
MODEL 2
REMARK VINA RESULT:      -2.2      2.236      4.637
REMARK  3 active torsions:
REMARK  status: ('A' for Active; 'I' for Inactive)
REMARK    1  A    between atoms: S_10  and  C_7 
REMARK    2  A    between atoms: C_13  and  S_10 
REMARK    3  A    between atoms: C_12  and  C_13 
ROOT
ATOM      1  N   UNL d   1      32.825  20.666 -21.811  0.00  0.00    -0.167 N 
ATOM      2  C   UNL d   1      33.101  20.929 -22.537  0.00  0.00     0.220 A 
ATOM      3  C   UNL d   1      32.632  21.206 -21.207  0.00  0.00     0.301 A 
ATOM      4  S   UNL d   1      33.241  20.269 -23.008  0.00  0.00    -0.019 SA
ATOM      5  N   UNL d   1      32.794  19.851 -21.831  0.00  0.00    -0.147 NA
ATOM      6  N   UNL d   1      33.187  21.743 -22.668  0.00  0.00    -0.121 NA
ATOM      7  C   UNL d   1      33.049  19.605 -22.566  0.00  0.00     0.163 A 
ATOM      8  N   UNL d   1      33.000  22.280 -22.083  0.00  0.00    -0.141 NA
ATOM      9  C   UNL d   1      32.723  22.012 -21.354  0.00  0.00     0.161 A 
ATOM     10  O   UNL d   1      32.356  20.940 -20.482  0.00  0.00    -0.263 OA
ATOM     11  C   UNL d   1      32.531  22.550 -20.756  0.00  0.00     0.028 C 
ENDROOT
BRANCH   7  12
ATOM     12  S   UNL d   1      33.106  18.820 -22.823  0.00  0.00    -0.059 SA
BRANCH  12  13
ATOM     13  C   UNL d   1      32.473  18.474 -23.216  0.00  0.00     0.038 C 
BRANCH  13  14
ATOM     14  C   UNL d   1      32.528  17.664 -23.345  0.00  0.00     0.017 A 
ATOM     15  C   UNL d   1      31.919  17.263 -23.737  0.00  0.00     0.058 A 
ATOM     16 CL   UNL d   1      31.257  17.677 -23.998  0.00  0.00    -0.082 Cl
ATOM     17  C   UNL d   1      31.966  16.461 -23.869  0.00  0.00     0.011 A 
ATOM     18  C   UNL d   1      32.631  16.035 -23.608  0.00  0.00     0.001 A 
ATOM     19  C   UNL d   1      33.238  16.423 -23.220  0.00  0.00     0.000 A 
ATOM     20  C   UNL d   1      33.194  17.237 -23.085  0.00  0.00     0.001 A 
ENDBRANCH  13  14
ENDBRANCH  12  13
ENDBRANCH   7  12
TORSDOF 3
ENDMDL
MODEL 3
REMARK VINA RESULT:      -2.2      2.083      2.841
REMARK  3 active torsions:
REMARK  status: ('A' for Active; 'I' for Inactive)
REMARK    1  A    between atoms: S_10  and  C_7 
REMARK    2  A    between atoms: C_13  and  S_10 
REMARK    3  A    between atoms: C_12  and  C_13 
ROOT
ATOM      1  N   UNL d   1      32.977  19.807 -22.871  0.00  0.00    -0.167 N 
ATOM      2  C   UNL d   1      33.150  20.465 -23.330  0.00  0.00     0.220 A 
ATOM      3  C   UNL d   1      32.891  19.056 -23.219  0.00  0.00     0.301 A 
ATOM      4  S   UNL d   1      33.199  21.116 -22.829  0.00  0.00    -0.019 SA
ATOM      5  N   UNL d   1      32.918  20.049 -22.094  0.00  0.00    -0.147 NA
ATOM      6  N   UNL d   1      33.241  20.377 -24.149  0.00  0.00    -0.121 NA
ATOM      7  C   UNL d   1      33.055  20.852 -22.066  0.00  0.00     0.163 A 
ATOM      8  N   UNL d   1      33.159  19.644 -24.499  0.00  0.00    -0.141 NA
ATOM      9  C   UNL d   1      32.984  18.986 -24.036  0.00  0.00     0.161 A 
ATOM     10  O   UNL d   1      32.717  18.401 -22.758  0.00  0.00    -0.263 OA
ATOM     11  C   UNL d   1      32.899  18.240 -24.383  0.00  0.00     0.028 C 
ENDROOT
BRANCH   7  12
ATOM     12  S   UNL d   1      33.049  21.322 -21.384  0.00  0.00    -0.059 SA
BRANCH  12  13
ATOM     13  C   UNL d   1      32.818  22.109 -21.435  0.00  0.00     0.038 C 
BRANCH  13  14
ATOM     14  C   UNL d   1      32.796  22.524 -20.725  0.00  0.00     0.017 A 
ATOM     15  C   UNL d   1      32.467  23.284 -20.699  0.00  0.00     0.058 A 
ATOM     16 CL   UNL d   1      32.161  23.623 -21.383  0.00  0.00    -0.082 Cl
ATOM     17  C   UNL d   1      32.441  23.702 -20.000  0.00  0.00     0.011 A 
ATOM     18  C   UNL d   1      32.747  23.366 -19.303  0.00  0.00     0.001 A 
ATOM     19  C   UNL d   1      33.074  22.616 -19.320  0.00  0.00     0.000 A 
ATOM     20  C   UNL d   1      33.102  22.189 -20.028  0.00  0.00     0.001 A 
ENDBRANCH  13  14
ENDBRANCH  12  13
ENDBRANCH   7  12
TORSDOF 3
ENDMDL
MODEL 4
REMARK VINA RESULT:      -1.9      2.325      3.176
REMARK  3 active torsions:
REMARK  status: ('A' for Active; 'I' for Inactive)
REMARK    1  A    between atoms: S_10  and  C_7 
REMARK    2  A    between atoms: C_13  and  S_10 
REMARK    3  A    between atoms: C_12  and  C_13 
ROOT
ATOM      1  N   UNL d   1      29.628  16.536 -23.987  0.00  0.00    -0.167 N 
ATOM      2  C   UNL d   1      30.057  16.070 -23.466  0.00  0.00     0.220 A 
ATOM      3  C   UNL d   1      28.800  16.470 -24.035  0.00  0.00     0.301 A 
ATOM      4  S   UNL d   1      30.852  16.264 -23.550  0.00  0.00    -0.019 SA
ATOM      5  N   UNL d   1      30.153  17.014 -24.391  0.00  0.00    -0.147 NA
ATOM      6  N   UNL d   1      29.658  15.528 -22.982  0.00  0.00    -0.121 NA
ATOM      7  C   UNL d   1      30.905  16.849 -24.124  0.00  0.00     0.163 A 
ATOM      8  N   UNL d   1      28.846  15.456 -23.022  0.00  0.00    -0.141 NA
ATOM      9  C   UNL d   1      28.418  15.925 -23.547  0.00  0.00     0.161 A 
ATOM     10  O   UNL d   1      28.374  16.937 -24.557  0.00  0.00    -0.263 OA
ATOM     11  C   UNL d   1      27.595  15.859 -23.593  0.00  0.00     0.028 C 
ENDROOT
BRANCH   7  12
ATOM     12  S   UNL d   1      31.603  17.208 -24.385  0.00  0.00    -0.059 SA
BRANCH  12  13
ATOM     13  C   UNL d   1      32.119  17.541 -23.840  0.00  0.00     0.038 C 
BRANCH  13  14
ATOM     14  C   UNL d   1      32.491  18.236 -24.072  0.00  0.00     0.017 A 
ATOM     15  C   UNL d   1      32.841  18.729 -23.506  0.00  0.00     0.058 A 
ATOM     16 CL   UNL d   1      32.816  18.523 -22.710  0.00  0.00    -0.082 Cl
ATOM     17  C   UNL d   1      33.211  19.420 -23.729  0.00  0.00     0.011 A 
ATOM     18  C   UNL d   1      33.241  19.636 -24.531  0.00  0.00     0.001 A 
ATOM     19  C   UNL d   1      32.898  19.155 -25.097  0.00  0.00     0.000 A 
ATOM     20  C   UNL d   1      32.522  18.453 -24.875  0.00  0.00     0.001 A 
ENDBRANCH  13  14
ENDBRANCH  12  13
ENDBRANCH   7  12
TORSDOF 3
ENDMDL
MODEL 5
REMARK VINA RESULT:      -0.6      2.350      4.929
REMARK  3 active torsions:
REMARK  status: ('A' for Active; 'I' for Inactive)
REMARK    1  A    between atoms: S_10  and  C_7 
REMARK    2  A    between atoms: C_13  and  S_10 
REMARK    3  A    between atoms: C_12  and  C_13 
ROOT
ATOM      1  N   UNL d   1      31.819  18.199 -23.942  0.00  0.00    -0.167 N 
ATOM      2  C   UNL d   1      31.913  18.235 -24.756  0.00  0.00     0.220 A 
ATOM      3  C   UNL d   1      32.258  18.697 -23.439  0.00  0.00     0.301 A 
ATOM      4  S   UNL d   1      31.409  17.680 -25.093  0.00  0.00    -0.019 SA
ATOM      5  N   UNL d   1      31.261  17.627 -23.777  0.00  0.00    -0.147 NA
ATOM      6  N   UNL d   1      32.453  18.776 -25.079  0.00  0.00    -0.121 NA
ATOM      7  C   UNL d   1      31.008  17.307 -24.483  0.00  0.00     0.163 A 
ATOM      8  N   UNL d   1      32.887  19.269 -24.594  0.00  0.00    -0.141 NA
ATOM      9  C   UNL d   1      32.790  19.230 -23.777  0.00  0.00     0.161 A 
ATOM     10  O   UNL d   1      32.161  18.658 -22.626  0.00  0.00    -0.263 OA
ATOM     11  C   UNL d   1      33.226  19.725 -23.279  0.00  0.00     0.028 C 
ENDROOT
BRANCH   7  12
ATOM     12  S   UNL d   1      30.443  16.708 -24.569  0.00  0.00    -0.059 SA
BRANCH  12  13
ATOM     13  C   UNL d   1      30.281  16.206 -23.939  0.00  0.00     0.038 C 
BRANCH  13  14
ATOM     14  C   UNL d   1      29.495  15.981 -23.851  0.00  0.00     0.017 A 
ATOM     15  C   UNL d   1      29.226  15.692 -23.123  0.00  0.00     0.058 A 
ATOM     16 CL   UNL d   1      29.745  15.631 -22.487  0.00  0.00    -0.082 Cl
ATOM     17  C   UNL d   1      28.449  15.467 -23.027  0.00  0.00     0.011 A 
ATOM     18  C   UNL d   1      27.917  15.525 -23.664  0.00  0.00     0.001 A 
ATOM     19  C   UNL d   1      28.175  15.810 -24.387  0.00  0.00     0.000 A 
ATOM     20  C   UNL d   1      28.963  16.039 -24.488  0.00  0.00     0.001 A 
ENDBRANCH  13  14
ENDBRANCH  12  13
ENDBRANCH   7  12
TORSDOF 3
ENDMDL
