MODEL 1
REMARK VINA RESULT:      -8.1      0.000      0.000
REMARK  10 active torsions:
REMARK  status: ('A' for Active; 'I' for Inactive)
REMARK    1  A    between atoms: N_3  and  C_1 
REMARK    2  A    between atoms: C_16  and  N_2 
REMARK       I    between atoms: C_7  and  N_3 
REMARK    3  A    between atoms: C_18  and  C_7 
REMARK    4  A    between atoms: C_10  and  C_20 
REMARK       I    between atoms: N_11  and  C_10 
REMARK    5  A    between atoms: C_19  and  N_11 
REMARK    6  A    between atoms: S_14  and  C_18 
REMARK    7  A    between atoms: C_20  and  S_14 
REMARK    8  A    between atoms: O_21  and  C_15 
REMARK    9  A    between atoms: C_23  and  C_16 
REMARK   10  A    between atoms: O_22  and  C_23 
ROOT
ATOM      1  C   UNL d   1      52.299  33.190  53.187  0.00  0.00     0.182 A 
ATOM      2  N   UNL d   1      52.885  32.607  53.261  0.00  0.00    -0.283 N 
ATOM      3  S   UNL d   1      52.497  33.817  53.699  0.00  0.00    -0.048 SA
ATOM      4  C   UNL d   1      53.207  33.615  54.086  0.00  0.00     0.050 A 
ATOM      5  C   UNL d   1      53.446  32.869  53.816  0.00  0.00     0.072 A 
ATOM      6  C   UNL d   1      53.658  34.026  54.650  0.00  0.00     0.032 A 
ATOM      7  C   UNL d   1      54.137  32.533  54.110  0.00  0.00     0.020 A 
ATOM      8  C   UNL d   1      54.348  33.674  54.934  0.00  0.00     0.095 A 
ATOM      9  C   UNL d   1      54.587  32.928  54.664  0.00  0.00     0.026 A 
ENDROOT
BRANCH   1  10
ATOM     10  N   UNL d   1      51.634  33.155  52.693  0.00  0.00    -0.183 NA
ATOM     11  C   UNL d   1      51.435  33.949  52.549  0.00  0.00     0.287 C 
ATOM     12  O   UNL d   1      51.887  34.559  52.888  0.00  0.00    -0.265 OA
BRANCH  11  13
ATOM     13  C   UNL d   1      50.793  34.138  52.072  0.00  0.00     0.098 C 
BRANCH  13  14
ATOM     14  S   UNL d   1      50.110  34.483  52.400  0.00  0.00    -0.076 SA
BRANCH  14  15
ATOM     15  C   UNL d   1      49.445  34.618  51.925  0.00  0.00     0.098 C 
BRANCH  15  16
ATOM     16  C   UNL d   1      48.796  35.030  52.224  0.00  0.00     0.286 C 
ATOM     17  N   UNL d   1      48.196  35.281  51.714  0.00  0.00    -0.208 NA
ATOM     18  O   UNL d   1      48.751  35.190  53.039  0.00  0.00    -0.265 OA
BRANCH  17  19
ATOM     19  C   UNL d   1      47.544  35.696  52.021  0.00  0.00     0.085 A 
ATOM     20  C   UNL d   1      47.664  36.295  52.567  0.00  0.00     0.019 A 
ATOM     21  C   UNL d   1      47.017  36.704  52.869  0.00  0.00     0.002 A 
ATOM     22  C   UNL d   1      46.247  36.508  52.618  0.00  0.00     0.000 A 
ATOM     23  C   UNL d   1      46.140  35.901  52.065  0.00  0.00     0.002 A 
ATOM     24  C   UNL d   1      46.788  35.492  51.764  0.00  0.00     0.019 A 
ENDBRANCH  17  19
ENDBRANCH  15  16
ENDBRANCH  14  15
ENDBRANCH  13  14
ENDBRANCH  11  13
ENDBRANCH   1  10
BRANCH   2  25
ATOM     25  C   UNL d   1      52.902  31.896  52.852  0.00  0.00     0.108 C 
BRANCH  25  26
ATOM     26  C   UNL d   1      52.595  31.211  53.187  0.00  0.00     0.135 C 
BRANCH  26  27
ATOM     27  O   UNL d   1      52.581  30.511  52.745  0.00  0.00    -0.325 OA
ATOM     28  C   UNL d   1      52.712  29.783  53.109  0.00  0.00     0.182 C 
ENDBRANCH  26  27
ENDBRANCH  25  26
ENDBRANCH   2  25
BRANCH   8  29
ATOM     29  O   UNL d   1      54.810  34.073  55.499  0.00  0.00    -0.328 OA
ATOM     30  C   UNL d   1      55.627  34.041  55.459  0.00  0.00     0.181 C 
ENDBRANCH   8  29
TORSDOF 10
ENDMDL
MODEL 2
REMARK VINA RESULT:      -7.9      0.993      2.552
REMARK  10 active torsions:
REMARK  status: ('A' for Active; 'I' for Inactive)
REMARK    1  A    between atoms: N_3  and  C_1 
REMARK    2  A    between atoms: C_16  and  N_2 
REMARK       I    between atoms: C_7  and  N_3 
REMARK    3  A    between atoms: C_18  and  C_7 
REMARK    4  A    between atoms: C_10  and  C_20 
REMARK       I    between atoms: N_11  and  C_10 
REMARK    5  A    between atoms: C_19  and  N_11 
REMARK    6  A    between atoms: S_14  and  C_18 
REMARK    7  A    between atoms: C_20  and  S_14 
REMARK    8  A    between atoms: O_21  and  C_15 
REMARK    9  A    between atoms: C_23  and  C_16 
REMARK   10  A    between atoms: O_22  and  C_23 
ROOT
ATOM      1  C   UNL d   1      52.668  32.837  53.065  0.00  0.00     0.182 A 
ATOM      2  N   UNL d   1      53.400  32.572  53.356  0.00  0.00    -0.283 N 
ATOM      3  S   UNL d   1      52.185  32.169  52.946  0.00  0.00    -0.048 SA
ATOM      4  C   UNL d   1      52.623  31.495  53.164  0.00  0.00     0.050 A 
ATOM      5  C   UNL d   1      53.372  31.744  53.417  0.00  0.00     0.072 A 
ATOM      6  C   UNL d   1      52.424  30.688  53.160  0.00  0.00     0.032 A 
ATOM      7  C   UNL d   1      53.923  31.187  53.666  0.00  0.00     0.020 A 
ATOM      8  C   UNL d   1      52.988  30.143  53.414  0.00  0.00     0.095 A 
ATOM      9  C   UNL d   1      53.738  30.392  53.667  0.00  0.00     0.026 A 
ENDROOT
BRANCH   1  10
ATOM     10  N   UNL d   1      52.456  33.625  52.920  0.00  0.00    -0.183 NA
ATOM     11  C   UNL d   1      51.626  33.631  52.954  0.00  0.00     0.287 C 
ATOM     12  O   UNL d   1      51.211  32.927  53.109  0.00  0.00    -0.265 OA
BRANCH  11  13
ATOM     13  C   UNL d   1      51.208  34.328  52.834  0.00  0.00     0.098 C 
BRANCH  13  14
ATOM     14  S   UNL d   1      50.378  34.338  52.882  0.00  0.00    -0.076 SA
BRANCH  14  15
ATOM     15  C   UNL d   1      49.985  35.017  53.148  0.00  0.00     0.098 C 
BRANCH  15  16
ATOM     16  C   UNL d   1      49.210  35.172  52.910  0.00  0.00     0.286 C 
ATOM     17  N   UNL d   1      48.796  35.805  53.239  0.00  0.00    -0.208 NA
ATOM     18  O   UNL d   1      48.852  34.686  52.338  0.00  0.00    -0.265 OA
BRANCH  17  19
ATOM     19  C   UNL d   1      48.015  35.956  52.995  0.00  0.00     0.085 A 
ATOM     20  C   UNL d   1      47.866  36.167  52.218  0.00  0.00     0.019 A 
ATOM     21  C   UNL d   1      47.093  36.317  51.979  0.00  0.00     0.002 A 
ATOM     22  C   UNL d   1      46.469  36.252  52.527  0.00  0.00     0.000 A 
ATOM     23  C   UNL d   1      46.634  36.038  53.310  0.00  0.00     0.002 A 
ATOM     24  C   UNL d   1      47.407  35.889  53.548  0.00  0.00     0.019 A 
ENDBRANCH  17  19
ENDBRANCH  15  16
ENDBRANCH  14  15
ENDBRANCH  13  14
ENDBRANCH  11  13
ENDBRANCH   1  10
BRANCH   2  25
ATOM     25  C   UNL d   1      54.036  33.053  53.548  0.00  0.00     0.108 C 
BRANCH  25  26
ATOM     26  C   UNL d   1      54.204  33.237  54.331  0.00  0.00     0.135 C 
BRANCH  26  27
ATOM     27  O   UNL d   1      54.869  33.696  54.509  0.00  0.00    -0.325 OA
ATOM     28  C   UNL d   1      55.094  33.821  55.292  0.00  0.00     0.182 C 
ENDBRANCH  26  27
ENDBRANCH  25  26
ENDBRANCH   2  25
BRANCH   8  29
ATOM     29  O   UNL d   1      52.804  29.331  53.416  0.00  0.00    -0.328 OA
ATOM     30  C   UNL d   1      53.028  28.860  54.047  0.00  0.00     0.181 C 
ENDBRANCH   8  29
TORSDOF 10
ENDMDL
MODEL 3
REMARK VINA RESULT:      -6.7      1.486      7.036
REMARK  10 active torsions:
REMARK  status: ('A' for Active; 'I' for Inactive)
REMARK    1  A    between atoms: N_3  and  C_1 
REMARK    2  A    between atoms: C_16  and  N_2 
REMARK       I    between atoms: C_7  and  N_3 
REMARK    3  A    between atoms: C_18  and  C_7 
REMARK    4  A    between atoms: C_10  and  C_20 
REMARK       I    between atoms: N_11  and  C_10 
REMARK    5  A    between atoms: C_19  and  N_11 
REMARK    6  A    between atoms: S_14  and  C_18 
REMARK    7  A    between atoms: C_20  and  S_14 
REMARK    8  A    between atoms: O_21  and  C_15 
REMARK    9  A    between atoms: C_23  and  C_16 
REMARK   10  A    between atoms: O_22  and  C_23 
ROOT
ATOM      1  C   UNL d   1      48.291  35.764  52.857  0.00  0.00     0.182 A 
ATOM      2  N   UNL d   1      47.625  36.153  53.165  0.00  0.00    -0.283 N 
ATOM      3  S   UNL d   1      48.083  35.457  52.110  0.00  0.00    -0.048 SA
ATOM      4  C   UNL d   1      47.289  35.659  51.963  0.00  0.00     0.050 A 
ATOM      5  C   UNL d   1      47.006  36.088  52.614  0.00  0.00     0.072 A 
ATOM      6  C   UNL d   1      46.795  35.500  51.314  0.00  0.00     0.032 A 
ATOM      7  C   UNL d   1      46.230  36.359  52.615  0.00  0.00     0.020 A 
ATOM      8  C   UNL d   1      46.019  35.779  51.332  0.00  0.00     0.095 A 
ATOM      9  C   UNL d   1      45.737  36.209  51.982  0.00  0.00     0.026 A 
ENDROOT
BRANCH   1  10
ATOM     10  N   UNL d   1      49.030  35.694  53.224  0.00  0.00    -0.183 NA
ATOM     11  C   UNL d   1      49.392  35.044  52.854  0.00  0.00     0.287 C 
ATOM     12  O   UNL d   1      48.990  34.634  52.252  0.00  0.00    -0.265 OA
BRANCH  11  13
ATOM     13  C   UNL d   1      50.145  34.803  53.076  0.00  0.00     0.098 C 
BRANCH  13  14
ATOM     14  S   UNL d   1      50.467  34.095  52.779  0.00  0.00    -0.076 SA
BRANCH  14  15
ATOM     15  C   UNL d   1      51.271  34.055  52.586  0.00  0.00     0.098 C 
BRANCH  15  16
ATOM     16  C   UNL d   1      51.761  33.499  52.950  0.00  0.00     0.286 C 
ATOM     17  N   UNL d   1      52.289  33.054  52.498  0.00  0.00    -0.208 NA
ATOM     18  O   UNL d   1      51.718  33.393  53.774  0.00  0.00    -0.265 OA
BRANCH  17  19
ATOM     19  C   UNL d   1      52.780  32.496  52.870  0.00  0.00     0.085 A 
ATOM     20  C   UNL d   1      52.523  31.723  52.958  0.00  0.00     0.019 A 
ATOM     21  C   UNL d   1      53.011  31.173  53.328  0.00  0.00     0.002 A 
ATOM     22  C   UNL d   1      53.760  31.404  53.609  0.00  0.00     0.000 A 
ATOM     23  C   UNL d   1      54.007  32.188  53.513  0.00  0.00     0.002 A 
ATOM     24  C   UNL d   1      53.519  32.739  53.144  0.00  0.00     0.019 A 
ENDBRANCH  17  19
ENDBRANCH  15  16
ENDBRANCH  14  15
ENDBRANCH  13  14
ENDBRANCH  11  13
ENDBRANCH   1  10
BRANCH   2  25
ATOM     25  C   UNL d   1      47.592  36.534  53.891  0.00  0.00     0.108 C 
BRANCH  25  26
ATOM     26  C   UNL d   1      47.042  36.310  54.459  0.00  0.00     0.135 C 
BRANCH  26  27
ATOM     27  O   UNL d   1      47.093  36.625  55.222  0.00  0.00    -0.325 OA
ATOM     28  C   UNL d   1      46.417  36.709  55.686  0.00  0.00     0.182 C 
ENDBRANCH  26  27
ENDBRANCH  25  26
ENDBRANCH   2  25
BRANCH   8  29
ATOM     29  O   UNL d   1      45.513  35.628  50.689  0.00  0.00    -0.328 OA
ATOM     30  C   UNL d   1      44.735  35.410  50.821  0.00  0.00     0.181 C 
ENDBRANCH   8  29
TORSDOF 10
ENDMDL
MODEL 4
REMARK VINA RESULT:      -5.9      1.632      6.789
REMARK  10 active torsions:
REMARK  status: ('A' for Active; 'I' for Inactive)
REMARK    1  A    between atoms: N_3  and  C_1 
REMARK    2  A    between atoms: C_16  and  N_2 
REMARK       I    between atoms: C_7  and  N_3 
REMARK    3  A    between atoms: C_18  and  C_7 
REMARK    4  A    between atoms: C_10  and  C_20 
REMARK       I    between atoms: N_11  and  C_10 
REMARK    5  A    between atoms: C_19  and  N_11 
REMARK    6  A    between atoms: S_14  and  C_18 
REMARK    7  A    between atoms: C_20  and  S_14 
REMARK    8  A    between atoms: O_21  and  C_15 
REMARK    9  A    between atoms: C_23  and  C_16 
REMARK   10  A    between atoms: O_22  and  C_23 
ROOT
ATOM      1  C   UNL d   1      47.870  35.753  52.908  0.00  0.00     0.182 A 
ATOM      2  N   UNL d   1      47.116  36.057  52.740  0.00  0.00    -0.283 N 
ATOM      3  S   UNL d   1      47.970  35.762  53.735  0.00  0.00    -0.048 SA
ATOM      4  C   UNL d   1      47.275  36.072  54.072  0.00  0.00     0.050 A 
ATOM      5  C   UNL d   1      46.748  36.254  53.458  0.00  0.00     0.072 A 
ATOM      6  C   UNL d   1      47.064  36.208  54.864  0.00  0.00     0.032 A 
ATOM      7  C   UNL d   1      46.011  36.572  53.636  0.00  0.00     0.020 A 
ATOM      8  C   UNL d   1      46.321  36.527  55.025  0.00  0.00     0.095 A 
ATOM      9  C   UNL d   1      45.794  36.709  54.411  0.00  0.00     0.026 A 
ENDROOT
BRANCH   1  10
ATOM     10  N   UNL d   1      48.426  35.488  52.353  0.00  0.00    -0.183 NA
ATOM     11  C   UNL d   1      49.044  35.167  52.806  0.00  0.00     0.287 C 
ATOM     12  O   UNL d   1      48.995  35.172  53.636  0.00  0.00    -0.265 OA
BRANCH  11  13
ATOM     13  C   UNL d   1      49.705  34.844  52.441  0.00  0.00     0.098 C 
BRANCH  13  14
ATOM     14  S   UNL d   1      50.335  34.546  52.895  0.00  0.00    -0.076 SA
BRANCH  14  15
ATOM     15  C   UNL d   1      51.068  34.396  52.540  0.00  0.00     0.098 C 
BRANCH  15  16
ATOM     16  C   UNL d   1      51.707  34.136  52.993  0.00  0.00     0.286 C 
ATOM     17  N   UNL d   1      52.160  33.494  52.740  0.00  0.00    -0.208 NA
ATOM     18  O   UNL d   1      51.890  34.527  53.704  0.00  0.00    -0.265 OA
BRANCH  17  19
ATOM     19  C   UNL d   1      52.803  33.238  53.201  0.00  0.00     0.085 A 
ATOM     20  C   UNL d   1      53.568  33.393  52.953  0.00  0.00     0.019 A 
ATOM     21  C   UNL d   1      54.202  33.138  53.411  0.00  0.00     0.002 A 
ATOM     22  C   UNL d   1      54.063  32.725  54.121  0.00  0.00     0.000 A 
ATOM     23  C   UNL d   1      53.285  32.576  54.360  0.00  0.00     0.002 A 
ATOM     24  C   UNL d   1      52.650  32.831  53.902  0.00  0.00     0.019 A 
ENDBRANCH  17  19
ENDBRANCH  15  16
ENDBRANCH  14  15
ENDBRANCH  13  14
ENDBRANCH  11  13
ENDBRANCH   1  10
BRANCH   2  25
ATOM     25  C   UNL d   1      46.796  36.144  51.989  0.00  0.00     0.108 C 
BRANCH  25  26
ATOM     26  C   UNL d   1      46.220  35.627  51.714  0.00  0.00     0.135 C 
BRANCH  26  27
ATOM     27  O   UNL d   1      46.022  35.625  50.911  0.00  0.00    -0.325 OA
ATOM     28  C   UNL d   1      45.241  35.515  50.672  0.00  0.00     0.182 C 
ENDBRANCH  26  27
ENDBRANCH  25  26
ENDBRANCH   2  25
BRANCH   8  29
ATOM     29  O   UNL d   1      46.096  36.669  55.813  0.00  0.00    -0.328 OA
ATOM     30  C   UNL d   1      45.315  36.571  56.042  0.00  0.00     0.181 C 
ENDBRANCH   8  29
TORSDOF 10
ENDMDL
