MODEL 1
REMARK VINA RESULT:      56.4      0.000      0.000
REMARK  4 active torsions:
REMARK  status: ('A' for Active; 'I' for Inactive)
REMARK    1  A    between atoms: C_2  and  S_1 
REMARK    2  A    between atoms: N_3  and  S_1 
REMARK    3  A    between atoms: C_7  and  N_4 
REMARK    4  A    between atoms: O_16  and  C_13 
ROOT
ATOM      1  N   UNL d   1      60.062  49.038  50.519  0.00  0.00    -0.226 N 
ATOM      2  N   UNL d   1      58.481  49.275  50.090  0.00  0.00    -0.300 N 
ATOM      3  C   UNL d   1      59.463  48.591  50.895  0.00  0.00     0.111 A 
ATOM      4  C   UNL d   1      59.871  49.589  49.944  0.00  0.00     0.111 A 
ATOM      5  C   UNL d   1      59.078  49.708  49.729  0.00  0.00     0.100 A 
ATOM      6  C   UNL d   1      58.678  48.728  50.663  0.00  0.00     0.100 A 
ENDROOT
BRANCH   1   7
ATOM      7  S   UNL d   1      60.850  48.920  50.733  0.00  0.00     0.274 S 
ATOM      8  O   UNL d   1      61.065  48.874  49.912  0.00  0.00    -0.200 OA
ATOM      9  O   UNL d   1      61.642  48.801  50.948  0.00  0.00    -0.200 OA
BRANCH   7  10
ATOM     10  C   UNL d   1      60.639  48.964  51.534  0.00  0.00     0.131 A 
ATOM     11  C   UNL d   1      60.710  48.306  52.014  0.00  0.00     0.152 A 
ATOM     12  F   UNL d   1      60.994  47.583  51.704  0.00  0.00    -0.203 F 
ATOM     13  C   UNL d   1      60.501  48.350  52.811  0.00  0.00     0.030 A 
ATOM     14  C   UNL d   1      60.219  49.053  53.133  0.00  0.00     0.002 A 
ATOM     15  C   UNL d   1      60.151  49.708  52.644  0.00  0.00     0.001 A 
ATOM     16  C   UNL d   1      60.361  49.663  51.847  0.00  0.00     0.015 A 
ENDBRANCH   7  10
ENDBRANCH   1   7
BRANCH   2  17
ATOM     17  C   UNL d   1      57.705  49.410  49.862  0.00  0.00     0.086 A 
ATOM     18  C   UNL d   1      57.116  49.459  50.460  0.00  0.00     0.110 A 
ATOM     19  C   UNL d   1      56.337  49.595  50.225  0.00  0.00     0.026 A 
ATOM     20  C   UNL d   1      56.125  49.680  49.448  0.00  0.00     0.002 A 
ATOM     21  C   UNL d   1      56.697  49.632  48.871  0.00  0.00     0.002 A 
ATOM     22  C   UNL d   1      57.485  49.497  49.077  0.00  0.00     0.019 A 
BRANCH  18  23
ATOM     23  O   UNL d   1      57.330  49.371  51.269  0.00  0.00    -0.327 OA
ATOM     24  C   UNL d   1      56.982  48.778  51.708  0.00  0.00     0.181 C 
ENDBRANCH  18  23
ENDBRANCH   2  17
TORSDOF 4
ENDMDL
