MODEL 1
REMARK VINA RESULT:      -4.5      0.000      0.000
REMARK  6 active torsions:
REMARK  status: ('A' for Active; 'I' for Inactive)
REMARK    1  A    between atoms: C_16  and  C_2 
REMARK    2  A    between atoms: C_11  and  C_7 
REMARK    3  A    between atoms: S_17  and  C_9 
REMARK    4  A    between atoms: O_20  and  C_11 
REMARK    5  A    between atoms: C_13  and  C_19 
REMARK    6  A    between atoms: C_19  and  S_17 
ROOT
ATOM      1  N   UNL d   1      59.884  -0.837  29.116  0.00  0.00    -0.191 N 
ATOM      2  C   UNL d   1      60.214  -1.518  28.801  0.00  0.00     0.187 A 
ATOM      3  N   UNL d   1      60.929  -1.313  28.455  0.00  0.00    -0.127 NA
ATOM      4  C   UNL d   1      60.383  -0.204  28.971  0.00  0.00     0.187 A 
ATOM      5  N   UNL d   1      59.166  -0.707  29.531  0.00  0.00    -0.156 NA
ATOM      6  N   UNL d   1      61.041  -0.501  28.556  0.00  0.00    -0.127 NA
ATOM      7  C   UNL d   1      58.968   0.051  29.789  0.00  0.00     0.131 A 
ATOM      8  C   UNL d   1      60.185   0.554  29.229  0.00  0.00     0.043 A 
ATOM      9  C   UNL d   1      59.478   0.682  29.638  0.00  0.00     0.031 A 
ENDROOT
BRANCH   7  10
ATOM     10  S   UNL d   1      58.261   0.179  30.197  0.00  0.00    -0.064 SA
BRANCH  10  11
ATOM     11  C   UNL d   1      58.031  -0.343  30.791  0.00  0.00     0.062 C 
BRANCH  11  12
ATOM     12  C   UNL d   1      57.411  -0.146  31.286  0.00  0.00     0.107 A 
ATOM     13  O   UNL d   1      57.049  -0.646  31.827  0.00  0.00    -0.301 OA
ATOM     14  C   UNL d   1      56.456  -0.232  32.209  0.00  0.00     0.163 A 
ATOM     15  C   UNL d   1      56.442   0.540  31.906  0.00  0.00     0.032 A 
ATOM     16  C   UNL d   1      57.035   0.589  31.335  0.00  0.00     0.027 A 
BRANCH  14  17
ATOM     17  C   UNL d   1      55.953  -0.518  32.793  0.00  0.00     0.319 C 
ATOM     18  O   UNL d   1      55.874  -1.332  32.932  0.00  0.00    -0.257 OA
BRANCH  17  19
ATOM     19  O   UNL d   1      55.517   0.009  33.253  0.00  0.00    -0.294 OA
ATOM     20  C   UNL d   1      54.964  -0.264  33.805  0.00  0.00     0.185 C 
ENDBRANCH  17  19
ENDBRANCH  14  17
ENDBRANCH  11  12
ENDBRANCH  10  11
ENDBRANCH   7  10
BRANCH   2  21
ATOM     21  C   UNL d   1      59.895  -2.272  28.824  0.00  0.00     0.038 A 
ATOM     22  C   UNL d   1      60.300  -2.873  29.225  0.00  0.00     0.003 A 
ATOM     23  C   UNL d   1      59.981  -3.637  29.251  0.00  0.00     0.000 A 
ATOM     24  C   UNL d   1      59.262  -3.794  28.877  0.00  0.00     0.000 A 
ATOM     25  C   UNL d   1      58.857  -3.193  28.477  0.00  0.00     0.000 A 
ATOM     26  C   UNL d   1      59.181  -2.433  28.455  0.00  0.00     0.003 A 
ENDBRANCH   2  21
TORSDOF 6
ENDMDL
MODEL 2
REMARK VINA RESULT:      -1.8      2.412      5.042
REMARK  6 active torsions:
REMARK  status: ('A' for Active; 'I' for Inactive)
REMARK    1  A    between atoms: C_16  and  C_2 
REMARK    2  A    between atoms: C_11  and  C_7 
REMARK    3  A    between atoms: S_17  and  C_9 
REMARK    4  A    between atoms: O_20  and  C_11 
REMARK    5  A    between atoms: C_13  and  C_19 
REMARK    6  A    between atoms: C_19  and  S_17 
ROOT
ATOM      1  N   UNL d   1      57.565   0.038  32.424  0.00  0.00    -0.191 N 
ATOM      2  C   UNL d   1      57.056  -0.060  33.059  0.00  0.00     0.187 A 
ATOM      3  N   UNL d   1      57.378   0.337  33.701  0.00  0.00    -0.127 NA
ATOM      4  C   UNL d   1      58.204   0.493  32.658  0.00  0.00     0.187 A 
ATOM      5  N   UNL d   1      57.526  -0.239  31.633  0.00  0.00    -0.156 NA
ATOM      6  N   UNL d   1      58.089   0.682  33.461  0.00  0.00    -0.127 NA
ATOM      7  C   UNL d   1      58.127  -0.053  31.099  0.00  0.00     0.131 A 
ATOM      8  C   UNL d   1      58.805   0.679  32.125  0.00  0.00     0.043 A 
ATOM      9  C   UNL d   1      58.767   0.406  31.346  0.00  0.00     0.031 A 
ENDROOT
BRANCH   7  10
ATOM     10  S   UNL d   1      58.089  -0.325  30.320  0.00  0.00    -0.064 SA
BRANCH  10  11
ATOM     11  C   UNL d   1      58.783  -0.477  29.904  0.00  0.00     0.062 C 
BRANCH  11  12
ATOM     12  C   UNL d   1      58.838  -1.145  29.436  0.00  0.00     0.107 A 
ATOM     13  O   UNL d   1      59.331  -1.787  29.570  0.00  0.00    -0.301 OA
ATOM     14  C   UNL d   1      59.215  -2.335  28.973  0.00  0.00     0.163 A 
ATOM     15  C   UNL d   1      58.640  -2.035  28.455  0.00  0.00     0.032 A 
ATOM     16  C   UNL d   1      58.409  -1.298  28.746  0.00  0.00     0.027 A 
BRANCH  14  17
ATOM     17  C   UNL d   1      59.594  -3.059  28.889  0.00  0.00     0.319 C 
ATOM     18  O   UNL d   1      59.186  -3.731  28.625  0.00  0.00    -0.257 OA
BRANCH  17  19
ATOM     19  O   UNL d   1      60.396  -3.125  29.069  0.00  0.00    -0.294 OA
ATOM     20  C   UNL d   1      60.718  -3.845  29.322  0.00  0.00     0.185 C 
ENDBRANCH  17  19
ENDBRANCH  14  17
ENDBRANCH  11  12
ENDBRANCH  10  11
ENDBRANCH   7  10
BRANCH   2  21
ATOM     21  C   UNL d   1      56.351  -0.478  33.062  0.00  0.00     0.038 A 
ATOM     22  C   UNL d   1      56.366  -1.300  32.967  0.00  0.00     0.003 A 
ATOM     23  C   UNL d   1      55.655  -1.727  32.969  0.00  0.00     0.000 A 
ATOM     24  C   UNL d   1      54.939  -1.329  33.065  0.00  0.00     0.000 A 
ATOM     25  C   UNL d   1      54.925  -0.507  33.161  0.00  0.00     0.000 A 
ATOM     26  C   UNL d   1      55.638  -0.087  33.158  0.00  0.00     0.003 A 
ENDBRANCH   2  21
TORSDOF 6
ENDMDL
