MODEL 1
REMARK VINA RESULT:      -5.1      0.000      0.000
REMARK  5 active torsions:
REMARK  status: ('A' for Active; 'I' for Inactive)
REMARK    1  A    between atoms: C_10  and  N_1 
REMARK    2  A    between atoms: N_2  and  C_8 
REMARK    3  A    between atoms: C_5  and  C_12 
REMARK       I    between atoms: N_6  and  C_5 
REMARK    4  A    between atoms: C_7  and  N_6 
REMARK    5  A    between atoms: O_26  and  C_14 
ROOT
ATOM      1  C   UNL d   1      57.348  -1.052  31.014  0.00  0.00     0.279 C 
ATOM      2  N   UNL d   1      57.938  -0.631  30.640  0.00  0.00    -0.206 NA
ATOM      3  O   UNL d   1      57.102  -1.780  30.728  0.00  0.00    -0.265 OA
ENDROOT
BRANCH   1   4
ATOM      4  C   UNL d   1      56.985  -0.734  31.707  0.00  0.00     0.058 A 
ATOM      5  C   UNL d   1      57.075   0.057  31.882  0.00  0.00     0.006 A 
ATOM      6  C   UNL d   1      56.715   0.373  32.571  0.00  0.00     0.018 A 
ATOM      7  C   UNL d   1      56.278  -0.115  33.057  0.00  0.00     0.070 A 
ATOM      8  C   UNL d   1      56.186  -0.911  32.883  0.00  0.00     0.018 A 
ATOM      9  C   UNL d   1      56.547  -1.227  32.194  0.00  0.00     0.006 A 
BRANCH   7  10
ATOM     10  N   UNL d   1      55.914   0.204  33.753  0.00  0.00    -0.242 N 
ATOM     11  C   UNL d   1      55.119   0.382  33.933  0.00  0.00     0.267 A 
ATOM     12  C   UNL d   1      55.095   0.682  34.698  0.00  0.00     0.066 A 
ATOM     13  O   UNL d   1      54.438   0.271  33.408  0.00  0.00    -0.267 OA
ATOM     14  C   UNL d   1      55.876   0.682  34.971  0.00  0.00     0.066 A 
ATOM     15  C   UNL d   1      56.380   0.391  34.398  0.00  0.00     0.267 A 
ATOM     16  O   UNL d   1      57.212   0.313  34.486  0.00  0.00    -0.267 OA
ENDBRANCH   7  10
ENDBRANCH   1   4
BRANCH   2  17
ATOM     17  C   UNL d   1      58.303  -0.951  29.944  0.00  0.00     0.108 A 
ATOM     18  C   UNL d   1      58.619  -1.718  29.953  0.00  0.00     0.045 A 
ATOM     19  C   UNL d   1      58.974  -2.029  29.276  0.00  0.00     0.128 A 
ATOM     20  C   UNL d   1      59.020  -1.579  28.575  0.00  0.00     0.026 A 
ATOM     21  C   UNL d   1      58.702  -0.815  28.577  0.00  0.00     0.027 A 
ATOM     22  C   UNL d   1      58.347  -0.505  29.254  0.00  0.00     0.112 A 
BRANCH  19  23
ATOM     23  N   UNL d   1      59.280  -2.782  29.296  0.00  0.00    -0.114 N 
ATOM     24  O   UNL d   1      58.850  -3.484  29.152  0.00  0.00    -0.532 OA
ATOM     25  O   UNL d   1      60.115  -2.894  29.479  0.00  0.00    -0.532 OA
ENDBRANCH  19  23
BRANCH  22  26
ATOM     26  O   UNL d   1      58.040   0.252  29.231  0.00  0.00    -0.327 OA
ATOM     27  C   UNL d   1      58.029   0.671  28.517  0.00  0.00     0.181 C 
ENDBRANCH  22  26
ENDBRANCH   2  17
TORSDOF 5
ENDMDL
MODEL 2
REMARK VINA RESULT:      -2.6      1.223      5.552
REMARK  5 active torsions:
REMARK  status: ('A' for Active; 'I' for Inactive)
REMARK    1  A    between atoms: C_10  and  N_1 
REMARK    2  A    between atoms: N_2  and  C_8 
REMARK    3  A    between atoms: C_5  and  C_12 
REMARK       I    between atoms: N_6  and  C_5 
REMARK    4  A    between atoms: C_7  and  N_6 
REMARK    5  A    between atoms: O_26  and  C_14 
ROOT
ATOM      1  C   UNL d   1      56.464  -0.051  32.510  0.00  0.00     0.279 C 
ATOM      2  N   UNL d   1      56.563   0.574  33.024  0.00  0.00    -0.206 NA
ATOM      3  O   UNL d   1      55.930  -0.651  32.673  0.00  0.00    -0.265 OA
ENDROOT
BRANCH   1   4
ATOM      4  C   UNL d   1      56.919  -0.082  31.799  0.00  0.00     0.058 A 
ATOM      5  C   UNL d   1      57.006  -0.792  31.407  0.00  0.00     0.006 A 
ATOM      6  C   UNL d   1      57.457  -0.822  30.700  0.00  0.00     0.018 A 
ATOM      7  C   UNL d   1      57.804  -0.142  30.414  0.00  0.00     0.070 A 
ATOM      8  C   UNL d   1      57.717   0.573  30.806  0.00  0.00     0.018 A 
ATOM      9  C   UNL d   1      57.266   0.603  31.513  0.00  0.00     0.006 A 
BRANCH   7  10
ATOM     10  N   UNL d   1      58.260  -0.173  29.699  0.00  0.00    -0.242 N 
ATOM     11  C   UNL d   1      58.141   0.168  28.948  0.00  0.00     0.267 A 
ATOM     12  C   UNL d   1      58.770  -0.054  28.468  0.00  0.00     0.066 A 
ATOM     13  O   UNL d   1      57.472   0.668  28.713  0.00  0.00    -0.267 OA
ATOM     14  C   UNL d   1      59.263  -0.527  28.935  0.00  0.00     0.066 A 
ATOM     15  C   UNL d   1      58.956  -0.603  29.689  0.00  0.00     0.267 A 
ATOM     16  O   UNL d   1      59.311  -1.044  30.309  0.00  0.00    -0.267 OA
ENDBRANCH   7  10
ENDBRANCH   1   4
BRANCH   2  17
ATOM     17  C   UNL d   1      56.107   0.605  33.738  0.00  0.00     0.108 A 
ATOM     18  C   UNL d   1      55.277   0.591  33.704  0.00  0.00     0.045 A 
ATOM     19  C   UNL d   1      54.834   0.621  34.399  0.00  0.00     0.128 A 
ATOM     20  C   UNL d   1      55.209   0.666  35.143  0.00  0.00     0.026 A 
ATOM     21  C   UNL d   1      56.036   0.679  35.165  0.00  0.00     0.027 A 
ATOM     22  C   UNL d   1      56.480   0.649  34.470  0.00  0.00     0.112 A 
BRANCH  19  23
ATOM     23  N   UNL d   1      54.021   0.606  34.354  0.00  0.00    -0.114 N 
ATOM     24  O   UNL d   1      53.575   0.637  33.648  0.00  0.00    -0.532 OA
ATOM     25  O   UNL d   1      53.559   0.555  35.080  0.00  0.00    -0.532 OA
ENDBRANCH  19  23
BRANCH  22  26
ATOM     26  O   UNL d   1      57.296   0.664  34.518  0.00  0.00    -0.327 OA
ATOM     27  C   UNL d   1      57.665   0.679  35.258  0.00  0.00     0.181 C 
ENDBRANCH  22  26
ENDBRANCH   2  17
TORSDOF 5
ENDMDL
