MODEL 1
REMARK VINA RESULT:      -3.2      0.000      0.000
REMARK  0 active torsions:
REMARK  status: ('A' for Active; 'I' for Inactive)
ROOT
ATOM      1  C   UNL d   1      29.411  16.002 -23.377  0.00  0.00     0.110 A 
ATOM      2  C   UNL d   1      28.916  16.535 -23.766  0.00  0.00     0.110 A 
ATOM      3  C   UNL d   1      30.230  16.014 -23.511  0.00  0.00     0.207 A 
ATOM      4  C   UNL d   1      29.239  17.079 -24.289  0.00  0.00     0.207 A 
ATOM      5  C   UNL d   1      30.532  16.564 -24.036  0.00  0.00     0.043 A 
ATOM      6  C   UNL d   1      30.036  17.096 -24.425  0.00  0.00     0.043 A 
ATOM      7  O   UNL d   1      30.721  15.488 -23.126  0.00  0.00    -0.286 OA
ATOM      8  O   UNL d   1      28.747  17.613 -24.681  0.00  0.00    -0.286 OA
ATOM      9 CL   UNL d   1      28.111  16.514 -23.626  0.00  0.00    -0.078 Cl
ATOM     10 CL   UNL d   1      29.093  15.453 -22.850  0.00  0.00    -0.078 Cl
ATOM     11  C   UNL d   1      31.351  16.576 -24.170  0.00  0.00     0.003 A 
ATOM     12  C   UNL d   1      30.378  17.637 -24.948  0.00  0.00     0.003 A 
ATOM     13  C   UNL d   1      31.671  17.123 -24.695  0.00  0.00     0.000 A 
ATOM     14  C   UNL d   1      31.179  17.669 -25.097  0.00  0.00     0.000 A 
ENDROOT
TORSDOF 0
ENDMDL
MODEL 2
REMARK VINA RESULT:      -3.2      0.046      1.732
REMARK  0 active torsions:
REMARK  status: ('A' for Active; 'I' for Inactive)
ROOT
ATOM      1  C   UNL d   1      28.907  16.550 -23.750  0.00  0.00     0.110 A 
ATOM      2  C   UNL d   1      29.406  16.005 -23.383  0.00  0.00     0.110 A 
ATOM      3  C   UNL d   1      29.214  17.115 -24.275  0.00  0.00     0.207 A 
ATOM      4  C   UNL d   1      30.212  16.025 -23.540  0.00  0.00     0.207 A 
ATOM      5  C   UNL d   1      30.019  17.119 -24.417  0.00  0.00     0.043 A 
ATOM      6  C   UNL d   1      30.518  16.574 -24.050  0.00  0.00     0.043 A 
ATOM      7  O   UNL d   1      28.720  17.654 -24.638  0.00  0.00    -0.286 OA
ATOM      8  O   UNL d   1      30.715  15.483 -23.175  0.00  0.00    -0.286 OA
ATOM      9 CL   UNL d   1      29.093  15.453 -22.869  0.00  0.00    -0.078 Cl
ATOM     10 CL   UNL d   1      28.096  16.534 -23.597  0.00  0.00    -0.078 Cl
ATOM     11  C   UNL d   1      30.325  17.684 -24.942  0.00  0.00     0.003 A 
ATOM     12  C   UNL d   1      31.326  16.610 -24.220  0.00  0.00     0.003 A 
ATOM     13  C   UNL d   1      31.134  17.702 -25.097  0.00  0.00     0.000 A 
ATOM     14  C   UNL d   1      31.652  17.154 -24.730  0.00  0.00     0.000 A 
ENDROOT
TORSDOF 0
ENDMDL
MODEL 3
REMARK VINA RESULT:      -3.1      0.908      1.451
REMARK  0 active torsions:
REMARK  status: ('A' for Active; 'I' for Inactive)
ROOT
ATOM      1  C   UNL d   1      28.910  16.576 -23.782  0.00  0.00     0.110 A 
ATOM      2  C   UNL d   1      29.230  17.139 -24.293  0.00  0.00     0.110 A 
ATOM      3  C   UNL d   1      29.397  16.009 -23.422  0.00  0.00     0.207 A 
ATOM      4  C   UNL d   1      30.037  17.135 -24.444  0.00  0.00     0.207 A 
ATOM      5  C   UNL d   1      30.198  16.022 -23.586  0.00  0.00     0.043 A 
ATOM      6  C   UNL d   1      30.518  16.584 -24.097  0.00  0.00     0.043 A 
ATOM      7  O   UNL d   1      29.080  15.453 -22.916  0.00  0.00    -0.286 OA
ATOM      8  O   UNL d   1      30.362  17.695 -24.955  0.00  0.00    -0.286 OA
ATOM      9 CL   UNL d   1      28.741  17.693 -24.642  0.00  0.00    -0.078 Cl
ATOM     10 CL   UNL d   1      28.099  16.575 -23.626  0.00  0.00    -0.078 Cl
ATOM     11  C   UNL d   1      30.685  15.454 -23.226  0.00  0.00     0.003 A 
ATOM     12  C   UNL d   1      31.332  16.565 -24.237  0.00  0.00     0.003 A 
ATOM     13  C   UNL d   1      31.493  15.453 -23.379  0.00  0.00     0.000 A 
ATOM     14  C   UNL d   1      31.831  16.019 -23.897  0.00  0.00     0.000 A 
ENDROOT
TORSDOF 0
ENDMDL
MODEL 4
REMARK VINA RESULT:      -2.8      1.822      2.478
REMARK  0 active torsions:
REMARK  status: ('A' for Active; 'I' for Inactive)
ROOT
ATOM      1  C   UNL d   1      32.043  17.198 -24.021  0.00  0.00     0.110 A 
ATOM      2  C   UNL d   1      31.538  17.650 -24.491  0.00  0.00     0.110 A 
ATOM      3  C   UNL d   1      31.758  16.531 -23.618  0.00  0.00     0.207 A 
ATOM      4  C   UNL d   1      30.748  17.434 -24.559  0.00  0.00     0.207 A 
ATOM      5  C   UNL d   1      30.969  16.333 -23.699  0.00  0.00     0.043 A 
ATOM      6  C   UNL d   1      30.464  16.785 -24.169  0.00  0.00     0.043 A 
ATOM      7  O   UNL d   1      32.258  16.084 -23.153  0.00  0.00    -0.286 OA
ATOM      8  O   UNL d   1      30.239  17.883 -25.029  0.00  0.00    -0.286 OA
ATOM      9 CL   UNL d   1      31.829  18.305 -24.883  0.00  0.00    -0.078 Cl
ATOM     10 CL   UNL d   1      32.837  17.409 -23.949  0.00  0.00    -0.078 Cl
ATOM     11  C   UNL d   1      30.685  15.666 -23.296  0.00  0.00     0.003 A 
ATOM     12  C   UNL d   1      29.672  16.553 -24.226  0.00  0.00     0.003 A 
ATOM     13  C   UNL d   1      29.893  15.453 -23.366  0.00  0.00     0.000 A 
ATOM     14  C   UNL d   1      29.369  15.903 -23.841  0.00  0.00     0.000 A 
ENDROOT
TORSDOF 0
ENDMDL
MODEL 5
REMARK VINA RESULT:      -2.6      6.199      6.611
REMARK  0 active torsions:
REMARK  status: ('A' for Active; 'I' for Inactive)
ROOT
ATOM      1  C   UNL d   1      32.861  20.802 -21.920  0.00  0.00     0.110 A 
ATOM      2  C   UNL d   1      33.037  21.259 -22.584  0.00  0.00     0.110 A 
ATOM      3  C   UNL d   1      32.653  21.164 -21.203  0.00  0.00     0.207 A 
ATOM      4  C   UNL d   1      33.006  22.077 -22.531  0.00  0.00     0.207 A 
ATOM      5  C   UNL d   1      32.627  21.980 -21.171  0.00  0.00     0.043 A 
ATOM      6  C   UNL d   1      32.804  22.437 -21.835  0.00  0.00     0.043 A 
ATOM      7  O   UNL d   1      32.478  20.712 -20.546  0.00  0.00    -0.286 OA
ATOM      8  O   UNL d   1      33.182  22.539 -23.192  0.00  0.00    -0.286 OA
ATOM      9 CL   UNL d   1      33.241  20.891 -23.285  0.00  0.00    -0.078 Cl
ATOM     10 CL   UNL d   1      32.891  19.978 -21.967  0.00  0.00    -0.078 Cl
ATOM     11  C   UNL d   1      32.420  22.342 -20.454  0.00  0.00     0.003 A 
ATOM     12  C   UNL d   1      32.767  23.260 -21.763  0.00  0.00     0.003 A 
ATOM     13  C   UNL d   1      32.389  23.163 -20.404  0.00  0.00     0.000 A 
ATOM     14  C   UNL d   1      32.566  23.639 -21.071  0.00  0.00     0.000 A 
ENDROOT
TORSDOF 0
ENDMDL
MODEL 6
REMARK VINA RESULT:      -2.5      6.498      6.904
REMARK  0 active torsions:
REMARK  status: ('A' for Active; 'I' for Inactive)
ROOT
ATOM      1  C   UNL d   1      32.674  21.557 -21.001  0.00  0.00     0.110 A 
ATOM      2  C   UNL d   1      32.421  22.254 -20.638  0.00  0.00     0.110 A 
ATOM      3  C   UNL d   1      32.938  21.564 -21.788  0.00  0.00     0.207 A 
ATOM      4  C   UNL d   1      32.432  22.957 -21.062  0.00  0.00     0.207 A 
ATOM      5  C   UNL d   1      32.941  22.274 -22.192  0.00  0.00     0.043 A 
ATOM      6  C   UNL d   1      32.688  22.971 -21.830  0.00  0.00     0.043 A 
ATOM      7  O   UNL d   1      33.189  20.875 -22.146  0.00  0.00    -0.286 OA
ATOM      8  O   UNL d   1      32.180  23.656 -20.704  0.00  0.00    -0.286 OA
ATOM      9 CL   UNL d   1      32.164  22.235 -19.863  0.00  0.00    -0.078 Cl
ATOM     10 CL   UNL d   1      32.666  20.847 -20.580  0.00  0.00    -0.078 Cl
ATOM     11  C   UNL d   1      33.205  22.281 -22.979  0.00  0.00     0.003 A 
ATOM     12  C   UNL d   1      32.706  23.669 -22.272  0.00  0.00     0.003 A 
ATOM     13  C   UNL d   1      33.215  22.988 -23.401  0.00  0.00     0.000 A 
ATOM     14  C   UNL d   1      32.960  23.702 -23.045  0.00  0.00     0.000 A 
ENDROOT
TORSDOF 0
ENDMDL
MODEL 7
REMARK VINA RESULT:      -2.4      5.378      5.838
REMARK  0 active torsions:
REMARK  status: ('A' for Active; 'I' for Inactive)
ROOT
ATOM      1  C   UNL d   1      33.237  21.337 -21.116  0.00  0.00     0.110 A 
ATOM      2  C   UNL d   1      33.239  21.742 -21.835  0.00  0.00     0.110 A 
ATOM      3  C   UNL d   1      33.236  20.508 -21.100  0.00  0.00     0.207 A 
ATOM      4  C   UNL d   1      33.239  21.317 -22.538  0.00  0.00     0.207 A 
ATOM      5  C   UNL d   1      33.237  20.103 -21.810  0.00  0.00     0.043 A 
ATOM      6  C   UNL d   1      33.238  20.508 -22.529  0.00  0.00     0.043 A 
ATOM      7  O   UNL d   1      33.235  20.108 -20.389  0.00  0.00    -0.286 OA
ATOM      8  O   UNL d   1      33.241  21.717 -23.259  0.00  0.00    -0.286 OA
ATOM      9 CL   UNL d   1      33.240  22.559 -21.839  0.00  0.00    -0.078 Cl
ATOM     10 CL   UNL d   1      33.237  21.758 -20.406  0.00  0.00    -0.078 Cl
ATOM     11  C   UNL d   1      33.236  19.274 -21.794  0.00  0.00     0.003 A 
ATOM     12  C   UNL d   1      33.239  20.064 -23.227  0.00  0.00     0.003 A 
ATOM     13  C   UNL d   1      33.237  18.851 -22.500  0.00  0.00     0.000 A 
ATOM     14  C   UNL d   1      33.238  19.249 -23.238  0.00  0.00     0.000 A 
ENDROOT
TORSDOF 0
ENDMDL
MODEL 8
REMARK VINA RESULT:      -2.1      4.849      5.578
REMARK  0 active torsions:
REMARK  status: ('A' for Active; 'I' for Inactive)
ROOT
ATOM      1  C   UNL d   1      33.226  19.942 -23.561  0.00  0.00     0.110 A 
ATOM      2  C   UNL d   1      33.227  19.269 -23.085  0.00  0.00     0.110 A 
ATOM      3  C   UNL d   1      33.229  20.699 -23.221  0.00  0.00     0.207 A 
ATOM      4  C   UNL d   1      33.231  19.352 -22.268  0.00  0.00     0.207 A 
ATOM      5  C   UNL d   1      33.233  20.760 -22.406  0.00  0.00     0.043 A 
ATOM      6  C   UNL d   1      33.234  20.087 -21.929  0.00  0.00     0.043 A 
ATOM      7  O   UNL d   1      33.228  21.365 -23.692  0.00  0.00    -0.286 OA
ATOM      8  O   UNL d   1      33.232  18.682 -21.787  0.00  0.00    -0.286 OA
ATOM      9 CL   UNL d   1      33.224  18.529 -23.431  0.00  0.00    -0.078 Cl
ATOM     10 CL   UNL d   1      33.221  19.865 -24.383  0.00  0.00    -0.078 Cl
ATOM     11  C   UNL d   1      33.236  21.517 -22.065  0.00  0.00     0.003 A 
ATOM     12  C   UNL d   1      33.238  20.190 -21.109  0.00  0.00     0.003 A 
ATOM     13  C   UNL d   1      33.240  21.597 -21.246  0.00  0.00     0.000 A 
ATOM     14  C   UNL d   1      33.241  20.921 -20.750  0.00  0.00     0.000 A 
ENDROOT
TORSDOF 0
ENDMDL
MODEL 9
REMARK VINA RESULT:      -2.1      1.281      2.023
REMARK  0 active torsions:
REMARK  status: ('A' for Active; 'I' for Inactive)
ROOT
ATOM      1  C   UNL d   1      30.006  16.088 -23.344  0.00  0.00     0.110 A 
ATOM      2  C   UNL d   1      30.693  16.376 -23.699  0.00  0.00     0.110 A 
ATOM      3  C   UNL d   1      29.269  16.432 -23.511  0.00  0.00     0.207 A 
ATOM      4  C   UNL d   1      30.643  17.008 -24.220  0.00  0.00     0.207 A 
ATOM      5  C   UNL d   1      29.242  17.061 -24.033  0.00  0.00     0.043 A 
ATOM      6  C   UNL d   1      29.929  17.349 -24.388  0.00  0.00     0.043 A 
ATOM      7  O   UNL d   1      28.590  16.147 -23.160  0.00  0.00    -0.286 OA
ATOM      8  O   UNL d   1      31.327  17.300 -24.577  0.00  0.00    -0.286 OA
ATOM      9 CL   UNL d   1      31.412  16.029 -23.527  0.00  0.00    -0.078 Cl
ATOM     10 CL   UNL d   1      30.048  15.453 -22.819  0.00  0.00    -0.078 Cl
ATOM     11  C   UNL d   1      28.506  17.405 -24.200  0.00  0.00     0.003 A 
ATOM     12  C   UNL d   1      29.860  17.986 -24.910  0.00  0.00     0.003 A 
ATOM     13  C   UNL d   1      28.459  18.039 -24.723  0.00  0.00     0.000 A 
ATOM     14  C   UNL d   1      29.150  18.341 -25.090  0.00  0.00     0.000 A 
ENDROOT
TORSDOF 0
ENDMDL
