MODEL 1
REMARK VINA RESULT:       8.9      0.000      0.000
REMARK  4 active torsions:
REMARK  status: ('A' for Active; 'I' for Inactive)
REMARK    1  A    between atoms: S_5  and  C_2 
REMARK    2  A    between atoms: C_14  and  S_5 
REMARK    3  A    between atoms: N_11  and  C_8 
REMARK    4  A    between atoms: C_15  and  N_11 
ROOT
ATOM      1  C   UNL d   1     -41.718-122.615 -52.678  0.00  0.00     0.197 A 
ATOM      2  C   UNL d   1     -41.554-123.110 -52.040  0.00  0.00     0.227 A 
ATOM      3  N   UNL d   1     -41.499-123.007 -53.372  0.00  0.00    -0.192 N 
ATOM      4  N   UNL d   1     -42.040-121.852 -52.718  0.00  0.00    -0.206 NA
ATOM      5  N   UNL d   1     -41.230-123.817 -52.340  0.00  0.00    -0.115 NA
ATOM      6  N   UNL d   1     -41.198-123.748 -53.167  0.00  0.00    -0.058 NA
ATOM      7  C   UNL d   1     -42.145-121.478 -53.453  0.00  0.00     0.166 A 
ATOM      8  C   UNL d   1     -41.923-121.878 -54.142  0.00  0.00     0.054 A 
ATOM      9  C   UNL d   1     -41.602-122.637 -54.110  0.00  0.00     0.089 A 
ATOM     10  C   UNL d   1     -42.025-121.511 -54.881  0.00  0.00     0.005 A 
ATOM     11  C   UNL d   1     -41.382-123.033 -54.800  0.00  0.00     0.019 A 
ATOM     12  C   UNL d   1     -41.807-121.904 -55.570  0.00  0.00     0.000 A 
ATOM     13  C   UNL d   1     -41.484-122.667 -55.530  0.00  0.00     0.002 A 
ENDROOT
BRANCH   2  14
ATOM     14  S   UNL d   1     -41.683-122.945 -51.243  0.00  0.00     0.231 S 
ATOM     15  O   UNL d   1     -41.132-122.335 -51.249  0.00  0.00    -0.215 OA
ATOM     16  O   UNL d   1     -42.238-123.560 -51.240  0.00  0.00    -0.215 OA
BRANCH  14  17
ATOM     17  C   UNL d   1     -41.849-122.822 -50.448  0.00  0.00     0.090 A 
ATOM     18  C   UNL d   1     -41.237-122.808 -49.899  0.00  0.00     0.011 A 
ATOM     19  C   UNL d   1     -41.393-122.686 -49.104  0.00  0.00     0.001 A 
ATOM     20  C   UNL d   1     -42.177-122.576 -48.854  0.00  0.00     0.000 A 
ATOM     21  C   UNL d   1     -42.791-122.590 -49.409  0.00  0.00     0.001 A 
ATOM     22  C   UNL d   1     -42.628-122.713 -50.200  0.00  0.00     0.011 A 
ENDBRANCH  14  17
ENDBRANCH   2  14
BRANCH   7  23
ATOM     23  N   UNL d   1     -42.466-120.719 -53.493  0.00  0.00    -0.227 NA
BRANCH  23  24
ATOM     24  C   UNL d   1     -42.025-120.070 -53.243  0.00  0.00     0.083 A 
ATOM     25  C   UNL d   1     -41.794-120.006 -52.454  0.00  0.00     0.019 A 
ATOM     26  C   UNL d   1     -41.353-119.357 -52.205  0.00  0.00     0.002 A 
ATOM     27  C   UNL d   1     -41.123-119.293 -51.415  0.00  0.00     0.000 C 
ATOM     28  C   UNL d   1     -41.138-118.766 -52.746  0.00  0.00     0.000 A 
ATOM     29  C   UNL d   1     -41.374-118.838 -53.542  0.00  0.00     0.002 A 
ATOM     30  C   UNL d   1     -41.813-119.486 -53.784  0.00  0.00     0.019 A 
ENDBRANCH  23  24
ENDBRANCH   7  23
TORSDOF 4
ENDMDL
MODEL 2
REMARK VINA RESULT:      10.6      1.207      3.690
REMARK  4 active torsions:
REMARK  status: ('A' for Active; 'I' for Inactive)
REMARK    1  A    between atoms: S_5  and  C_2 
REMARK    2  A    between atoms: C_14  and  S_5 
REMARK    3  A    between atoms: N_11  and  C_8 
REMARK    4  A    between atoms: C_15  and  N_11 
ROOT
ATOM      1  C   UNL d   1     -41.898-122.608 -52.405  0.00  0.00     0.197 A 
ATOM      2  C   UNL d   1     -42.059-122.924 -53.148  0.00  0.00     0.227 A 
ATOM      3  N   UNL d   1     -42.136-123.156 -51.833  0.00  0.00    -0.192 N 
ATOM      4  N   UNL d   1     -41.562-121.887 -52.171  0.00  0.00    -0.206 NA
ATOM      5  N   UNL d   1     -42.402-123.676 -53.039  0.00  0.00    -0.115 NA
ATOM      6  N   UNL d   1     -42.447-123.815 -52.222  0.00  0.00    -0.058 NA
ATOM      7  C   UNL d   1     -41.463-121.711 -51.365  0.00  0.00     0.166 A 
ATOM      8  C   UNL d   1     -41.704-122.265 -50.800  0.00  0.00     0.054 A 
ATOM      9  C   UNL d   1     -42.039-122.985 -51.025  0.00  0.00     0.089 A 
ATOM     10  C   UNL d   1     -41.609-122.097 -49.992  0.00  0.00     0.005 A 
ATOM     11  C   UNL d   1     -42.279-123.535 -50.459  0.00  0.00     0.019 A 
ATOM     12  C   UNL d   1     -41.847-122.645 -49.426  0.00  0.00     0.000 A 
ATOM     13  C   UNL d   1     -42.183-123.366 -49.660  0.00  0.00     0.002 A 
ENDROOT
BRANCH   2  14
ATOM     14  S   UNL d   1     -41.913-122.568 -53.877  0.00  0.00     0.231 S 
ATOM     15  O   UNL d   1     -41.124-122.435 -53.687  0.00  0.00    -0.215 OA
ATOM     16  O   UNL d   1     -42.707-122.704 -54.065  0.00  0.00    -0.215 OA
BRANCH  14  17
ATOM     17  C   UNL d   1     -41.820-122.223 -54.616  0.00  0.00     0.090 A 
ATOM     18  C   UNL d   1     -42.268-121.564 -54.820  0.00  0.00     0.011 A 
ATOM     19  C   UNL d   1     -42.182-121.213 -55.555  0.00  0.00     0.001 A 
ATOM     20  C   UNL d   1     -41.636-121.527 -56.097  0.00  0.00     0.000 A 
ATOM     21  C   UNL d   1     -41.187-122.190 -55.889  0.00  0.00     0.001 A 
ATOM     22  C   UNL d   1     -41.278-122.535 -55.154  0.00  0.00     0.011 A 
ENDBRANCH  14  17
ENDBRANCH   2  14
BRANCH   7  23
ATOM     23  N   UNL d   1     -41.128-120.993 -51.132  0.00  0.00    -0.227 NA
BRANCH  23  24
ATOM     24  C   UNL d   1     -41.128-120.352 -51.647  0.00  0.00     0.083 A 
ATOM     25  C   UNL d   1     -41.131-119.582 -51.350  0.00  0.00     0.019 A 
ATOM     26  C   UNL d   1     -41.131-118.941 -51.866  0.00  0.00     0.002 A 
ATOM     27  C   UNL d   1     -41.134-118.171 -51.569  0.00  0.00     0.000 C 
ATOM     28  C   UNL d   1     -41.126-119.066 -52.687  0.00  0.00     0.000 A 
ATOM     29  C   UNL d   1     -41.123-119.846 -52.979  0.00  0.00     0.002 A 
ATOM     30  C   UNL d   1     -41.124-120.480 -52.461  0.00  0.00     0.019 A 
ENDBRANCH  23  24
ENDBRANCH   7  23
TORSDOF 4
ENDMDL
