MODEL 1
REMARK VINA RESULT:      -5.8      0.000      0.000
REMARK  3 active torsions:
REMARK  status: ('A' for Active; 'I' for Inactive)
REMARK    1  A    between atoms: C_6  and  N_1 
REMARK    2  A    between atoms: C_5  and  C_6 
REMARK       I    between atoms: N_10  and  C_5 
REMARK    3  A    between atoms: C_16  and  N_10 
ROOT
ATOM      1  C   UNL d   1     -41.684-122.435 -52.006  0.00  0.00     0.297 C 
ATOM      2  N   UNL d   1     -41.464-122.143 -51.271  0.00  0.00    -0.207 NA
ATOM      3  O   UNL d   1     -42.318-122.966 -52.059  0.00  0.00    -0.264 OA
ENDROOT
BRANCH   1   4
ATOM      4  C   UNL d   1     -41.280-122.205 -52.684  0.00  0.00     0.148 C 
BRANCH   4   5
ATOM      5  N   UNL d   1     -41.517-122.490 -53.417  0.00  0.00    -0.235 N 
ATOM      6  C   UNL d   1     -41.828-121.980 -53.979  0.00  0.00     0.273 A 
ATOM      7  C   UNL d   1     -42.065-122.268 -54.716  0.00  0.00     0.086 A 
ATOM      8  O   UNL d   1     -41.907-121.172 -53.812  0.00  0.00    -0.266 OA
ATOM      9  C   UNL d   1     -42.381-121.771 -55.295  0.00  0.00     0.012 C 
ATOM     10  S   UNL d   1     -41.984-123.072 -54.875  0.00  0.00    -0.077 SA
ATOM     11  C   UNL d   1     -41.673-123.585 -54.318  0.00  0.00     0.097 A 
ATOM     12  C   UNL d   1     -41.437-123.299 -53.584  0.00  0.00     0.274 A 
ATOM     13  O   UNL d   1     -41.123-123.817 -53.019  0.00  0.00    -0.266 OA
ENDBRANCH   4   5
ENDBRANCH   1   4
BRANCH   2  14
ATOM     14  C   UNL d   1     -41.864-122.371 -50.594  0.00  0.00     0.087 A 
ATOM     15  C   UNL d   1     -41.484-122.876 -50.065  0.00  0.00     0.045 A 
ATOM     16  C   UNL d   1     -41.863-123.118 -49.380  0.00  0.00     0.121 A 
ATOM     17  O   UNL d   1     -41.633-123.609 -48.760  0.00  0.00    -0.299 OA
ATOM     18  C   UNL d   1     -42.631-122.854 -49.222  0.00  0.00     0.119 A 
ATOM     19  C   UNL d   1     -42.258-123.646 -48.221  0.00  0.00     0.304 A 
ATOM     20  O   UNL d   1     -42.861-123.186 -48.508  0.00  0.00    -0.300 OA
ATOM     21  C   UNL d   1     -43.015-122.349 -49.749  0.00  0.00     0.028 A 
ATOM     22  C   UNL d   1     -42.634-122.102 -50.441  0.00  0.00     0.021 A 
ENDBRANCH   2  14
TORSDOF 3
ENDMDL
MODEL 2
REMARK VINA RESULT:      -5.8      1.649      4.694
REMARK  3 active torsions:
REMARK  status: ('A' for Active; 'I' for Inactive)
REMARK    1  A    between atoms: C_6  and  N_1 
REMARK    2  A    between atoms: C_5  and  C_6 
REMARK       I    between atoms: N_10  and  C_5 
REMARK    3  A    between atoms: C_16  and  N_10 
ROOT
ATOM      1  C   UNL d   1     -41.958-122.455 -51.230  0.00  0.00     0.297 C 
ATOM      2  N   UNL d   1     -41.642-122.006 -51.840  0.00  0.00    -0.207 NA
ATOM      3  O   UNL d   1     -42.206-123.231 -51.383  0.00  0.00    -0.264 OA
ENDROOT
BRANCH   1   4
ATOM      4  C   UNL d   1     -42.030-122.140 -50.474  0.00  0.00     0.148 C 
BRANCH   4   5
ATOM      5  N   UNL d   1     -42.398-122.576 -49.883  0.00  0.00    -0.235 N 
ATOM      6  C   UNL d   1     -41.950-122.972 -49.322  0.00  0.00     0.273 A 
ATOM      7  C   UNL d   1     -42.321-123.410 -48.727  0.00  0.00     0.086 A 
ATOM      8  O   UNL d   1     -41.123-122.936 -49.346  0.00  0.00    -0.266 OA
ATOM      9  C   UNL d   1     -41.888-123.816 -48.153  0.00  0.00     0.012 C 
ATOM     10  S   UNL d   1     -43.144-123.441 -48.709  0.00  0.00    -0.077 SA
ATOM     11  C   UNL d   1     -43.596-123.047 -49.267  0.00  0.00     0.097 A 
ATOM     12  C   UNL d   1     -43.227-122.611 -49.858  0.00  0.00     0.274 A 
ATOM     13  O   UNL d   1     -43.683-122.212 -50.424  0.00  0.00    -0.266 OA
ENDBRANCH   4   5
ENDBRANCH   1   4
BRANCH   2  14
ATOM     14  C   UNL d   1     -41.569-122.317 -52.594  0.00  0.00     0.087 A 
ATOM     15  C   UNL d   1     -41.890-121.896 -53.225  0.00  0.00     0.045 A 
ATOM     16  C   UNL d   1     -41.830-122.187 -53.989  0.00  0.00     0.121 A 
ATOM     17  O   UNL d   1     -42.089-121.899 -54.715  0.00  0.00    -0.299 OA
ATOM     18  C   UNL d   1     -41.446-122.906 -54.124  0.00  0.00     0.119 A 
ATOM     19  C   UNL d   1     -41.864-122.441 -55.297  0.00  0.00     0.304 A 
ATOM     20  O   UNL d   1     -41.474-123.050 -54.931  0.00  0.00    -0.300 OA
ATOM     21  C   UNL d   1     -41.123-123.332 -53.495  0.00  0.00     0.028 A 
ATOM     22  C   UNL d   1     -41.182-123.040 -52.722  0.00  0.00     0.021 A 
ENDBRANCH   2  14
TORSDOF 3
ENDMDL
MODEL 3
REMARK VINA RESULT:      -4.8      0.400      1.180
REMARK  3 active torsions:
REMARK  status: ('A' for Active; 'I' for Inactive)
REMARK    1  A    between atoms: C_6  and  N_1 
REMARK    2  A    between atoms: C_5  and  C_6 
REMARK       I    between atoms: N_10  and  C_5 
REMARK    3  A    between atoms: C_16  and  N_10 
ROOT
ATOM      1  C   UNL d   1     -41.571-122.421 -51.954  0.00  0.00     0.297 C 
ATOM      2  N   UNL d   1     -41.215-122.420 -51.214  0.00  0.00    -0.207 NA
ATOM      3  O   UNL d   1     -42.388-122.548 -52.012  0.00  0.00    -0.264 OA
ENDROOT
BRANCH   1   4
ATOM      4  C   UNL d   1     -41.123-122.297 -52.632  0.00  0.00     0.148 C 
BRANCH   4   5
ATOM      5  N   UNL d   1     -41.477-122.348 -53.372  0.00  0.00    -0.235 N 
ATOM      6  C   UNL d   1     -41.480-123.060 -53.780  0.00  0.00     0.273 A 
ATOM      7  C   UNL d   1     -41.836-123.110 -54.524  0.00  0.00     0.086 A 
ATOM      8  O   UNL d   1     -41.125-123.733 -53.450  0.00  0.00    -0.266 OA
ATOM      9  C   UNL d   1     -41.849-123.818 -54.951  0.00  0.00     0.012 C 
ATOM     10  S   UNL d   1     -42.186-122.438 -54.845  0.00  0.00    -0.077 SA
ATOM     11  C   UNL d   1     -42.186-121.726 -54.441  0.00  0.00     0.097 A 
ATOM     12  C   UNL d   1     -41.832-121.674 -53.701  0.00  0.00     0.274 A 
ATOM     13  O   UNL d   1     -41.830-120.954 -53.291  0.00  0.00    -0.266 OA
ENDBRANCH   4   5
ENDBRANCH   1   4
BRANCH   2  14
ATOM     14  C   UNL d   1     -41.660-122.544 -50.537  0.00  0.00     0.087 A 
ATOM     15  C   UNL d   1     -41.322-122.970 -49.918  0.00  0.00     0.045 A 
ATOM     16  C   UNL d   1     -41.746-123.106 -49.231  0.00  0.00     0.121 A 
ATOM     17  O   UNL d   1     -41.563-123.503 -48.533  0.00  0.00    -0.299 OA
ATOM     18  C   UNL d   1     -42.517-122.814 -49.160  0.00  0.00     0.119 A 
ATOM     19  C   UNL d   1     -42.219-123.456 -48.034  0.00  0.00     0.304 A 
ATOM     20  O   UNL d   1     -42.795-123.036 -48.421  0.00  0.00    -0.300 OA
ATOM     21  C   UNL d   1     -42.859-122.387 -49.777  0.00  0.00     0.028 A 
ATOM     22  C   UNL d   1     -42.432-122.248 -50.473  0.00  0.00     0.021 A 
ENDBRANCH   2  14
TORSDOF 3
ENDMDL
MODEL 4
REMARK VINA RESULT:      -3.3      1.685      4.590
REMARK  3 active torsions:
REMARK  status: ('A' for Active; 'I' for Inactive)
REMARK    1  A    between atoms: C_6  and  N_1 
REMARK    2  A    between atoms: C_5  and  C_6 
REMARK       I    between atoms: N_10  and  C_5 
REMARK    3  A    between atoms: C_16  and  N_10 
ROOT
ATOM      1  C   UNL d   1     -41.666-122.197 -52.351  0.00  0.00     0.297 C 
ATOM      2  N   UNL d   1     -41.451-121.668 -52.940  0.00  0.00    -0.207 NA
ATOM      3  O   UNL d   1     -42.222-122.788 -52.520  0.00  0.00    -0.264 OA
ENDROOT
BRANCH   1   4
ATOM      4  C   UNL d   1     -41.334-122.144 -51.601  0.00  0.00     0.148 C 
BRANCH   4   5
ATOM      5  N   UNL d   1     -41.660-122.569 -50.978  0.00  0.00    -0.235 N 
ATOM      6  C   UNL d   1     -42.088-122.183 -50.394  0.00  0.00     0.273 A 
ATOM      7  C   UNL d   1     -42.416-122.612 -49.768  0.00  0.00     0.086 A 
ATOM      8  O   UNL d   1     -42.194-121.362 -50.426  0.00  0.00    -0.266 OA
ATOM      9  C   UNL d   1     -42.849-122.242 -49.170  0.00  0.00     0.012 C 
ATOM     10  S   UNL d   1     -42.306-123.427 -49.742  0.00  0.00    -0.077 SA
ATOM     11  C   UNL d   1     -41.880-123.817 -50.323  0.00  0.00     0.097 A 
ATOM     12  C   UNL d   1     -41.554-123.392 -50.946  0.00  0.00     0.274 A 
ATOM     13  O   UNL d   1     -41.123-123.784 -51.535  0.00  0.00    -0.266 OA
ENDBRANCH   4   5
ENDBRANCH   1   4
BRANCH   2  14
ATOM     14  C   UNL d   1     -41.780-121.719 -53.689  0.00  0.00     0.087 A 
ATOM     15  C   UNL d   1     -41.293-121.934 -54.317  0.00  0.00     0.045 A 
ATOM     16  C   UNL d   1     -41.599-121.991 -55.075  0.00  0.00     0.121 A 
ATOM     17  O   UNL d   1     -41.260-122.189 -55.799  0.00  0.00    -0.299 OA
ATOM     18  C   UNL d   1     -42.400-121.833 -55.207  0.00  0.00     0.119 A 
ATOM     19  C   UNL d   1     -41.851-122.152 -56.375  0.00  0.00     0.304 A 
ATOM     20  O   UNL d   1     -42.541-121.935 -56.008  0.00  0.00    -0.300 OA
ATOM     21  C   UNL d   1     -42.891-121.617 -54.580  0.00  0.00     0.028 A 
ATOM     22  C   UNL d   1     -42.585-121.558 -53.813  0.00  0.00     0.021 A 
ENDBRANCH   2  14
TORSDOF 3
ENDMDL
