MODEL 1
REMARK VINA RESULT:      35.8      0.000      0.000
REMARK  4 active torsions:
REMARK  status: ('A' for Active; 'I' for Inactive)
REMARK    1  A    between atoms: C_4  and  C_1 
REMARK       I    between atoms: N_7  and  C_4 
REMARK    2  A    between atoms: C_8  and  N_7 
REMARK    3  A    between atoms: O_21  and  C_13 
REMARK    4  A    between atoms: O_22  and  C_16 
ROOT
ATOM      1  C   UNL d   1      46.007 -12.836  44.334  0.00  0.00     0.263 C 
ATOM      2  N   UNL d   1      45.847 -12.205  43.752  0.00  0.00    -0.209 NA
ATOM      3  O   UNL d   1      46.646 -12.785  44.931  0.00  0.00    -0.270 OA
ENDROOT
BRANCH   1   4
ATOM      4  C   UNL d   1      45.578 -13.536  44.382  0.00  0.00     0.113 A 
ATOM      5  C   UNL d   1      45.314 -15.045  44.252  0.00  0.00     0.025 A 
ATOM      6  C   UNL d   1      45.156 -14.255  44.424  0.00  0.00     0.074 A 
ATOM      7  C   UNL d   1      44.742 -15.607  44.370  0.00  0.00     0.002 C 
ATOM      8  C   UNL d   1      45.949 -15.456  43.969  0.00  0.00     0.002 C 
ATOM      9  C   UNL d   1      44.574 -14.829  44.544  0.00  0.00     0.012 C 
ATOM     10  C   UNL d   1      45.932 -14.250  44.152  0.00  0.00    -0.023 A 
ATOM     11  C   UNL d   1      44.514 -13.825  44.712  0.00  0.00     0.172 A 
ATOM     12  C   UNL d   1      46.339 -13.557  44.111  0.00  0.00    -0.018 A 
ATOM     13  C   UNL d   1      44.937 -13.129  44.666  0.00  0.00     0.024 A 
ATOM     14  O   UNL d   1      43.741 -14.037  44.952  0.00  0.00    -0.291 OA
ENDBRANCH   1   4
BRANCH   2  15
ATOM     15  C   UNL d   1      45.197 -12.303  43.177  0.00  0.00     0.108 A 
ATOM     16  C   UNL d   1      44.369 -12.218  43.454  0.00  0.00     0.045 A 
ATOM     17  C   UNL d   1      43.716 -12.316  42.876  0.00  0.00     0.096 A 
ATOM     18  C   UNL d   1      43.898 -12.498  42.026  0.00  0.00     0.026 A 
ATOM     19  C   UNL d   1      44.732 -12.578  41.773  0.00  0.00     0.028 A 
ATOM     20  C   UNL d   1      45.385 -12.480  42.351  0.00  0.00     0.112 A 
BRANCH  17  21
ATOM     21  O   UNL d   1      42.889 -12.236  43.135  0.00  0.00    -0.328 OA
ATOM     22  C   UNL d   1      42.252 -12.668  42.720  0.00  0.00     0.181 C 
ENDBRANCH  17  21
BRANCH  20  23
ATOM     23  O   UNL d   1      46.221 -12.560  42.098  0.00  0.00    -0.327 OA
ATOM     24  C   UNL d   1      46.413 -12.483  41.247  0.00  0.00     0.181 C 
ENDBRANCH  20  23
ENDBRANCH   2  15
TORSDOF 4
ENDMDL
MODEL 2
REMARK VINA RESULT:      37.6      0.992      2.878
REMARK  4 active torsions:
REMARK  status: ('A' for Active; 'I' for Inactive)
REMARK    1  A    between atoms: C_4  and  C_1 
REMARK       I    between atoms: N_7  and  C_4 
REMARK    2  A    between atoms: C_8  and  N_7 
REMARK    3  A    between atoms: O_21  and  C_13 
REMARK    4  A    between atoms: O_22  and  C_16 
ROOT
ATOM      1  C   UNL d   1      46.016 -12.944  44.410  0.00  0.00     0.263 C 
ATOM      2  N   UNL d   1      45.965 -13.646  44.928  0.00  0.00    -0.209 NA
ATOM      3  O   UNL d   1      46.646 -12.340  44.485  0.00  0.00    -0.270 OA
ENDROOT
BRANCH   1   4
ATOM      4  C   UNL d   1      45.485 -12.780  43.805  0.00  0.00     0.113 A 
ATOM      5  C   UNL d   1      44.161 -12.324  43.169  0.00  0.00     0.025 A 
ATOM      6  C   UNL d   1      44.933 -12.609  43.202  0.00  0.00     0.074 A 
ATOM      7  C   UNL d   1      43.795 -12.228  42.453  0.00  0.00     0.002 C 
ATOM      8  C   UNL d   1      43.610 -12.090  43.714  0.00  0.00     0.002 C 
ATOM      9  C   UNL d   1      44.559 -12.510  42.473  0.00  0.00     0.012 C 
ATOM     10  C   UNL d   1      44.730 -12.490  43.990  0.00  0.00    -0.023 A 
ATOM     11  C   UNL d   1      45.502 -12.850  42.656  0.00  0.00     0.172 A 
ATOM     12  C   UNL d   1      45.261 -12.655  44.572  0.00  0.00    -0.018 A 
ATOM     13  C   UNL d   1      46.032 -13.013  43.255  0.00  0.00     0.024 A 
ATOM     14  O   UNL d   1      45.513 -12.900  41.821  0.00  0.00    -0.291 OA
ENDBRANCH   1   4
BRANCH   2  15
ATOM     15  C   UNL d   1      45.318 -14.220  44.813  0.00  0.00     0.108 A 
ATOM     16  C   UNL d   1      44.491 -13.959  44.944  0.00  0.00     0.045 A 
ATOM     17  C   UNL d   1      43.840 -14.537  44.829  0.00  0.00     0.096 A 
ATOM     18  C   UNL d   1      44.023 -15.370  44.583  0.00  0.00     0.026 A 
ATOM     19  C   UNL d   1      44.856 -15.608  44.457  0.00  0.00     0.028 A 
ATOM     20  C   UNL d   1      45.507 -15.030  44.573  0.00  0.00     0.112 A 
BRANCH  17  21
ATOM     21  O   UNL d   1      43.013 -14.294  44.955  0.00  0.00    -0.328 OA
ATOM     22  C   UNL d   1      42.377 -14.615  44.449  0.00  0.00     0.181 C 
ENDBRANCH  17  21
BRANCH  20  23
ATOM     23  O   UNL d   1      46.342 -15.267  44.448  0.00  0.00    -0.327 OA
ATOM     24  C   UNL d   1      46.547 -15.727  43.731  0.00  0.00     0.181 C 
ENDBRANCH  20  23
ENDBRANCH   2  15
TORSDOF 4
ENDMDL
