MODEL 1
REMARK VINA RESULT:       8.1      0.000      0.000
REMARK  9 active torsions:
REMARK  status: ('A' for Active; 'I' for Inactive)
REMARK    1  A    between atoms: S_10  and  C_3 
REMARK    2  A    between atoms: C_17  and  N_5 
REMARK    3  A    between atoms: C_12  and  S_10 
REMARK    4  A    between atoms: C_11  and  C_12 
REMARK       I    between atoms: N_13  and  C_11 
REMARK    5  A    between atoms: C_26  and  C_12 
REMARK    6  A    between atoms: C_23  and  N_13 
REMARK    7  A    between atoms: C_15  and  C_23 
REMARK    8  A    between atoms: C_22  and  C_17 
REMARK    9  A    between atoms: C_30  and  C_26 
ROOT
ATOM      1  C   UNL d   1     -41.763-122.544 -49.847  0.00  0.00     0.081 A 
ATOM      2  C   UNL d   1     -41.907-123.187 -50.346  0.00  0.00     0.117 A 
ATOM      3  C   UNL d   1     -41.528-122.392 -51.474  0.00  0.00     0.182 A 
ATOM      4  N   UNL d   1     -41.791-123.113 -51.153  0.00  0.00    -0.215 NA
ATOM      5  N   UNL d   1     -41.384-121.751 -50.971  0.00  0.00    -0.253 N 
ATOM      6  C   UNL d   1     -41.501-121.826 -50.156  0.00  0.00     0.268 A 
ATOM      7  S   UNL d   1     -42.159-123.817 -49.883  0.00  0.00    -0.068 SA
ATOM      8  C   UNL d   1     -41.925-122.777 -49.073  0.00  0.00     0.013 A 
ATOM      9  C   UNL d   1     -42.170-123.566 -49.099  0.00  0.00     0.031 A 
ATOM     10  O   UNL d   1     -41.357-121.184 -49.658  0.00  0.00    -0.267 OA
ATOM     11  C   UNL d   1     -41.939-122.535 -48.289  0.00  0.00     0.001 A 
ATOM     12  C   UNL d   1     -42.335-123.807 -48.328  0.00  0.00     0.006 A 
ATOM     13  C   UNL d   1     -42.192-123.166 -47.822  0.00  0.00     0.001 A 
ENDROOT
BRANCH   3  14
ATOM     14  S   UNL d   1     -41.412-122.321 -52.283  0.00  0.00    -0.045 SA
BRANCH  14  15
ATOM     15  C   UNL d   1     -41.995-122.566 -52.808  0.00  0.00     0.093 C 
BRANCH  15  16
ATOM     16  C   UNL d   1     -41.789-122.823 -53.572  0.00  0.00     0.285 C 
ATOM     17  N   UNL d   1     -41.565-122.278 -54.145  0.00  0.00    -0.204 NA
ATOM     18  O   UNL d   1     -41.812-123.627 -53.748  0.00  0.00    -0.265 OA
BRANCH  17  19
ATOM     19  C   UNL d   1     -41.362-122.529 -54.898  0.00  0.00     0.127 C 
BRANCH  19  20
ATOM     20  C   UNL d   1     -41.650-122.134 -55.559  0.00  0.00     0.119 A 
ATOM     21  O   UNL d   1     -42.409-121.848 -55.662  0.00  0.00    -0.304 OA
ATOM     22  C   UNL d   1     -42.455-121.492 -56.401  0.00  0.00     0.123 A 
ATOM     23  C   UNL d   1     -41.715-121.558 -56.764  0.00  0.00     0.029 A 
ATOM     24  C   UNL d   1     -41.210-121.956 -56.247  0.00  0.00     0.028 A 
ENDBRANCH  19  20
ENDBRANCH  17  19
ENDBRANCH  15  16
BRANCH  15  25
ATOM     25  C   UNL d   1     -42.788-122.560 -52.583  0.00  0.00     0.057 C 
BRANCH  25  26
ATOM     26  C   UNL d   1     -43.336-122.167 -53.059  0.00  0.00     0.235 C 
ATOM     27  O   UNL d   1     -43.903-121.676 -52.708  0.00  0.00    -0.283 OA
ENDBRANCH  25  26
ENDBRANCH  15  25
ENDBRANCH  14  15
ENDBRANCH   3  14
BRANCH   5  28
ATOM     28  C   UNL d   1     -41.123-121.036 -51.286  0.00  0.00     0.085 C 
BRANCH  28  29
ATOM     29  C   UNL d   1     -41.649-120.403 -51.372  0.00  0.00     0.019 C 
ATOM     30  C   UNL d   1     -41.366-119.628 -51.357  0.00  0.00     0.002 C 
ENDBRANCH  28  29
ENDBRANCH   5  28
TORSDOF 9
ENDMDL
