MODEL 1
REMARK VINA RESULT:      -7.5      0.000      0.000
REMARK  6 active torsions:
REMARK  status: ('A' for Active; 'I' for Inactive)
REMARK    1  A    between atoms: N_8  and  C_2 
REMARK    2  A    between atoms: N_7  and  C_3 
REMARK    3  A    between atoms: N_10  and  C_6 
REMARK    4  A    between atoms: C_9  and  N_11 
REMARK    5  A    between atoms: N_13  and  C_9 
REMARK    6  A    between atoms: N_11  and  N_10 
ROOT
ATOM      1  N   UNL d   1      53.016  33.379  53.714  0.00  0.00     0.133 NA
ATOM      2  C   UNL d   1      52.447  33.047  53.276  0.00  0.00     0.766 A 
ATOM      3  C   UNL d   1      53.634  32.943  54.017  0.00  0.00     0.766 A 
ATOM      4  N   UNL d   1      53.661  32.134  53.859  0.00  0.00     0.135 NA
ATOM      5  N   UNL d   1      52.475  32.202  53.111  0.00  0.00     0.135 NA
ATOM      6  C   UNL d   1      53.083  31.754  53.405  0.00  0.00     0.798 A 
ENDROOT
BRANCH   2   7
ATOM      7  N   UNL d   1      51.829  33.483  52.973  0.00  0.00    -0.132 N 
ATOM      8  C   UNL d   1      51.113  33.490  53.382  0.00  0.00     0.125 A 
ATOM      9  C   UNL d   1      50.476  33.926  53.090  0.00  0.00     0.142 A 
ATOM     10  O   UNL d   1      50.554  34.355  52.389  0.00  0.00    -0.300 OA
ATOM     11  C   UNL d   1      51.271  34.347  51.980  0.00  0.00     0.142 A 
ATOM     12  C   UNL d   1      51.908  33.911  52.271  0.00  0.00     0.125 A 
ENDBRANCH   2   7
BRANCH   3  13
ATOM     13  N   UNL d   1      54.226  33.273  54.469  0.00  0.00    -0.132 N 
ATOM     14  C   UNL d   1      54.162  33.372  55.275  0.00  0.00     0.125 A 
ATOM     15  C   UNL d   1      54.753  33.702  55.727  0.00  0.00     0.142 A 
ATOM     16  O   UNL d   1      55.447  33.945  55.352  0.00  0.00    -0.300 OA
ATOM     17  C   UNL d   1      55.549  33.859  54.526  0.00  0.00     0.142 A 
ATOM     18  C   UNL d   1      54.919  33.516  54.095  0.00  0.00     0.125 A 
ENDBRANCH   3  13
BRANCH   6  19
ATOM     19  N   UNL d   1      53.109  30.963  53.251  0.00  0.00     0.050 NA
BRANCH  19  20
ATOM     20  N   UNL d   1      53.330  30.433  53.826  0.00  0.00    -0.101 NA
BRANCH  20  21
ATOM     21  C   UNL d   1      53.144  29.632  53.758  0.00  0.00     0.241 C 
ATOM     22  S   UNL d   1      53.140  29.260  53.039  0.00  0.00    -0.035 SA
BRANCH  21  23
ATOM     23  N   UNL d   1      52.957  29.198  54.432  0.00  0.00    -0.213 NA
ATOM     24  C   UNL d   1      53.460  28.603  54.703  0.00  0.00     0.122 C 
ENDBRANCH  21  23
ENDBRANCH  20  21
ENDBRANCH  19  20
ENDBRANCH   6  19
TORSDOF 6
ENDMDL
MODEL 2
REMARK VINA RESULT:      -7.5      1.752      4.196
REMARK  6 active torsions:
REMARK  status: ('A' for Active; 'I' for Inactive)
REMARK    1  A    between atoms: N_8  and  C_2 
REMARK    2  A    between atoms: N_7  and  C_3 
REMARK    3  A    between atoms: N_10  and  C_6 
REMARK    4  A    between atoms: C_9  and  N_11 
REMARK    5  A    between atoms: N_13  and  C_9 
REMARK    6  A    between atoms: N_11  and  N_10 
ROOT
ATOM      1  N   UNL d   1      53.724  31.948  53.983  0.00  0.00     0.133 NA
ATOM      2  C   UNL d   1      53.766  32.738  54.006  0.00  0.00     0.766 A 
ATOM      3  C   UNL d   1      53.149  31.561  53.555  0.00  0.00     0.766 A 
ATOM      4  N   UNL d   1      52.599  32.011  53.135  0.00  0.00     0.135 NA
ATOM      5  N   UNL d   1      53.191  33.207  53.568  0.00  0.00     0.135 NA
ATOM      6  C   UNL d   1      52.614  32.838  53.137  0.00  0.00     0.798 A 
ENDROOT
BRANCH   2   7
ATOM      7  N   UNL d   1      54.340  33.125  54.434  0.00  0.00    -0.132 N 
ATOM      8  C   UNL d   1      54.216  33.249  55.240  0.00  0.00     0.125 A 
ATOM      9  C   UNL d   1      54.787  33.640  55.690  0.00  0.00     0.142 A 
ATOM     10  O   UNL d   1      55.482  33.906  55.335  0.00  0.00    -0.300 OA
ATOM     11  C   UNL d   1      55.607  33.781  54.529  0.00  0.00     0.142 A 
ATOM     12  C   UNL d   1      55.036  33.391  54.078  0.00  0.00     0.125 A 
ENDBRANCH   2   7
BRANCH   3  13
ATOM     13  N   UNL d   1      53.095  30.749  53.523  0.00  0.00    -0.132 N 
ATOM     14  C   UNL d   1      53.247  30.272  54.165  0.00  0.00     0.125 A 
ATOM     15  C   UNL d   1      53.192  29.460  54.133  0.00  0.00     0.142 A 
ATOM     16  O   UNL d   1      52.975  29.106  53.420  0.00  0.00    -0.300 OA
ATOM     17  C   UNL d   1      52.811  29.564  52.739  0.00  0.00     0.142 A 
ATOM     18  C   UNL d   1      52.877  30.395  52.810  0.00  0.00     0.125 A 
ENDBRANCH   3  13
BRANCH   6  19
ATOM     19  N   UNL d   1      52.075  33.278  52.727  0.00  0.00     0.050 NA
BRANCH  19  20
ATOM     20  N   UNL d   1      51.474  33.665  53.111  0.00  0.00    -0.101 NA
BRANCH  20  21
ATOM     21  C   UNL d   1      50.896  34.076  52.688  0.00  0.00     0.241 C 
ATOM     22  S   UNL d   1      50.989  34.241  51.901  0.00  0.00    -0.035 SA
BRANCH  21  23
ATOM     23  N   UNL d   1      50.210  34.323  53.070  0.00  0.00    -0.213 NA
ATOM     24  C   UNL d   1      49.621  34.728  52.657  0.00  0.00     0.122 C 
ENDBRANCH  21  23
ENDBRANCH  20  21
ENDBRANCH  19  20
ENDBRANCH   6  19
TORSDOF 6
ENDMDL
MODEL 3
REMARK VINA RESULT:      -7.5      1.753      3.646
REMARK  6 active torsions:
REMARK  status: ('A' for Active; 'I' for Inactive)
REMARK    1  A    between atoms: N_8  and  C_2 
REMARK    2  A    between atoms: N_7  and  C_3 
REMARK    3  A    between atoms: N_10  and  C_6 
REMARK    4  A    between atoms: C_9  and  N_11 
REMARK    5  A    between atoms: N_13  and  C_9 
REMARK    6  A    between atoms: N_11  and  N_10 
ROOT
ATOM      1  N   UNL d   1      53.706  31.927  53.964  0.00  0.00     0.133 NA
ATOM      2  C   UNL d   1      53.143  31.563  53.545  0.00  0.00     0.766 A 
ATOM      3  C   UNL d   1      53.760  32.739  53.999  0.00  0.00     0.766 A 
ATOM      4  N   UNL d   1      53.209  33.189  53.582  0.00  0.00     0.135 NA
ATOM      5  N   UNL d   1      52.566  32.034  53.110  0.00  0.00     0.135 NA
ATOM      6  C   UNL d   1      52.606  32.842  53.134  0.00  0.00     0.798 A 
ENDROOT
BRANCH   2   7
ATOM      7  N   UNL d   1      53.089  30.751  53.511  0.00  0.00    -0.132 N 
ATOM      8  C   UNL d   1      52.872  30.400  52.797  0.00  0.00     0.125 A 
ATOM      9  C   UNL d   1      52.812  29.578  52.744  0.00  0.00     0.142 A 
ATOM     10  O   UNL d   1      52.969  29.108  53.404  0.00  0.00    -0.300 OA
ATOM     11  C   UNL d   1      53.185  29.460  54.118  0.00  0.00     0.142 A 
ATOM     12  C   UNL d   1      53.245  30.282  54.172  0.00  0.00     0.125 A 
ENDBRANCH   2   7
BRANCH   3  13
ATOM     13  N   UNL d   1      54.336  33.125  54.426  0.00  0.00    -0.132 N 
ATOM     14  C   UNL d   1      55.029  33.392  54.092  0.00  0.00     0.125 A 
ATOM     15  C   UNL d   1      55.605  33.778  54.520  0.00  0.00     0.142 A 
ATOM     16  O   UNL d   1      55.480  33.904  55.326  0.00  0.00    -0.300 OA
ATOM     17  C   UNL d   1      54.780  33.643  55.704  0.00  0.00     0.142 A 
ATOM     18  C   UNL d   1      54.212  33.251  55.232  0.00  0.00     0.125 A 
ENDBRANCH   3  13
BRANCH   6  19
ATOM     19  N   UNL d   1      52.066  33.283  52.726  0.00  0.00     0.050 NA
BRANCH  19  20
ATOM     20  N   UNL d   1      51.448  33.644  53.110  0.00  0.00    -0.101 NA
BRANCH  20  21
ATOM     21  C   UNL d   1      50.892  34.087  52.692  0.00  0.00     0.241 C 
ATOM     22  S   UNL d   1      50.973  34.224  51.898  0.00  0.00    -0.035 SA
BRANCH  21  23
ATOM     23  N   UNL d   1      50.239  34.398  53.086  0.00  0.00    -0.213 NA
ATOM     24  C   UNL d   1      49.609  34.725  52.664  0.00  0.00     0.122 C 
ENDBRANCH  21  23
ENDBRANCH  20  21
ENDBRANCH  19  20
ENDBRANCH   6  19
TORSDOF 6
ENDMDL
MODEL 4
REMARK VINA RESULT:      -7.5      0.031      3.274
REMARK  6 active torsions:
REMARK  status: ('A' for Active; 'I' for Inactive)
REMARK    1  A    between atoms: N_8  and  C_2 
REMARK    2  A    between atoms: N_7  and  C_3 
REMARK    3  A    between atoms: N_10  and  C_6 
REMARK    4  A    between atoms: C_9  and  N_11 
REMARK    5  A    between atoms: N_13  and  C_9 
REMARK    6  A    between atoms: N_11  and  N_10 
ROOT
ATOM      1  N   UNL d   1      53.031  33.367  53.724  0.00  0.00     0.133 NA
ATOM      2  C   UNL d   1      53.627  32.933  54.009  0.00  0.00     0.766 A 
ATOM      3  C   UNL d   1      52.436  33.039  53.276  0.00  0.00     0.766 A 
ATOM      4  N   UNL d   1      52.462  32.229  53.118  0.00  0.00     0.135 NA
ATOM      5  N   UNL d   1      53.654  32.087  53.844  0.00  0.00     0.135 NA
ATOM      6  C   UNL d   1      53.070  31.745  53.400  0.00  0.00     0.798 A 
ENDROOT
BRANCH   2   7
ATOM      7  N   UNL d   1      54.222  33.261  54.458  0.00  0.00    -0.132 N 
ATOM      8  C   UNL d   1      54.928  33.471  54.086  0.00  0.00     0.125 A 
ATOM      9  C   UNL d   1      55.542  33.805  54.525  0.00  0.00     0.142 A 
ATOM     10  O   UNL d   1      55.451  33.930  55.335  0.00  0.00    -0.300 OA
ATOM     11  C   UNL d   1      54.745  33.720  55.708  0.00  0.00     0.142 A 
ATOM     12  C   UNL d   1      54.130  33.386  55.269  0.00  0.00     0.125 A 
ENDBRANCH   2   7
BRANCH   3  13
ATOM     13  N   UNL d   1      51.817  33.475  52.976  0.00  0.00    -0.132 N 
ATOM     14  C   UNL d   1      51.877  33.913  52.292  0.00  0.00     0.125 A 
ATOM     15  C   UNL d   1      51.258  34.350  51.993  0.00  0.00     0.142 A 
ATOM     16  O   UNL d   1      50.540  34.348  52.400  0.00  0.00    -0.300 OA
ATOM     17  C   UNL d   1      50.442  33.910  53.106  0.00  0.00     0.142 A 
ATOM     18  C   UNL d   1      51.100  33.474  53.383  0.00  0.00     0.125 A 
ENDBRANCH   3  13
BRANCH   6  19
ATOM     19  N   UNL d   1      53.095  30.953  53.245  0.00  0.00     0.050 NA
BRANCH  19  20
ATOM     20  N   UNL d   1      53.298  30.421  53.825  0.00  0.00    -0.101 NA
BRANCH  20  21
ATOM     21  C   UNL d   1      53.127  29.618  53.742  0.00  0.00     0.241 C 
ATOM     22  S   UNL d   1      53.128  29.260  53.015  0.00  0.00    -0.035 SA
BRANCH  21  23
ATOM     23  N   UNL d   1      52.950  29.168  54.408  0.00  0.00    -0.213 NA
ATOM     24  C   UNL d   1      53.496  28.626  54.707  0.00  0.00     0.122 C 
ENDBRANCH  21  23
ENDBRANCH  20  21
ENDBRANCH  19  20
ENDBRANCH   6  19
TORSDOF 6
ENDMDL
MODEL 5
REMARK VINA RESULT:      -5.5      1.760      3.421
REMARK  6 active torsions:
REMARK  status: ('A' for Active; 'I' for Inactive)
REMARK    1  A    between atoms: N_8  and  C_2 
REMARK    2  A    between atoms: N_7  and  C_3 
REMARK    3  A    between atoms: N_10  and  C_6 
REMARK    4  A    between atoms: C_9  and  N_11 
REMARK    5  A    between atoms: N_13  and  C_9 
REMARK    6  A    between atoms: N_11  and  N_10 
ROOT
ATOM      1  N   UNL d   1      52.315  32.083  53.082  0.00  0.00     0.133 NA
ATOM      2  C   UNL d   1      52.352  32.873  53.094  0.00  0.00     0.766 A 
ATOM      3  C   UNL d   1      52.954  31.620  53.286  0.00  0.00     0.766 A 
ATOM      4  N   UNL d   1      53.655  31.992  53.511  0.00  0.00     0.135 NA
ATOM      5  N   UNL d   1      53.085  33.261  53.328  0.00  0.00     0.135 NA
ATOM      6  C   UNL d   1      53.729  32.816  53.534  0.00  0.00     0.798 A 
ENDROOT
BRANCH   2   7
ATOM      7  N   UNL d   1      51.714  33.336  52.889  0.00  0.00    -0.132 N 
ATOM      8  C   UNL d   1      51.731  33.738  52.169  0.00  0.00     0.125 A 
ATOM      9  C   UNL d   1      51.094  34.211  51.946  0.00  0.00     0.142 A 
ATOM     10  O   UNL d   1      50.438  34.284  52.442  0.00  0.00    -0.300 OA
ATOM     11  C   UNL d   1      50.421  33.882  53.162  0.00  0.00     0.142 A 
ATOM     12  C   UNL d   1      51.058  33.408  53.386  0.00  0.00     0.125 A 
ENDBRANCH   2   7
BRANCH   3  13
ATOM     13  N   UNL d   1      52.929  30.806  53.278  0.00  0.00    -0.132 N 
ATOM     14  C   UNL d   1      52.784  30.376  52.602  0.00  0.00     0.125 A 
ATOM     15  C   UNL d   1      52.759  29.562  52.594  0.00  0.00     0.142 A 
ATOM     16  O   UNL d   1      52.885  29.156  53.301  0.00  0.00    -0.300 OA
ATOM     17  C   UNL d   1      53.037  29.564  54.016  0.00  0.00     0.142 A 
ATOM     18  C   UNL d   1      53.055  30.400  53.985  0.00  0.00     0.125 A 
ENDBRANCH   3  13
BRANCH   6  19
ATOM     19  N   UNL d   1      54.415  33.179  53.753  0.00  0.00     0.050 NA
BRANCH  19  20
ATOM     20  N   UNL d   1      54.631  33.226  54.535  0.00  0.00    -0.101 NA
BRANCH  20  21
ATOM     21  C   UNL d   1      55.198  33.770  54.786  0.00  0.00     0.241 C 
ATOM     22  S   UNL d   1      55.895  33.867  54.386  0.00  0.00    -0.035 SA
BRANCH  21  23
ATOM     23  N   UNL d   1      55.056  34.226  55.457  0.00  0.00    -0.213 NA
ATOM     24  C   UNL d   1      55.149  33.906  56.212  0.00  0.00     0.122 C 
ENDBRANCH  21  23
ENDBRANCH  20  21
ENDBRANCH  19  20
ENDBRANCH   6  19
TORSDOF 6
ENDMDL
MODEL 6
REMARK VINA RESULT:      -5.4      1.755      4.094
REMARK  6 active torsions:
REMARK  status: ('A' for Active; 'I' for Inactive)
REMARK    1  A    between atoms: N_8  and  C_2 
REMARK    2  A    between atoms: N_7  and  C_3 
REMARK    3  A    between atoms: N_10  and  C_6 
REMARK    4  A    between atoms: C_9  and  N_11 
REMARK    5  A    between atoms: N_13  and  C_9 
REMARK    6  A    between atoms: N_11  and  N_10 
ROOT
ATOM      1  N   UNL d   1      52.322  32.047  53.053  0.00  0.00     0.133 NA
ATOM      2  C   UNL d   1      52.942  31.604  53.266  0.00  0.00     0.766 A 
ATOM      3  C   UNL d   1      52.354  32.861  53.058  0.00  0.00     0.766 A 
ATOM      4  N   UNL d   1      53.054  33.227  53.294  0.00  0.00     0.135 NA
ATOM      5  N   UNL d   1      53.674  31.987  53.511  0.00  0.00     0.135 NA
ATOM      6  C   UNL d   1      53.722  32.795  53.523  0.00  0.00     0.798 A 
ENDROOT
BRANCH   2   7
ATOM      7  N   UNL d   1      52.910  30.790  53.260  0.00  0.00    -0.132 N 
ATOM      8  C   UNL d   1      52.800  30.404  52.539  0.00  0.00     0.125 A 
ATOM      9  C   UNL d   1      52.765  29.580  52.514  0.00  0.00     0.142 A 
ATOM     10  O   UNL d   1      52.841  29.141  53.209  0.00  0.00    -0.300 OA
ATOM     11  C   UNL d   1      52.951  29.527  53.930  0.00  0.00     0.142 A 
ATOM     12  C   UNL d   1      52.986  30.352  53.956  0.00  0.00     0.125 A 
ENDBRANCH   2   7
BRANCH   3  13
ATOM     13  N   UNL d   1      51.723  33.328  52.842  0.00  0.00    -0.132 N 
ATOM     14  C   UNL d   1      51.704  33.747  52.144  0.00  0.00     0.125 A 
ATOM     15  C   UNL d   1      51.073  34.215  51.927  0.00  0.00     0.142 A 
ATOM     16  O   UNL d   1      50.426  34.265  52.436  0.00  0.00    -0.300 OA
ATOM     17  C   UNL d   1      50.409  33.849  53.161  0.00  0.00     0.142 A 
ATOM     18  C   UNL d   1      51.075  33.379  53.350  0.00  0.00     0.125 A 
ENDBRANCH   3  13
BRANCH   6  19
ATOM     19  N   UNL d   1      54.407  33.153  53.753  0.00  0.00     0.050 NA
BRANCH  19  20
ATOM     20  N   UNL d   1      54.545  33.327  54.534  0.00  0.00    -0.101 NA
BRANCH  20  21
ATOM     21  C   UNL d   1      55.188  33.793  54.757  0.00  0.00     0.241 C 
ATOM     22  S   UNL d   1      55.861  33.826  54.307  0.00  0.00    -0.035 SA
BRANCH  21  23
ATOM     23  N   UNL d   1      55.151  34.235  55.451  0.00  0.00    -0.213 NA
ATOM     24  C   UNL d   1      55.152  33.864  56.188  0.00  0.00     0.122 C 
ENDBRANCH  21  23
ENDBRANCH  20  21
ENDBRANCH  19  20
ENDBRANCH   6  19
TORSDOF 6
ENDMDL
MODEL 7
REMARK VINA RESULT:      -4.9      2.245      4.202
REMARK  6 active torsions:
REMARK  status: ('A' for Active; 'I' for Inactive)
REMARK    1  A    between atoms: N_8  and  C_2 
REMARK    2  A    between atoms: N_7  and  C_3 
REMARK    3  A    between atoms: N_10  and  C_6 
REMARK    4  A    between atoms: C_9  and  N_11 
REMARK    5  A    between atoms: N_13  and  C_9 
REMARK    6  A    between atoms: N_11  and  N_10 
ROOT
ATOM      1  N   UNL d   1      52.750  33.130  53.652  0.00  0.00     0.133 NA
ATOM      2  C   UNL d   1      52.520  33.886  53.684  0.00  0.00     0.766 A 
ATOM      3  C   UNL d   1      52.418  32.602  53.129  0.00  0.00     0.766 A 
ATOM      4  N   UNL d   1      51.825  32.869  52.621  0.00  0.00     0.135 NA
ATOM      5  N   UNL d   1      51.901  34.165  53.154  0.00  0.00     0.135 NA
ATOM      6  C   UNL d   1      51.560  33.653  52.628  0.00  0.00     0.798 A 
ENDROOT
BRANCH   2   7
ATOM      7  N   UNL d   1      52.852  34.414  54.207  0.00  0.00    -0.132 N 
ATOM      8  C   UNL d   1      52.859  35.215  54.010  0.00  0.00     0.125 A 
ATOM      9  C   UNL d   1      53.191  35.765  54.528  0.00  0.00     0.142 A 
ATOM     10  O   UNL d   1      53.517  35.515  55.243  0.00  0.00    -0.300 OA
ATOM     11  C   UNL d   1      53.511  34.714  55.441  0.00  0.00     0.142 A 
ATOM     12  C   UNL d   1      53.178  34.163  54.923  0.00  0.00     0.125 A 
ENDBRANCH   2   7
BRANCH   3  13
ATOM     13  N   UNL d   1      52.646  31.821  53.085  0.00  0.00    -0.132 N 
ATOM     14  C   UNL d   1      52.124  31.203  53.181  0.00  0.00     0.125 A 
ATOM     15  C   UNL d   1      52.353  30.423  53.138  0.00  0.00     0.142 A 
ATOM     16  O   UNL d   1      53.146  30.251  52.991  0.00  0.00    -0.300 OA
ATOM     17  C   UNL d   1      53.711  30.859  52.888  0.00  0.00     0.142 A 
ATOM     18  C   UNL d   1      53.440  31.649  52.939  0.00  0.00     0.125 A 
ENDBRANCH   3  13
BRANCH   6  19
ATOM     19  N   UNL d   1      50.980  33.914  52.131  0.00  0.00     0.050 NA
BRANCH  19  20
ATOM     20  N   UNL d   1      50.257  34.147  52.419  0.00  0.00    -0.101 NA
BRANCH  20  21
ATOM     21  C   UNL d   1      49.671  34.432  51.914  0.00  0.00     0.241 C 
ATOM     22  S   UNL d   1      49.684  34.269  51.120  0.00  0.00    -0.035 SA
BRANCH  21  23
ATOM     23  N   UNL d   1      49.059  34.891  52.217  0.00  0.00    -0.213 NA
ATOM     24  C   UNL d   1      48.422  35.111  51.740  0.00  0.00     0.122 C 
ENDBRANCH  21  23
ENDBRANCH  20  21
ENDBRANCH  19  20
ENDBRANCH   6  19
TORSDOF 6
ENDMDL
MODEL 8
REMARK VINA RESULT:      -4.9      2.246      3.936
REMARK  6 active torsions:
REMARK  status: ('A' for Active; 'I' for Inactive)
REMARK    1  A    between atoms: N_8  and  C_2 
REMARK    2  A    between atoms: N_7  and  C_3 
REMARK    3  A    between atoms: N_10  and  C_6 
REMARK    4  A    between atoms: C_9  and  N_11 
REMARK    5  A    between atoms: N_13  and  C_9 
REMARK    6  A    between atoms: N_11  and  N_10 
ROOT
ATOM      1  N   UNL d   1      52.733  33.134  53.685  0.00  0.00     0.133 NA
ATOM      2  C   UNL d   1      52.363  32.647  53.184  0.00  0.00     0.766 A 
ATOM      3  C   UNL d   1      52.518  33.916  53.761  0.00  0.00     0.766 A 
ATOM      4  N   UNL d   1      51.896  34.202  53.301  0.00  0.00     0.135 NA
ATOM      5  N   UNL d   1      51.713  32.945  52.703  0.00  0.00     0.135 NA
ATOM      6  C   UNL d   1      51.487  33.720  52.767  0.00  0.00     0.798 A 
ENDROOT
BRANCH   2   7
ATOM      7  N   UNL d   1      52.578  31.865  53.107  0.00  0.00    -0.132 N 
ATOM      8  C   UNL d   1      52.016  31.283  53.272  0.00  0.00     0.125 A 
ATOM      9  C   UNL d   1      52.216  30.486  53.199  0.00  0.00     0.142 A 
ATOM     10  O   UNL d   1      52.977  30.269  52.963  0.00  0.00    -0.300 OA
ATOM     11  C   UNL d   1      53.538  30.851  52.798  0.00  0.00     0.142 A 
ATOM     12  C   UNL d   1      53.339  31.649  52.870  0.00  0.00     0.125 A 
ENDBRANCH   2   7
BRANCH   3  13
ATOM     13  N   UNL d   1      52.892  34.427  54.273  0.00  0.00    -0.132 N 
ATOM     14  C   UNL d   1      53.271  34.176  54.949  0.00  0.00     0.125 A 
ATOM     15  C   UNL d   1      53.645  34.688  55.461  0.00  0.00     0.142 A 
ATOM     16  O   UNL d   1      53.638  35.495  55.288  0.00  0.00    -0.300 OA
ATOM     17  C   UNL d   1      53.257  35.790  54.603  0.00  0.00     0.142 A 
ATOM     18  C   UNL d   1      52.885  35.234  54.101  0.00  0.00     0.125 A 
ENDBRANCH   3  13
BRANCH   6  19
ATOM     19  N   UNL d   1      50.879  33.999  52.316  0.00  0.00     0.050 NA
BRANCH  19  20
ATOM     20  N   UNL d   1      50.141  34.112  52.636  0.00  0.00    -0.101 NA
BRANCH  20  21
ATOM     21  C   UNL d   1      49.570  34.555  52.237  0.00  0.00     0.241 C 
ATOM     22  S   UNL d   1      49.387  34.407  51.462  0.00  0.00    -0.035 SA
BRANCH  21  23
ATOM     23  N   UNL d   1      49.174  35.160  52.632  0.00  0.00    -0.213 NA
ATOM     24  C   UNL d   1      48.415  35.386  52.402  0.00  0.00     0.122 C 
ENDBRANCH  21  23
ENDBRANCH  20  21
ENDBRANCH  19  20
ENDBRANCH   6  19
TORSDOF 6
ENDMDL
MODEL 9
REMARK VINA RESULT:      -4.6      9.605     10.759
REMARK  6 active torsions:
REMARK  status: ('A' for Active; 'I' for Inactive)
REMARK    1  A    between atoms: N_8  and  C_2 
REMARK    2  A    between atoms: N_7  and  C_3 
REMARK    3  A    between atoms: N_10  and  C_6 
REMARK    4  A    between atoms: C_9  and  N_11 
REMARK    5  A    between atoms: N_13  and  C_9 
REMARK    6  A    between atoms: N_11  and  N_10 
ROOT
ATOM      1  N   UNL d   1      44.815  29.247  58.058  0.00  0.00     0.133 NA
ATOM      2  C   UNL d   1      44.641  30.017  58.094  0.00  0.00     0.766 A 
ATOM      3  C   UNL d   1      44.834  28.779  58.725  0.00  0.00     0.766 A 
ATOM      4  N   UNL d   1      44.666  29.125  59.455  0.00  0.00     0.135 NA
ATOM      5  N   UNL d   1      44.466  30.379  58.857  0.00  0.00     0.135 NA
ATOM      6  C   UNL d   1      44.480  29.928  59.529  0.00  0.00     0.798 A 
ENDROOT
BRANCH   2   7
ATOM      7  N   UNL d   1      44.622  30.485  57.427  0.00  0.00    -0.132 N 
ATOM      8  C   UNL d   1      44.699  31.302  57.515  0.00  0.00     0.125 A 
ATOM      9  C   UNL d   1      44.682  31.791  56.851  0.00  0.00     0.142 A 
ATOM     10  O   UNL d   1      44.589  31.465  56.099  0.00  0.00    -0.300 OA
ATOM     11  C   UNL d   1      44.512  30.648  56.011  0.00  0.00     0.142 A 
ATOM     12  C   UNL d   1      44.529  30.158  56.675  0.00  0.00     0.125 A 
ENDBRANCH   2   7
BRANCH   3  13
ATOM     13  N   UNL d   1      45.011  27.985  58.701  0.00  0.00    -0.132 N 
ATOM     14  C   UNL d   1      44.705  27.448  59.232  0.00  0.00     0.125 A 
ATOM     15  C   UNL d   1      44.883  26.654  59.208  0.00  0.00     0.142 A 
ATOM     16  O   UNL d   1      45.394  26.381  58.622  0.00  0.00    -0.300 OA
ATOM     17  C   UNL d   1      45.728  26.902  58.058  0.00  0.00     0.142 A 
ATOM     18  C   UNL d   1      45.523  27.711  58.114  0.00  0.00     0.125 A 
ENDBRANCH   3  13
BRANCH   6  19
ATOM     19  N   UNL d   1      44.316  30.266  60.243  0.00  0.00     0.050 NA
BRANCH  19  20
ATOM     20  N   UNL d   1      44.884  30.315  60.822  0.00  0.00    -0.101 NA
BRANCH  20  21
ATOM     21  C   UNL d   1      44.685  30.529  61.593  0.00  0.00     0.241 C 
ATOM     22  S   UNL d   1      44.426  31.276  61.770  0.00  0.00    -0.035 SA
BRANCH  21  23
ATOM     23  N   UNL d   1      44.749  29.975  62.199  0.00  0.00    -0.213 NA
ATOM     24  C   UNL d   1      44.513  30.163  62.967  0.00  0.00     0.122 C 
ENDBRANCH  21  23
ENDBRANCH  20  21
ENDBRANCH  19  20
ENDBRANCH   6  19
TORSDOF 6
ENDMDL
