MODEL 1
REMARK VINA RESULT:      37.9      0.000      0.000
REMARK  3 active torsions:
REMARK  status: ('A' for Active; 'I' for Inactive)
REMARK    1  A    between atoms: N_5  and  C_1 
REMARK    2  A    between atoms: C_9  and  C_2 
REMARK       I    between atoms: C_8  and  N_5 
REMARK    3  A    between atoms: C_10  and  C_8 
ROOT
ATOM      1  C   UNL d   1      46.098 -18.233  42.741  0.00  0.00     0.155 A 
ATOM      2  C   UNL d   1      46.271 -19.028  42.875  0.00  0.00     0.080 A 
ATOM      3  N   UNL d   1      46.105 -17.935  41.966  0.00  0.00    -0.289 N 
ATOM      4  C   UNL d   1      46.452 -19.525  42.235  0.00  0.00     0.200 A 
ATOM      5  C   UNL d   1      46.458 -19.225  41.468  0.00  0.00     0.055 A 
ATOM      6  C   UNL d   1      46.285 -18.430  41.333  0.00  0.00     0.069 A 
ATOM      7  O   UNL d   1      46.626 -20.325  42.370  0.00  0.00    -0.286 OA
ATOM      8  C   UNL d   1      45.932 -17.140  41.832  0.00  0.00     0.101 C 
ATOM      9  C   UNL d   1      46.638 -19.721  40.836  0.00  0.00     0.005 A 
ATOM     10  C   UNL d   1      46.291 -18.129  40.575  0.00  0.00     0.018 A 
ATOM     11  C   UNL d   1      46.645 -19.421  40.068  0.00  0.00     0.000 A 
ATOM     12  C   UNL d   1      46.471 -18.626  39.934  0.00  0.00     0.002 A 
ENDROOT
BRANCH   1  13
ATOM     13  N   UNL d   1      45.915 -17.729  43.384  0.00  0.00    -0.190 NA
ATOM     14  C   UNL d   1      46.024 -16.907  43.332  0.00  0.00     0.286 C 
ATOM     15  O   UNL d   1      46.316 -16.593  42.633  0.00  0.00    -0.265 OA
BRANCH  14  16
ATOM     16  C   UNL d   1      45.843 -16.412  43.964  0.00  0.00     0.087 A 
ATOM     17  S   UNL d   1      46.438 -15.967  44.323  0.00  0.00    -0.082 SA
ATOM     18  C   UNL d   1      46.092 -15.531  44.933  0.00  0.00     0.036 A 
ATOM     19  C   UNL d   1      45.284 -15.704  44.954  0.00  0.00     0.008 A 
ATOM     20  C   UNL d   1      45.127 -16.252  44.351  0.00  0.00     0.012 A 
ENDBRANCH  14  16
ENDBRANCH   1  13
BRANCH   2  21
ATOM     21  C   UNL d   1      46.265 -19.329  43.642  0.00  0.00     0.035 A 
ATOM     22  S   UNL d   1      45.876 -20.015  43.888  0.00  0.00    -0.086 SA
ATOM     23  C   UNL d   1      46.018 -20.106  44.697  0.00  0.00     0.035 A 
ATOM     24  C   UNL d   1      46.495 -19.476  44.954  0.00  0.00     0.007 A 
ATOM     25  C   UNL d   1      46.641 -19.002  44.294  0.00  0.00     0.007 A 
ENDBRANCH   2  21
TORSDOF 3
ENDMDL
