MODEL 1
REMARK VINA RESULT:     147.7      0.000      0.000
REMARK  5 active torsions:
REMARK  status: ('A' for Active; 'I' for Inactive)
REMARK       I    between atoms: C_2  and  N_6 
REMARK    1  A    between atoms: C_7  and  C_2 
REMARK    2  A    between atoms: N_3  and  C_4 
REMARK    3  A    between atoms: C_12  and  N_5 
REMARK    4  A    between atoms: N_6  and  C_18 
REMARK    5  A    between atoms: O_33  and  C_30 
ROOT
ATOM      1  C   UNL d   1      43.632 -16.364  38.105  0.00  0.00     0.086 A 
ATOM      2  C   UNL d   1      43.556 -16.384  38.923  0.00  0.00     0.074 A 
ATOM      3  C   UNL d   1      44.151 -16.874  37.725  0.00  0.00     0.102 C 
ATOM      4  N   UNL d   1      44.671 -17.386  37.347  0.00  0.00    -0.191 NA
ATOM      5  C   UNL d   1      43.037 -15.873  39.304  0.00  0.00     0.020 A 
ATOM      6  C   UNL d   1      43.184 -15.825  37.659  0.00  0.00     0.031 A 
ATOM      7  C   UNL d   1      42.663 -15.311  38.033  0.00  0.00     0.085 A 
ATOM      8  C   UNL d   1      42.585 -15.331  38.866  0.00  0.00     0.021 A 
ENDROOT
BRANCH   2   9
ATOM      9  N   UNL d   1      43.998 -16.917  39.373  0.00  0.00    -0.301 N 
ATOM     10  C   UNL d   1      43.985 -17.715  39.176  0.00  0.00     0.100 A 
ATOM     11  C   UNL d   1      44.427 -18.256  39.624  0.00  0.00     0.100 A 
ATOM     12  N   UNL d   1      44.876 -17.986  40.263  0.00  0.00    -0.301 N 
ATOM     13  C   UNL d   1      44.885 -17.182  40.456  0.00  0.00     0.100 A 
ATOM     14  C   UNL d   1      44.447 -16.647  40.013  0.00  0.00     0.100 A 
BRANCH  12  15
ATOM     15  C   UNL d   1      45.319 -18.527  40.712  0.00  0.00     0.064 A 
ATOM     16  C   UNL d   1      45.346 -18.457  41.530  0.00  0.00     0.020 A 
ATOM     17  C   UNL d   1      45.786 -18.995  41.977  0.00  0.00     0.026 A 
ATOM     18  C   UNL d   1      46.204 -19.611  41.603  0.00  0.00     0.094 A 
ATOM     19  C   UNL d   1      46.178 -19.686  40.774  0.00  0.00     0.026 A 
ATOM     20  C   UNL d   1      45.736 -19.144  40.329  0.00  0.00     0.020 A 
BRANCH  18  21
ATOM     21  O   UNL d   1      46.646 -20.154  42.043  0.00  0.00    -0.328 OA
ATOM     22  C   UNL d   1      46.445 -20.291  42.828  0.00  0.00     0.181 C 
ENDBRANCH  18  21
ENDBRANCH  12  15
ENDBRANCH   2   9
BRANCH   7  23
ATOM     23  N   UNL d   1      42.217 -14.775  37.594  0.00  0.00    -0.208 NA
ATOM     24  C   UNL d   1      41.787 -14.190  37.977  0.00  0.00     0.279 C 
ATOM     25  O   UNL d   1      41.799 -14.135  38.796  0.00  0.00    -0.265 OA
BRANCH  24  26
ATOM     26  C   UNL d   1      41.339 -13.653  37.534  0.00  0.00     0.060 A 
ATOM     27  C   UNL d   1      40.595 -13.440  37.784  0.00  0.00     0.031 A 
ATOM     28  C   UNL d   1      40.151 -12.904  37.340  0.00  0.00     0.119 A 
ATOM     29  O   UNL d   1      39.405 -12.591  37.446  0.00  0.00    -0.300 OA
ATOM     30  C   UNL d   1      40.464 -12.592  36.653  0.00  0.00     0.119 A 
ATOM     31  C   UNL d   1      39.251 -12.080  36.821  0.00  0.00     0.304 A 
ATOM     32  O   UNL d   1      39.906 -12.081  36.330  0.00  0.00    -0.300 OA
ATOM     33  C   UNL d   1      41.216 -12.805  36.398  0.00  0.00     0.026 A 
ATOM     34  C   UNL d   1      41.655 -13.337  36.839  0.00  0.00     0.007 A 
ENDBRANCH  24  26
ENDBRANCH   7  23
TORSDOF 5
ENDMDL
