MODEL 1
REMARK VINA RESULT:      -8.2      0.000      0.000
REMARK  6 active torsions:
REMARK  status: ('A' for Active; 'I' for Inactive)
REMARK    1  A    between atoms: N_7  and  C_1 
REMARK    2  A    between atoms: C_6  and  C_4 
REMARK    3  A    between atoms: C_22  and  C_12 
REMARK    4  A    between atoms: C_23  and  N_13 
REMARK    5  A    between atoms: O_17  and  C_22 
REMARK    6  A    between atoms: C_18  and  O_17 
ROOT
ATOM      1  C   UNL d   1      47.988  35.555  52.639  0.00  0.00     0.198 A 
ATOM      2  C   UNL d   1      48.376  35.760  53.321  0.00  0.00     0.191 A 
ATOM      3  O   UNL d   1      48.500  35.093  52.209  0.00  0.00    -0.268 OA
ATOM      4  C   UNL d   1      49.188  35.023  52.631  0.00  0.00     0.208 A 
ATOM      5  N   UNL d   1      49.103  35.419  53.282  0.00  0.00    -0.206 NA
ATOM      6  C   UNL d   1      48.100  36.236  53.965  0.00  0.00     0.124 C 
ATOM      7  N   UNL d   1      47.816  36.709  54.599  0.00  0.00    -0.190 NA
ENDROOT
BRANCH   1   8
ATOM      8  N   UNL d   1      47.244  35.697  52.304  0.00  0.00    -0.280 N 
ATOM      9  C   UNL d   1      47.159  36.282  51.758  0.00  0.00     0.101 A 
ATOM     10  C   UNL d   1      46.415  36.424  51.422  0.00  0.00     0.100 A 
ATOM     11  N   UNL d   1      45.792  35.990  51.634  0.00  0.00    -0.300 N 
ATOM     12  C   UNL d   1      45.857  35.382  52.195  0.00  0.00     0.100 A 
ATOM     13  C   UNL d   1      46.591  35.228  52.539  0.00  0.00     0.101 A 
BRANCH  11  14
ATOM     14  C   UNL d   1      45.048  36.133  51.298  0.00  0.00     0.080 C 
ATOM     15  C   UNL d   1      44.707  35.613  50.716  0.00  0.00     0.021 C 
ENDBRANCH  11  14
ENDBRANCH   1   8
BRANCH   4  16
ATOM     16  C   UNL d   1      49.931  34.822  52.858  0.00  0.00     0.141 A 
ATOM     17  O   UNL d   1      50.620  34.774  53.358  0.00  0.00    -0.301 OA
ATOM     18  C   UNL d   1      51.174  34.337  52.931  0.00  0.00     0.125 A 
ATOM     19  C   UNL d   1      50.841  34.136  52.223  0.00  0.00     0.029 A 
ATOM     20  C   UNL d   1      50.088  34.433  52.187  0.00  0.00     0.030 A 
BRANCH  18  21
ATOM     21  C   UNL d   1      51.915  34.160  53.207  0.00  0.00     0.147 C 
BRANCH  21  22
ATOM     22  O   UNL d   1      52.173  33.400  53.263  0.00  0.00    -0.303 OA
BRANCH  22  23
ATOM     23  C   UNL d   1      52.872  33.218  53.610  0.00  0.00     0.100 A 
ATOM     24  C   UNL d   1      53.223  32.477  53.492  0.00  0.00     0.023 A 
ATOM     25  C   UNL d   1      52.836  31.926  53.007  0.00  0.00     0.002 C 
ATOM     26  C   UNL d   1      53.914  32.298  53.834  0.00  0.00     0.002 A 
ATOM     27  C   UNL d   1      54.301  32.848  54.319  0.00  0.00     0.000 A 
ATOM     28  C   UNL d   1      53.951  33.598  54.441  0.00  0.00     0.002 A 
ATOM     29  C   UNL d   1      53.260  33.777  54.098  0.00  0.00     0.025 A 
ENDBRANCH  22  23
ENDBRANCH  21  22
ENDBRANCH  18  21
ENDBRANCH   4  16
TORSDOF 6
ENDMDL
MODEL 2
REMARK VINA RESULT:      -6.7      1.826      6.425
REMARK  6 active torsions:
REMARK  status: ('A' for Active; 'I' for Inactive)
REMARK    1  A    between atoms: N_7  and  C_1 
REMARK    2  A    between atoms: C_6  and  C_4 
REMARK    3  A    between atoms: C_22  and  C_12 
REMARK    4  A    between atoms: C_23  and  N_13 
REMARK    5  A    between atoms: O_17  and  C_22 
REMARK    6  A    between atoms: C_18  and  O_17 
ROOT
ATOM      1  C   UNL d   1      51.890  33.537  53.351  0.00  0.00     0.198 A 
ATOM      2  C   UNL d   1      51.889  34.339  53.465  0.00  0.00     0.191 A 
ATOM      3  O   UNL d   1      51.147  33.336  53.090  0.00  0.00    -0.268 OA
ATOM      4  C   UNL d   1      50.705  34.014  53.050  0.00  0.00     0.208 A 
ATOM      5  N   UNL d   1      51.151  34.597  53.272  0.00  0.00    -0.206 NA
ATOM      6  C   UNL d   1      52.519  34.838  53.732  0.00  0.00     0.124 C 
ATOM      7  N   UNL d   1      53.151  35.324  53.999  0.00  0.00    -0.190 NA
ENDROOT
BRANCH   1   8
ATOM      8  N   UNL d   1      52.436  32.918  53.432  0.00  0.00    -0.280 N 
ATOM      9  C   UNL d   1      52.592  32.441  52.803  0.00  0.00     0.101 A 
ATOM     10  C   UNL d   1      53.138  31.823  52.884  0.00  0.00     0.100 A 
ATOM     11  N   UNL d   1      53.503  31.700  53.572  0.00  0.00    -0.300 N 
ATOM     12  C   UNL d   1      53.356  32.180  54.233  0.00  0.00     0.100 A 
ATOM     13  C   UNL d   1      52.816  32.800  54.169  0.00  0.00     0.101 A 
BRANCH  11  14
ATOM     14  C   UNL d   1      54.048  31.081  53.652  0.00  0.00     0.080 C 
ATOM     15  C   UNL d   1      53.806  30.264  53.671  0.00  0.00     0.021 C 
ENDBRANCH  11  14
ENDBRANCH   1   8
BRANCH   4  16
ATOM     16  C   UNL d   1      50.100  34.529  52.936  0.00  0.00     0.141 A 
ATOM     17  O   UNL d   1      49.617  35.221  53.056  0.00  0.00    -0.301 OA
ATOM     18  C   UNL d   1      49.007  35.164  52.505  0.00  0.00     0.125 A 
ATOM     19  C   UNL d   1      49.115  34.484  52.081  0.00  0.00     0.029 A 
ATOM     20  C   UNL d   1      49.780  34.105  52.349  0.00  0.00     0.030 A 
BRANCH  18  21
ATOM     21  C   UNL d   1      48.418  35.714  52.429  0.00  0.00     0.147 C 
BRANCH  21  22
ATOM     22  O   UNL d   1      47.860  35.817  53.001  0.00  0.00    -0.303 OA
BRANCH  22  23
ATOM     23  C   UNL d   1      47.134  36.110  52.832  0.00  0.00     0.100 A 
ATOM     24  C   UNL d   1      46.653  36.420  53.432  0.00  0.00     0.023 A 
ATOM     25  C   UNL d   1      46.939  36.420  54.210  0.00  0.00     0.002 C 
ATOM     26  C   UNL d   1      45.935  36.709  53.265  0.00  0.00     0.002 A 
ATOM     27  C   UNL d   1      45.649  36.709  52.487  0.00  0.00     0.000 A 
ATOM     28  C   UNL d   1      46.132  36.397  51.878  0.00  0.00     0.002 A 
ATOM     29  C   UNL d   1      46.850  36.108  52.045  0.00  0.00     0.025 A 
ENDBRANCH  22  23
ENDBRANCH  21  22
ENDBRANCH  18  21
ENDBRANCH   4  16
TORSDOF 6
ENDMDL
MODEL 3
REMARK VINA RESULT:      -6.5      1.994      6.695
REMARK  6 active torsions:
REMARK  status: ('A' for Active; 'I' for Inactive)
REMARK    1  A    between atoms: N_7  and  C_1 
REMARK    2  A    between atoms: C_6  and  C_4 
REMARK    3  A    between atoms: C_22  and  C_12 
REMARK    4  A    between atoms: C_23  and  N_13 
REMARK    5  A    between atoms: O_17  and  C_22 
REMARK    6  A    between atoms: C_18  and  O_17 
ROOT
ATOM      1  C   UNL d   1      52.349  33.524  53.463  0.00  0.00     0.198 A 
ATOM      2  C   UNL d   1      51.905  33.019  53.011  0.00  0.00     0.191 A 
ATOM      3  O   UNL d   1      51.940  34.226  53.501  0.00  0.00    -0.268 OA
ATOM      4  C   UNL d   1      51.256  34.139  53.075  0.00  0.00     0.208 A 
ATOM      5  N   UNL d   1      51.247  33.426  52.792  0.00  0.00    -0.206 NA
ATOM      6  C   UNL d   1      52.071  32.217  52.795  0.00  0.00     0.124 C 
ATOM      7  N   UNL d   1      52.245  31.422  52.585  0.00  0.00    -0.190 NA
ENDROOT
BRANCH   1   8
ATOM      8  N   UNL d   1      53.072  33.494  53.866  0.00  0.00    -0.280 N 
ATOM      9  C   UNL d   1      53.078  33.440  54.669  0.00  0.00     0.101 A 
ATOM     10  C   UNL d   1      53.802  33.410  55.072  0.00  0.00     0.100 A 
ATOM     11  N   UNL d   1      54.482  33.434  54.675  0.00  0.00    -0.300 N 
ATOM     12  C   UNL d   1      54.499  33.489  53.847  0.00  0.00     0.100 A 
ATOM     13  C   UNL d   1      53.787  33.520  53.430  0.00  0.00     0.101 A 
BRANCH  11  14
ATOM     14  C   UNL d   1      55.205  33.404  55.079  0.00  0.00     0.080 C 
ATOM     15  C   UNL d   1      55.600  34.107  55.353  0.00  0.00     0.021 C 
ENDBRANCH  11  14
ENDBRANCH   1   8
BRANCH   4  16
ATOM     16  C   UNL d   1      50.548  34.280  52.723  0.00  0.00     0.141 A 
ATOM     17  O   UNL d   1      49.911  34.191  52.165  0.00  0.00    -0.301 OA
ATOM     18  C   UNL d   1      49.344  34.748  52.384  0.00  0.00     0.125 A 
ATOM     19  C   UNL d   1      49.621  35.144  53.032  0.00  0.00     0.029 A 
ATOM     20  C   UNL d   1      50.351  34.855  53.231  0.00  0.00     0.030 A 
BRANCH  18  21
ATOM     21  C   UNL d   1      48.642  34.852  51.995  0.00  0.00     0.147 C 
BRANCH  21  22
ATOM     22  O   UNL d   1      48.167  35.485  52.142  0.00  0.00    -0.303 OA
BRANCH  22  23
ATOM     23  C   UNL d   1      47.452  35.564  51.790  0.00  0.00     0.100 A 
ATOM     24  C   UNL d   1      46.882  36.080  52.101  0.00  0.00     0.023 A 
ATOM     25  C   UNL d   1      47.067  36.511  52.785  0.00  0.00     0.002 C 
ATOM     26  C   UNL d   1      46.175  36.158  51.753  0.00  0.00     0.002 A 
ATOM     27  C   UNL d   1      45.990  35.727  51.070  0.00  0.00     0.000 A 
ATOM     28  C   UNL d   1      46.562  35.206  50.752  0.00  0.00     0.002 A 
ATOM     29  C   UNL d   1      47.269  35.127  51.101  0.00  0.00     0.025 A 
ENDBRANCH  22  23
ENDBRANCH  21  22
ENDBRANCH  18  21
ENDBRANCH   4  16
TORSDOF 6
ENDMDL
MODEL 4
REMARK VINA RESULT:      -5.5      1.454      6.542
REMARK  6 active torsions:
REMARK  status: ('A' for Active; 'I' for Inactive)
REMARK    1  A    between atoms: N_7  and  C_1 
REMARK    2  A    between atoms: C_6  and  C_4 
REMARK    3  A    between atoms: C_22  and  C_12 
REMARK    4  A    between atoms: C_23  and  N_13 
REMARK    5  A    between atoms: O_17  and  C_22 
REMARK    6  A    between atoms: C_18  and  O_17 
ROOT
ATOM      1  C   UNL d   1      50.998  34.488  53.124  0.00  0.00     0.198 A 
ATOM      2  C   UNL d   1      50.749  34.492  52.353  0.00  0.00     0.191 A 
ATOM      3  O   UNL d   1      50.378  34.764  53.572  0.00  0.00    -0.268 OA
ATOM      4  C   UNL d   1      49.764  34.932  53.071  0.00  0.00     0.208 A 
ATOM      5  N   UNL d   1      49.993  34.768  52.358  0.00  0.00    -0.206 NA
ATOM      6  C   UNL d   1      51.173  34.260  51.658  0.00  0.00     0.124 C 
ATOM      7  N   UNL d   1      51.603  34.026  50.975  0.00  0.00    -0.190 NA
ENDROOT
BRANCH   1   8
ATOM      8  N   UNL d   1      51.689  34.283  53.533  0.00  0.00    -0.280 N 
ATOM      9  C   UNL d   1      51.830  33.511  53.714  0.00  0.00     0.101 A 
ATOM     10  C   UNL d   1      52.521  33.306  54.123  0.00  0.00     0.100 A 
ATOM     11  N   UNL d   1      53.039  33.861  54.335  0.00  0.00    -0.300 N 
ATOM     12  C   UNL d   1      52.913  34.662  54.159  0.00  0.00     0.100 A 
ATOM     13  C   UNL d   1      52.230  34.884  53.752  0.00  0.00     0.101 A 
BRANCH  11  14
ATOM     14  C   UNL d   1      53.730  33.654  54.744  0.00  0.00     0.080 C 
ATOM     15  C   UNL d   1      54.362  33.220  54.374  0.00  0.00     0.021 C 
ENDBRANCH  11  14
ENDBRANCH   1   8
BRANCH   4  16
ATOM     16  C   UNL d   1      49.050  35.159  52.781  0.00  0.00     0.141 A 
ATOM     17  O   UNL d   1      48.400  35.213  52.234  0.00  0.00    -0.301 OA
ATOM     18  C   UNL d   1      47.846  35.705  52.595  0.00  0.00     0.125 A 
ATOM     19  C   UNL d   1      48.142  35.931  53.312  0.00  0.00     0.029 A 
ATOM     20  C   UNL d   1      48.872  35.596  53.417  0.00  0.00     0.030 A 
BRANCH  18  21
ATOM     21  C   UNL d   1      47.136  35.905  52.259  0.00  0.00     0.147 C 
BRANCH  21  22
ATOM     22  O   UNL d   1      46.451  35.537  52.469  0.00  0.00    -0.303 OA
BRANCH  22  23
ATOM     23  C   UNL d   1      45.787  35.603  52.026  0.00  0.00     0.100 A 
ATOM     24  C   UNL d   1      45.044  35.429  52.350  0.00  0.00     0.023 A 
ATOM     25  C   UNL d   1      45.003  35.186  53.141  0.00  0.00     0.002 C 
ATOM     26  C   UNL d   1      44.387  35.494  51.912  0.00  0.00     0.002 A 
ATOM     27  C   UNL d   1      44.429  35.737  51.121  0.00  0.00     0.000 A 
ATOM     28  C   UNL d   1      45.177  35.913  50.790  0.00  0.00     0.002 A 
ATOM     29  C   UNL d   1      45.834  35.848  51.227  0.00  0.00     0.025 A 
ENDBRANCH  22  23
ENDBRANCH  21  22
ENDBRANCH  18  21
ENDBRANCH   4  16
TORSDOF 6
ENDMDL
