MODEL 1
REMARK VINA RESULT:      11.2      0.000      0.000
REMARK  4 active torsions:
REMARK  status: ('A' for Active; 'I' for Inactive)
REMARK    1  A    between atoms: C_11  and  N_2 
REMARK    2  A    between atoms: C_10  and  C_6 
REMARK    3  A    between atoms: C_16  and  C_9 
REMARK    4  A    between atoms: C_21  and  C_16 
ROOT
ATOM      1  C   UNL d   1     -42.687-122.383 -51.404  0.00  0.00     0.143 A 
ATOM      2  N   UNL d   1     -42.666-122.670 -50.083  0.00  0.00    -0.242 N 
ATOM      3  C   UNL d   1     -42.368-122.161 -50.671  0.00  0.00     0.172 A 
ATOM      4  C   UNL d   1     -43.174-123.209 -50.460  0.00  0.00     0.355 A 
ATOM      5  N   UNL d   1     -43.185-123.030 -51.270  0.00  0.00    -0.187 NA
ATOM      6  C   UNL d   1     -42.489-121.976 -52.082  0.00  0.00     0.163 A 
ATOM      7  N   UNL d   1     -41.841-121.520 -50.625  0.00  0.00    -0.208 NA
ATOM      8  N   UNL d   1     -41.968-121.339 -52.051  0.00  0.00    -0.220 NA
ATOM      9  C   UNL d   1     -41.644-121.111 -51.322  0.00  0.00     0.164 A 
ATOM     10  O   UNL d   1     -43.593-123.817 -50.083  0.00  0.00    -0.244 OA
ENDROOT
BRANCH   2  11
ATOM     11  C   UNL d   1     -42.491-122.643 -49.284  0.00  0.00     0.070 A 
ATOM     12  C   UNL d   1     -43.042-122.335 -48.744  0.00  0.00     0.018 A 
ATOM     13  C   UNL d   1     -42.876-122.304 -47.943  0.00  0.00     0.002 A 
ATOM     14  C   UNL d   1     -42.147-122.586 -47.686  0.00  0.00     0.000 A 
ATOM     15  C   UNL d   1     -41.596-122.892 -48.211  0.00  0.00     0.002 A 
ATOM     16  C   UNL d   1     -41.968-122.558 -46.873  0.00  0.00     0.000 C 
ATOM     17  C   UNL d   1     -41.771-122.919 -49.011  0.00  0.00     0.018 A 
ENDBRANCH   2  11
BRANCH   6  18
ATOM     18  C   UNL d   1     -42.808-122.198 -52.813  0.00  0.00     0.316 C 
ATOM     19  O   UNL d   1     -43.444-121.782 -53.139  0.00  0.00    -0.262 OA
ATOM     20  N   UNL d   1     -42.481-122.849 -53.220  0.00  0.00    -0.101 N 
ENDBRANCH   6  18
BRANCH   9  21
ATOM     21  C   UNL d   1     -41.123-120.473 -51.288  0.00  0.00     0.039 C 
BRANCH  21  22
ATOM     22  C   UNL d   1     -41.244-119.806 -51.765  0.00  0.00     0.003 C 
ATOM     23  C   UNL d   1     -41.124-119.866 -52.579  0.00  0.00     0.000 C 
ATOM     24  C   UNL d   1     -41.480-119.100 -51.422  0.00  0.00     0.000 C 
ENDBRANCH  21  22
ENDBRANCH   9  21
TORSDOF 4
ENDMDL
MODEL 2
REMARK VINA RESULT:      12.3      1.796      4.362
REMARK  4 active torsions:
REMARK  status: ('A' for Active; 'I' for Inactive)
REMARK    1  A    between atoms: C_11  and  N_2 
REMARK    2  A    between atoms: C_10  and  C_6 
REMARK    3  A    between atoms: C_16  and  C_9 
REMARK    4  A    between atoms: C_21  and  C_16 
ROOT
ATOM      1  C   UNL d   1     -43.360-121.946 -51.974  0.00  0.00     0.143 A 
ATOM      2  N   UNL d   1     -42.969-121.976 -53.267  0.00  0.00    -0.242 N 
ATOM      3  C   UNL d   1     -42.720-122.091 -52.480  0.00  0.00     0.172 A 
ATOM      4  C   UNL d   1     -43.771-121.758 -53.241  0.00  0.00     0.355 A 
ATOM      5  N   UNL d   1     -44.007-121.741 -52.446  0.00  0.00    -0.187 NA
ATOM      6  C   UNL d   1     -43.273-122.018 -51.166  0.00  0.00     0.163 A 
ATOM      7  N   UNL d   1     -41.983-122.311 -52.166  0.00  0.00    -0.208 NA
ATOM      8  N   UNL d   1     -42.549-122.236 -50.841  0.00  0.00    -0.220 NA
ATOM      9  C   UNL d   1     -41.904-122.382 -51.341  0.00  0.00     0.164 A 
ATOM     10  O   UNL d   1     -44.244-121.589 -53.901  0.00  0.00    -0.244 OA
ENDROOT
BRANCH   2  11
ATOM     11  C   UNL d   1     -42.509-122.062 -53.939  0.00  0.00     0.070 A 
ATOM     12  C   UNL d   1     -42.350-121.407 -54.425  0.00  0.00     0.018 A 
ATOM     13  C   UNL d   1     -41.891-121.484 -55.099  0.00  0.00     0.002 A 
ATOM     14  C   UNL d   1     -41.591-122.227 -55.282  0.00  0.00     0.000 A 
ATOM     15  C   UNL d   1     -41.742-122.880 -54.809  0.00  0.00     0.002 A 
ATOM     16  C   UNL d   1     -41.123-122.315 -55.965  0.00  0.00     0.000 C 
ATOM     17  C   UNL d   1     -42.202-122.794 -54.136  0.00  0.00     0.018 A 
ENDBRANCH   2  11
BRANCH   6  18
ATOM     18  C   UNL d   1     -43.913-121.873 -50.661  0.00  0.00     0.316 C 
ATOM     19  O   UNL d   1     -44.319-121.153 -50.690  0.00  0.00    -0.262 OA
ATOM     20  N   UNL d   1     -44.146-122.463 -50.119  0.00  0.00    -0.101 N 
ENDBRANCH   6  18
BRANCH   9  21
ATOM     21  C   UNL d   1     -41.176-122.601 -51.018  0.00  0.00     0.039 C 
BRANCH  21  22
ATOM     22  C   UNL d   1     -41.143-122.993 -50.288  0.00  0.00     0.003 C 
ATOM     23  C   UNL d   1     -41.123-123.817 -50.275  0.00  0.00     0.000 C 
ATOM     24  C   UNL d   1     -41.129-122.557 -49.595  0.00  0.00     0.000 C 
ENDBRANCH  21  22
ENDBRANCH   9  21
TORSDOF 4
ENDMDL
MODEL 3
REMARK VINA RESULT:      13.9      1.665      2.674
REMARK  4 active torsions:
REMARK  status: ('A' for Active; 'I' for Inactive)
REMARK    1  A    between atoms: C_11  and  N_2 
REMARK    2  A    between atoms: C_10  and  C_6 
REMARK    3  A    between atoms: C_16  and  C_9 
REMARK    4  A    between atoms: C_21  and  C_16 
ROOT
ATOM      1  C   UNL d   1     -42.028-122.065 -54.049  0.00  0.00     0.143 A 
ATOM      2  N   UNL d   1     -41.997-122.435 -52.750  0.00  0.00    -0.242 N 
ATOM      3  C   UNL d   1     -41.843-121.813 -53.281  0.00  0.00     0.172 A 
ATOM      4  C   UNL d   1     -42.279-123.076 -53.197  0.00  0.00     0.355 A 
ATOM      5  N   UNL d   1     -42.297-122.846 -53.994  0.00  0.00    -0.187 NA
ATOM      6  C   UNL d   1     -41.930-121.564 -54.684  0.00  0.00     0.163 A 
ATOM      7  N   UNL d   1     -41.555-121.043 -53.156  0.00  0.00    -0.208 NA
ATOM      8  N   UNL d   1     -41.646-120.799 -54.575  0.00  0.00    -0.220 NA
ATOM      9  C   UNL d   1     -41.459-120.539 -53.810  0.00  0.00     0.164 A 
ATOM     10  O   UNL d   1     -42.502-123.813 -52.891  0.00  0.00    -0.244 OA
ENDROOT
BRANCH   2  11
ATOM     11  C   UNL d   1     -41.890-122.417 -51.938  0.00  0.00     0.070 A 
ATOM     12  C   UNL d   1     -41.281-122.858 -51.585  0.00  0.00     0.018 A 
ATOM     13  C   UNL d   1     -41.167-122.846 -50.774  0.00  0.00     0.002 A 
ATOM     14  C   UNL d   1     -41.672-122.385 -50.317  0.00  0.00     0.000 A 
ATOM     15  C   UNL d   1     -42.276-121.945 -50.656  0.00  0.00     0.002 A 
ATOM     16  C   UNL d   1     -41.563-122.366 -49.492  0.00  0.00     0.000 C 
ATOM     17  C   UNL d   1     -42.383-121.963 -51.468  0.00  0.00     0.018 A 
ENDBRANCH   2  11
BRANCH   6  18
ATOM     18  C   UNL d   1     -42.115-121.817 -55.451  0.00  0.00     0.316 C 
ATOM     19  O   UNL d   1     -42.902-121.935 -55.678  0.00  0.00    -0.262 OA
ATOM     20  N   UNL d   1     -41.497-121.954 -55.995  0.00  0.00    -0.101 N 
ENDBRANCH   6  18
BRANCH   9  21
ATOM     21  C   UNL d   1     -41.174-119.773 -53.697  0.00  0.00     0.039 C 
BRANCH  21  22
ATOM     22  C   UNL d   1     -41.543-119.265 -53.155  0.00  0.00     0.003 C 
ATOM     23  C   UNL d   1     -41.130-119.023 -52.483  0.00  0.00     0.000 C 
ATOM     24  C   UNL d   1     -42.309-119.011 -53.296  0.00  0.00     0.000 C 
ENDBRANCH  21  22
ENDBRANCH   9  21
TORSDOF 4
ENDMDL
