MODEL 1
REMARK VINA RESULT:     127.7      0.000      0.000
REMARK  7 active torsions:
REMARK  status: ('A' for Active; 'I' for Inactive)
REMARK    1  A    between atoms: N_3  and  C_1 
REMARK       I    between atoms: C_8  and  N_3 
REMARK    2  A    between atoms: C_12  and  N_3 
REMARK    3  A    between atoms: S_5  and  C_11 
REMARK    4  A    between atoms: C_16  and  S_5 
REMARK    5  A    between atoms: C_9  and  C_8 
REMARK    6  A    between atoms: C_11  and  C_9 
REMARK    7  A    between atoms: C_21  and  C_12 
ROOT
ATOM      1  N   UNL d   1      60.784  46.142  50.658  0.00  0.00    -0.253 N 
ATOM      2  C   UNL d   1      60.964  45.579  51.253  0.00  0.00     0.267 C 
ATOM      3  O   UNL d   1      60.858  45.779  52.043  0.00  0.00    -0.267 OA
ENDROOT
BRANCH   1   4
ATOM      4  C   UNL d   1      60.504  46.886  50.872  0.00  0.00     0.182 A 
ATOM      5  N   UNL d   1      59.708  47.125  50.893  0.00  0.00    -0.222 NA
ATOM      6  C   UNL d   1      59.673  47.919  51.139  0.00  0.00     0.089 A 
ATOM      7  C   UNL d   1      59.048  48.421  51.253  0.00  0.00     0.020 A 
ATOM      8  C   UNL d   1      60.451  48.167  51.270  0.00  0.00     0.050 A 
ATOM      9  C   UNL d   1      59.185  49.178  51.500  0.00  0.00     0.002 A 
ATOM     10  C   UNL d   1      58.545  49.695  51.618  0.00  0.00     0.000 C 
ATOM     11  C   UNL d   1      59.954  49.437  51.634  0.00  0.00     0.001 A 
ATOM     12  C   UNL d   1      60.588  48.933  51.520  0.00  0.00     0.007 A 
ATOM     13  C   UNL d   1      61.360  49.179  51.650  0.00  0.00     0.001 C 
ATOM     14  S   UNL d   1      60.959  47.538  51.108  0.00  0.00    -0.048 SA
ENDBRANCH   1   4
BRANCH   1  15
ATOM     15  C   UNL d   1      60.888  45.949  49.864  0.00  0.00     0.086 C 
BRANCH  15  16
ATOM     16  C   UNL d   1      61.644  45.949  49.535  0.00  0.00     0.037 A 
ATOM     17  C   UNL d   1      61.934  45.273  49.166  0.00  0.00     0.100 A 
ATOM     18  N   UNL d   1      62.691  45.273  48.836  0.00  0.00    -0.242 NA
ATOM     19  C   UNL d   1      63.157  45.950  48.877  0.00  0.00     0.099 A 
ATOM     20  C   UNL d   1      62.869  46.630  49.247  0.00  0.00     0.021 A 
ATOM     21  C   UNL d   1      62.113  46.630  49.576  0.00  0.00     0.005 A 
ENDBRANCH  15  16
ENDBRANCH   1  15
BRANCH   2  22
ATOM     22  C   UNL d   1      61.243  44.839  51.038  0.00  0.00     0.073 C 
BRANCH  22  23
ATOM     23  C   UNL d   1      61.188  44.210  51.575  0.00  0.00     0.104 C 
BRANCH  23  24
ATOM     24  S   UNL d   1      61.667  43.542  51.479  0.00  0.00     0.211 S 
ATOM     25  O   UNL d   1      62.104  43.753  52.163  0.00  0.00    -0.217 OA
ATOM     26  O   UNL d   1      61.233  43.331  50.800  0.00  0.00    -0.217 OA
BRANCH  24  27
ATOM     27  C   UNL d   1      62.148  42.872  51.385  0.00  0.00     0.088 A 
ATOM     28  C   UNL d   1      62.587  42.778  50.693  0.00  0.00     0.011 A 
ATOM     29  C   UNL d   1      63.066  42.116  50.594  0.00  0.00     0.001 A 
ATOM     30  C   UNL d   1      63.106  41.547  51.190  0.00  0.00     0.000 A 
ATOM     31  C   UNL d   1      62.673  41.637  51.876  0.00  0.00     0.001 A 
ATOM     32  C   UNL d   1      62.190  42.301  51.980  0.00  0.00     0.011 A 
ENDBRANCH  24  27
ENDBRANCH  23  24
ENDBRANCH  22  23
ENDBRANCH   2  22
TORSDOF 7
ENDMDL
