MODEL 1
REMARK VINA RESULT:      67.7      0.000      0.000
REMARK  5 active torsions:
REMARK  status: ('A' for Active; 'I' for Inactive)
REMARK    1  A    between atoms: C_20  and  N_1 
REMARK       I    between atoms: C_6  and  N_7 
REMARK    2  A    between atoms: C_10  and  C_6 
REMARK    3  A    between atoms: N_7  and  C_8 
REMARK    4  A    between atoms: O_22  and  C_13 
REMARK    5  A    between atoms: O_23  and  C_16 
ROOT
ATOM      1  N   UNL d   1     -51.333  24.684  33.382  0.00  0.00    -0.273 N 
ATOM      2  C   UNL d   1     -52.285  25.073  33.369  0.00  0.00     0.265 A 
ATOM      3  C   UNL d   1     -50.842  25.414  33.453  0.00  0.00     0.067 A 
ATOM      4  C   UNL d   1     -51.296  26.051  33.479  0.00  0.00     0.022 A 
ATOM      5  C   UNL d   1     -52.117  25.960  33.438  0.00  0.00     0.058 A 
ATOM      6  C   UNL d   1     -50.170  26.888  33.584  0.00  0.00     0.085 A 
ATOM      7  C   UNL d   1     -50.964  26.785  33.544  0.00  0.00     0.019 A 
ATOM      8  C   UNL d   1     -49.993  25.509  33.496  0.00  0.00     0.019 A 
ATOM      9  O   UNL d   1     -52.953  24.652  33.311  0.00  0.00    -0.267 OA
ATOM     10  C   UNL d   1     -49.685  26.222  33.558  0.00  0.00     0.021 A 
ATOM     11  C   UNL d   1     -52.587  26.617  33.464  0.00  0.00     0.005 A 
ATOM     12  C   UNL d   1     -51.447  27.466  33.571  0.00  0.00     0.002 A 
ATOM     13  C   UNL d   1     -52.255  27.376  33.531  0.00  0.00     0.000 A 
ENDROOT
BRANCH   6  14
ATOM     14  N   UNL d   1     -49.820  27.646  33.652  0.00  0.00    -0.208 NA
ATOM     15  C   UNL d   1     -49.313  27.781  34.276  0.00  0.00     0.279 C 
ATOM     16  O   UNL d   1     -49.147  27.212  34.816  0.00  0.00    -0.265 OA
BRANCH  15  17
ATOM     17  C   UNL d   1     -48.976  28.497  34.348  0.00  0.00     0.060 A 
ATOM     18  C   UNL d   1     -48.436  28.561  34.893  0.00  0.00     0.031 A 
ATOM     19  C   UNL d   1     -48.042  29.352  34.995  0.00  0.00     0.116 A 
ATOM     20  C   UNL d   1     -48.269  29.985  34.504  0.00  0.00     0.116 A 
ATOM     21  C   UNL d   1     -48.845  29.876  33.938  0.00  0.00     0.026 A 
ATOM     22  C   UNL d   1     -49.204  29.122  33.859  0.00  0.00     0.007 A 
BRANCH  19  23
ATOM     23  O   UNL d   1     -47.482  29.473  35.539  0.00  0.00    -0.326 OA
ATOM     24  C   UNL d   1     -47.677  29.443  36.333  0.00  0.00     0.181 C 
ENDBRANCH  19  23
BRANCH  20  25
ATOM     25  O   UNL d   1     -47.910  30.735  34.586  0.00  0.00    -0.326 OA
ATOM     26  C   UNL d   1     -47.288  30.835  35.122  0.00  0.00     0.181 C 
ENDBRANCH  20  25
ENDBRANCH  15  17
ENDBRANCH   6  14
BRANCH   1  27
ATOM     27  C   UNL d   1     -50.711  23.947  33.356  0.00  0.00     0.083 C 
ATOM     28  C   UNL d   1     -50.988  23.190  33.308  0.00  0.00     0.021 C 
ENDBRANCH   1  27
TORSDOF 5
ENDMDL
MODEL 2
REMARK VINA RESULT:      69.7      0.982      1.805
REMARK  5 active torsions:
REMARK  status: ('A' for Active; 'I' for Inactive)
REMARK    1  A    between atoms: C_20  and  N_1 
REMARK       I    between atoms: C_6  and  N_7 
REMARK    2  A    between atoms: C_10  and  C_6 
REMARK    3  A    between atoms: N_7  and  C_8 
REMARK    4  A    between atoms: O_22  and  C_13 
REMARK    5  A    between atoms: O_23  and  C_16 
ROOT
ATOM      1  N   UNL d   1     -52.259  24.684  33.374  0.00  0.00    -0.273 N 
ATOM      2  C   UNL d   1     -51.516  23.974  33.367  0.00  0.00     0.265 A 
ATOM      3  C   UNL d   1     -51.792  25.431  33.415  0.00  0.00     0.067 A 
ATOM      4  C   UNL d   1     -51.025  25.278  33.429  0.00  0.00     0.022 A 
ATOM      5  C   UNL d   1     -50.773  24.490  33.406  0.00  0.00     0.058 A 
ATOM      6  C   UNL d   1     -50.719  26.649  33.490  0.00  0.00     0.085 A 
ATOM      7  C   UNL d   1     -50.490  25.882  33.466  0.00  0.00     0.019 A 
ATOM      8  C   UNL d   1     -52.052  26.247  33.439  0.00  0.00     0.019 A 
ATOM      9  O   UNL d   1     -51.629  23.190  33.334  0.00  0.00    -0.267 OA
ATOM     10  C   UNL d   1     -51.525  26.820  33.475  0.00  0.00     0.021 A 
ATOM     11  C   UNL d   1     -49.982  24.330  33.420  0.00  0.00     0.005 A 
ATOM     12  C   UNL d   1     -49.670  25.720  33.482  0.00  0.00     0.002 A 
ATOM     13  C   UNL d   1     -49.424  24.944  33.458  0.00  0.00     0.000 A 
ENDROOT
BRANCH   6  14
ATOM     14  N   UNL d   1     -50.169  27.281  33.528  0.00  0.00    -0.208 NA
ATOM     15  C   UNL d   1     -50.447  28.022  33.723  0.00  0.00     0.279 C 
ATOM     16  O   UNL d   1     -51.223  28.155  33.876  0.00  0.00    -0.265 OA
BRANCH  15  17
ATOM     17  C   UNL d   1     -49.932  28.626  33.762  0.00  0.00     0.060 A 
ATOM     18  C   UNL d   1     -49.336  28.528  34.239  0.00  0.00     0.031 A 
ATOM     19  C   UNL d   1     -48.744  29.190  34.302  0.00  0.00     0.116 A 
ATOM     20  C   UNL d   1     -48.855  29.879  33.848  0.00  0.00     0.116 A 
ATOM     21  C   UNL d   1     -49.500  29.942  33.354  0.00  0.00     0.026 A 
ATOM     22  C   UNL d   1     -50.046  29.307  33.310  0.00  0.00     0.007 A 
BRANCH  19  23
ATOM     23  O   UNL d   1     -48.114  29.142  34.777  0.00  0.00    -0.326 OA
ATOM     24  C   UNL d   1     -48.168  29.412  35.548  0.00  0.00     0.181 C 
ENDBRANCH  19  23
BRANCH  20  25
ATOM     25  O   UNL d   1     -48.309  30.509  33.895  0.00  0.00    -0.326 OA
ATOM     26  C   UNL d   1     -48.527  31.262  33.630  0.00  0.00     0.181 C 
ENDBRANCH  20  25
ENDBRANCH  15  17
ENDBRANCH   6  14
BRANCH   1  27
ATOM     27  C   UNL d   1     -53.187  24.950  33.360  0.00  0.00     0.083 C 
ATOM     28  C   UNL d   1     -53.764  24.388  33.307  0.00  0.00     0.021 C 
ENDBRANCH   1  27
TORSDOF 5
ENDMDL
