MODEL 1
REMARK VINA RESULT:      33.3      0.000      0.000
REMARK  5 active torsions:
REMARK  status: ('A' for Active; 'I' for Inactive)
REMARK    1  A    between atoms: C_10  and  C_3 
REMARK    2  A    between atoms: S_9  and  C_4 
REMARK       I    between atoms: N_6  and  C_7 
REMARK    3  A    between atoms: C_8  and  N_6 
REMARK    4  A    between atoms: C_7  and  C_14 
REMARK    5  A    between atoms: C_14  and  S_9 
ROOT
ATOM      1  S   UNL d   1      14.594  13.268  -0.630  0.00  0.00    -0.036 SA
ENDROOT
BRANCH   1   2
ATOM      2  C   UNL d   1      14.375  12.766  -1.273  0.00  0.00     0.236 A 
ATOM      3  O   UNL d   1      13.999  13.077  -1.942  0.00  0.00    -0.263 OA
ATOM      4  C   UNL d   1      13.867  12.460  -2.449  0.00  0.00     0.205 A 
ATOM      5  N   UNL d   1      14.145  11.789  -2.117  0.00  0.00    -0.120 NA
ATOM      6  N   UNL d   1      14.466  11.952  -1.386  0.00  0.00    -0.114 NA
BRANCH   4   7
ATOM      7  C   UNL d   1      13.511  12.502  -3.176  0.00  0.00     0.046 A 
ATOM      8  C   UNL d   1      13.463  13.211  -3.587  0.00  0.00     0.024 A 
ATOM      9  C   UNL d   1      13.086  13.211  -4.337  0.00  0.00     0.099 A 
ATOM     10  N   UNL d   1      12.771  12.529  -4.659  0.00  0.00    -0.242 NA
ATOM     11  C   UNL d   1      12.821  11.807  -4.238  0.00  0.00     0.099 A 
ATOM     12  C   UNL d   1      13.187  11.786  -3.500  0.00  0.00     0.024 A 
ENDBRANCH   4   7
ENDBRANCH   1   2
BRANCH   1  13
ATOM     13  C   UNL d   1      15.211  13.782  -0.719  0.00  0.00     0.101 C 
BRANCH  13  14
ATOM     14  C   UNL d   1      15.075  14.584  -0.617  0.00  0.00     0.286 C 
ATOM     15  N   UNL d   1      15.442  15.135  -1.127  0.00  0.00    -0.207 NA
ATOM     16  O   UNL d   1      14.579  14.863  -0.016  0.00  0.00    -0.265 OA
BRANCH  15  17
ATOM     17  C   UNL d   1      15.309  15.955  -1.029  0.00  0.00     0.095 A 
ATOM     18  C   UNL d   1      14.925  16.375  -1.609  0.00  0.00     0.075 A 
ATOM     19 CL   UNL d   1      14.656  16.001  -2.313  0.00  0.00    -0.081 Cl
ATOM     20  C   UNL d   1      14.796  17.194  -1.504  0.00  0.00     0.013 A 
ATOM     21  C   UNL d   1      15.046  17.570  -0.838  0.00  0.00     0.001 A 
ATOM     22  C   UNL d   1      15.437  17.158  -0.242  0.00  0.00     0.002 A 
ATOM     23  C   UNL d   1      15.571  16.330  -0.340  0.00  0.00     0.020 A 
ENDBRANCH  15  17
ENDBRANCH  13  14
ENDBRANCH   1  13
TORSDOF 5
ENDMDL
