MODEL 1
REMARK VINA RESULT:      -2.9      0.000      0.000
REMARK  5 active torsions:
REMARK  status: ('A' for Active; 'I' for Inactive)
REMARK    1  A    between atoms: C_11  and  N_1 
REMARK    2  A    between atoms: S_8  and  C_4 
REMARK    3  A    between atoms: C_6  and  S_8 
REMARK    4  A    between atoms: C_9  and  C_7 
REMARK    5  A    between atoms: N_10  and  C_13 
ROOT
ATOM      1  N   UNL d   1      32.869  19.543 -23.032  0.00  0.00    -0.241 N 
ATOM      2  C   UNL d   1      32.946  19.627 -23.848  0.00  0.00     0.268 A 
ATOM      3  C   UNL d   1      32.785  18.754 -22.862  0.00  0.00     0.273 A 
ATOM      4  C   UNL d   1      32.809  18.334 -23.583  0.00  0.00     0.092 A 
ATOM      5  C   UNL d   1      32.909  18.885 -24.181  0.00  0.00     0.072 A 
ATOM      6  O   UNL d   1      33.045  20.324 -24.282  0.00  0.00    -0.267 OA
ATOM      7  O   UNL d   1      32.692  18.424 -22.120  0.00  0.00    -0.266 OA
ENDROOT
BRANCH   1   8
ATOM      8  C   UNL d   1      32.880  20.181 -22.505  0.00  0.00     0.070 A 
ATOM      9  C   UNL d   1      33.228  20.883 -22.728  0.00  0.00     0.019 A 
ATOM     10  C   UNL d   1      33.240  21.532 -22.190  0.00  0.00     0.019 A 
ATOM     11  C   UNL d   1      32.903  21.451 -21.453  0.00  0.00     0.064 A 
ATOM     12  C   UNL d   1      32.544  20.726 -21.225  0.00  0.00     0.019 A 
ATOM     13  C   UNL d   1      32.541  20.098 -21.765  0.00  0.00     0.019 A 
BRANCH  11  14
ATOM     14  N   UNL d   1      32.920  22.087 -20.939  0.00  0.00    -0.300 N 
ATOM     15  C   UNL d   1      33.231  22.000 -20.163  0.00  0.00     0.107 A 
ATOM     16  C   UNL d   1      33.240  22.654 -19.654  0.00  0.00     0.142 A 
ATOM     17  O   UNL d   1      32.954  23.389 -19.887  0.00  0.00    -0.300 OA
ATOM     18  C   UNL d   1      32.642  23.476 -20.663  0.00  0.00     0.142 A 
ATOM     19  C   UNL d   1      32.632  22.818 -21.178  0.00  0.00     0.107 A 
ENDBRANCH  11  14
ENDBRANCH   1   8
BRANCH   4  20
ATOM     20  S   UNL d   1      32.747  17.519 -23.696  0.00  0.00    -0.063 SA
BRANCH  20  21
ATOM     21  C   UNL d   1      32.070  17.185 -24.033  0.00  0.00     0.117 A 
ATOM     22  C   UNL d   1      31.996  16.362 -24.096  0.00  0.00     0.088 A 
ATOM     23  C   UNL d   1      31.325  16.040 -24.430  0.00  0.00     0.010 A 
ATOM     24  C   UNL d   1      30.728  16.518 -24.702  0.00  0.00     0.021 A 
ATOM     25  C   UNL d   1      30.786  17.330 -24.647  0.00  0.00     0.100 A 
ATOM     26  N   UNL d   1      31.471  17.664 -24.306  0.00  0.00    -0.237 NA
BRANCH  22  27
ATOM     27  C   UNL d   1      32.605  15.873 -23.818  0.00  0.00     0.213 C 
ATOM     28  O   UNL d   1      33.232  15.685 -24.320  0.00  0.00    -0.644 OA
ATOM     29  O   UNL d   1      32.579  15.579 -23.045  0.00  0.00    -0.644 OA
ENDBRANCH  22  27
ENDBRANCH  20  21
ENDBRANCH   4  20
TORSDOF 5
ENDMDL
MODEL 2
REMARK VINA RESULT:      -0.8      1.546      5.925
REMARK  5 active torsions:
REMARK  status: ('A' for Active; 'I' for Inactive)
REMARK    1  A    between atoms: C_11  and  N_1 
REMARK    2  A    between atoms: S_8  and  C_4 
REMARK    3  A    between atoms: C_6  and  S_8 
REMARK    4  A    between atoms: C_9  and  C_7 
REMARK    5  A    between atoms: N_10  and  C_13 
ROOT
ATOM      1  N   UNL d   1      33.151  20.135 -21.808  0.00  0.00    -0.241 N 
ATOM      2  C   UNL d   1      33.212  20.097 -20.987  0.00  0.00     0.268 A 
ATOM      3  C   UNL d   1      33.142  20.916 -22.029  0.00  0.00     0.273 A 
ATOM      4  C   UNL d   1      33.199  21.377 -21.336  0.00  0.00     0.092 A 
ATOM      5  C   UNL d   1      33.241  20.860 -20.703  0.00  0.00     0.072 A 
ATOM      6  O   UNL d   1      33.241  19.424 -20.508  0.00  0.00    -0.267 OA
ATOM      7  O   UNL d   1      33.088  21.204 -22.792  0.00  0.00    -0.266 OA
ENDROOT
BRANCH   1   8
ATOM      8  C   UNL d   1      33.107  19.466 -22.294  0.00  0.00     0.070 A 
ATOM      9  C   UNL d   1      32.992  19.556 -23.095  0.00  0.00     0.019 A 
ATOM     10  C   UNL d   1      32.948  18.875 -23.590  0.00  0.00     0.019 A 
ATOM     11  C   UNL d   1      33.021  18.133 -23.261  0.00  0.00     0.064 A 
ATOM     12  C   UNL d   1      33.140  18.042 -22.433  0.00  0.00     0.019 A 
ATOM     13  C   UNL d   1      33.181  18.722 -21.962  0.00  0.00     0.019 A 
BRANCH  11  14
ATOM     14  N   UNL d   1      32.977  17.479 -23.750  0.00  0.00    -0.300 N 
ATOM     15  C   UNL d   1      32.725  16.736 -23.446  0.00  0.00     0.107 A 
ATOM     16  C   UNL d   1      32.685  16.083 -23.954  0.00  0.00     0.142 A 
ATOM     17  O   UNL d   1      32.887  16.139 -24.750  0.00  0.00    -0.300 OA
ATOM     18  C   UNL d   1      33.139  16.881 -25.053  0.00  0.00     0.142 A 
ATOM     19  C   UNL d   1      33.180  17.541 -24.543  0.00  0.00     0.107 A 
ENDBRANCH  11  14
ENDBRANCH   1   8
BRANCH   4  20
ATOM     20  S   UNL d   1      33.211  22.200 -21.277  0.00  0.00    -0.063 SA
BRANCH  20  21
ATOM     21  C   UNL d   1      32.968  22.583 -20.585  0.00  0.00     0.117 A 
ATOM     22  C   UNL d   1      32.477  23.249 -20.626  0.00  0.00     0.088 A 
ATOM     23  C   UNL d   1      32.241  23.620 -19.939  0.00  0.00     0.010 A 
ATOM     24  C   UNL d   1      32.482  23.344 -19.215  0.00  0.00     0.021 A 
ATOM     25  C   UNL d   1      32.966  22.689 -19.159  0.00  0.00     0.100 A 
ATOM     26  N   UNL d   1      33.210  22.306 -19.859  0.00  0.00    -0.237 NA
BRANCH  22  27
ATOM     27  C   UNL d   1      32.229  23.532 -21.365  0.00  0.00     0.213 C 
ATOM     28  O   UNL d   1      31.425  23.640 -21.506  0.00  0.00    -0.644 OA
ATOM     29  O   UNL d   1      32.789  23.702 -21.950  0.00  0.00    -0.644 OA
ENDBRANCH  22  27
ENDBRANCH  20  21
ENDBRANCH   4  20
TORSDOF 5
ENDMDL
MODEL 3
REMARK VINA RESULT:      -0.7      1.291      5.603
REMARK  5 active torsions:
REMARK  status: ('A' for Active; 'I' for Inactive)
REMARK    1  A    between atoms: C_11  and  N_1 
REMARK    2  A    between atoms: S_8  and  C_4 
REMARK    3  A    between atoms: C_6  and  S_8 
REMARK    4  A    between atoms: C_9  and  C_7 
REMARK    5  A    between atoms: N_10  and  C_13 
ROOT
ATOM      1  N   UNL d   1      33.021  20.209 -22.988  0.00  0.00    -0.241 N 
ATOM      2  C   UNL d   1      33.147  20.834 -23.508  0.00  0.00     0.268 A 
ATOM      3  C   UNL d   1      33.038  20.498 -22.229  0.00  0.00     0.273 A 
ATOM      4  C   UNL d   1      33.176  21.319 -22.274  0.00  0.00     0.092 A 
ATOM      5  C   UNL d   1      33.241  21.513 -23.067  0.00  0.00     0.072 A 
ATOM      6  O   UNL d   1      33.177  20.813 -24.334  0.00  0.00    -0.267 OA
ATOM      7  O   UNL d   1      32.938  20.066 -21.543  0.00  0.00    -0.266 OA
ENDROOT
BRANCH   1   8
ATOM      8  C   UNL d   1      32.902  19.427 -23.234  0.00  0.00     0.070 A 
ATOM      9  C   UNL d   1      32.571  19.280 -23.964  0.00  0.00     0.019 A 
ATOM     10  C   UNL d   1      32.450  18.485 -24.215  0.00  0.00     0.019 A 
ATOM     11  C   UNL d   1      32.665  17.871 -23.724  0.00  0.00     0.064 A 
ATOM     12  C   UNL d   1      33.006  18.024 -22.971  0.00  0.00     0.019 A 
ATOM     13  C   UNL d   1      33.119  18.812 -22.740  0.00  0.00     0.019 A 
BRANCH  11  14
ATOM     14  N   UNL d   1      32.543  17.102 -23.977  0.00  0.00    -0.300 N 
ATOM     15  C   UNL d   1      31.817  16.710 -23.814  0.00  0.00     0.107 A 
ATOM     16  C   UNL d   1      31.709  15.932 -24.077  0.00  0.00     0.142 A 
ATOM     17  O   UNL d   1      32.293  15.530 -24.494  0.00  0.00    -0.300 OA
ATOM     18  C   UNL d   1      33.018  15.922 -24.656  0.00  0.00     0.142 A 
ATOM     19  C   UNL d   1      33.130  16.706 -24.392  0.00  0.00     0.107 A 
ENDBRANCH  11  14
ENDBRANCH   1   8
BRANCH   4  20
ATOM     20  S   UNL d   1      33.239  21.856 -21.649  0.00  0.00    -0.063 SA
BRANCH  20  21
ATOM     21  C   UNL d   1      32.697  22.475 -21.561  0.00  0.00     0.117 A 
ATOM     22  C   UNL d   1      32.377  22.648 -20.817  0.00  0.00     0.088 A 
ATOM     23  C   UNL d   1      31.844  23.260 -20.739  0.00  0.00     0.010 A 
ATOM     24  C   UNL d   1      31.623  23.702 -21.382  0.00  0.00     0.021 A 
ATOM     25  C   UNL d   1      31.931  23.543 -22.122  0.00  0.00     0.100 A 
ATOM     26  N   UNL d   1      32.476  22.918 -22.207  0.00  0.00    -0.237 NA
BRANCH  22  27
ATOM     27  C   UNL d   1      32.602  22.197 -20.158  0.00  0.00     0.213 C 
ATOM     28  O   UNL d   1      33.228  22.455 -19.688  0.00  0.00    -0.644 OA
ATOM     29  O   UNL d   1      32.198  21.497 -19.980  0.00  0.00    -0.644 OA
ENDBRANCH  22  27
ENDBRANCH  20  21
ENDBRANCH   4  20
TORSDOF 5
ENDMDL
MODEL 4
REMARK VINA RESULT:      -0.5      0.892      1.354
REMARK  5 active torsions:
REMARK  status: ('A' for Active; 'I' for Inactive)
REMARK    1  A    between atoms: C_11  and  N_1 
REMARK    2  A    between atoms: S_8  and  C_4 
REMARK    3  A    between atoms: C_6  and  S_8 
REMARK    4  A    between atoms: C_9  and  C_7 
REMARK    5  A    between atoms: N_10  and  C_13 
ROOT
ATOM      1  N   UNL d   1      33.012  20.217 -22.391  0.00  0.00    -0.241 N 
ATOM      2  C   UNL d   1      32.884  20.437 -23.174  0.00  0.00     0.268 A 
ATOM      3  C   UNL d   1      33.103  19.411 -22.361  0.00  0.00     0.273 A 
ATOM      4  C   UNL d   1      33.030  19.118 -23.139  0.00  0.00     0.092 A 
ATOM      5  C   UNL d   1      32.896  19.761 -23.629  0.00  0.00     0.072 A 
ATOM      6  O   UNL d   1      32.762  21.196 -23.477  0.00  0.00    -0.267 OA
ATOM      7  O   UNL d   1      33.240  18.961 -21.692  0.00  0.00    -0.266 OA
ENDROOT
BRANCH   1   8
ATOM      8  C   UNL d   1      33.038  20.757 -21.763  0.00  0.00     0.070 A 
ATOM      9  C   UNL d   1      32.894  20.500 -21.004  0.00  0.00     0.019 A 
ATOM     10  C   UNL d   1      32.920  21.049 -20.365  0.00  0.00     0.019 A 
ATOM     11  C   UNL d   1      33.089  21.832 -20.514  0.00  0.00     0.064 A 
ATOM     12  C   UNL d   1      33.237  22.096 -21.299  0.00  0.00     0.019 A 
ATOM     13  C   UNL d   1      33.207  21.543 -21.915  0.00  0.00     0.019 A 
BRANCH  11  14
ATOM     14  N   UNL d   1      33.112  22.358 -19.888  0.00  0.00    -0.300 N 
ATOM     15  C   UNL d   1      33.194  23.183 -20.026  0.00  0.00     0.107 A 
ATOM     16  C   UNL d   1      33.216  23.702 -19.381  0.00  0.00     0.142 A 
ATOM     17  O   UNL d   1      33.159  23.433 -18.605  0.00  0.00    -0.300 OA
ATOM     18  C   UNL d   1      33.076  22.608 -18.467  0.00  0.00     0.142 A 
ATOM     19  C   UNL d   1      33.054  22.083 -19.116  0.00  0.00     0.107 A 
ENDBRANCH  11  14
ENDBRANCH   1   8
BRANCH   4  20
ATOM     20  S   UNL d   1      33.081  18.334 -23.391  0.00  0.00    -0.063 SA
BRANCH  20  21
ATOM     21  C   UNL d   1      32.538  18.023 -23.932  0.00  0.00     0.117 A 
ATOM     22  C   UNL d   1      32.266  17.245 -23.851  0.00  0.00     0.088 A 
ATOM     23  C   UNL d   1      31.730  16.946 -24.389  0.00  0.00     0.010 A 
ATOM     24  C   UNL d   1      31.462  17.402 -25.004  0.00  0.00     0.021 A 
ATOM     25  C   UNL d   1      31.722  18.171 -25.097  0.00  0.00     0.100 A 
ATOM     26  N   UNL d   1      32.269  18.481 -24.549  0.00  0.00    -0.237 NA
BRANCH  22  27
ATOM     27  C   UNL d   1      32.539  16.778 -23.223  0.00  0.00     0.213 C 
ATOM     28  O   UNL d   1      32.108  16.754 -22.521  0.00  0.00    -0.644 OA
ATOM     29  O   UNL d   1      33.238  16.342 -23.307  0.00  0.00    -0.644 OA
ENDBRANCH  22  27
ENDBRANCH  20  21
ENDBRANCH   4  20
TORSDOF 5
ENDMDL
