MODEL 1
REMARK VINA RESULT:      -6.8      0.000      0.000
REMARK  3 active torsions:
REMARK  status: ('A' for Active; 'I' for Inactive)
REMARK    1  A    between atoms: C_4  and  C_1 
REMARK    2  A    between atoms: C_11  and  C_10 
REMARK    3  A    between atoms: O_20  and  C_11 
ROOT
ATOM      1  C   UNL d   1     -39.177  14.551  18.544  0.00  0.00     0.004 A 
ATOM      2  C   UNL d   1     -40.068  14.428  17.435  0.00  0.00     0.102 A 
ATOM      3  C   UNL d   1     -39.776  14.863  18.073  0.00  0.00     0.023 A 
ATOM      4  O   UNL d   1     -39.760  13.683  17.268  0.00  0.00    -0.307 OA
ATOM      5  C   UNL d   1     -39.161  13.372  17.739  0.00  0.00     0.102 A 
ATOM      6  C   UNL d   1     -38.869  13.806  18.377  0.00  0.00     0.023 A 
ATOM      7  C   UNL d   1     -40.667  14.739  16.964  0.00  0.00     0.046 A 
ATOM      8  C   UNL d   1     -40.083  15.607  18.240  0.00  0.00     0.004 A 
ATOM      9  C   UNL d   1     -38.854  12.626  17.572  0.00  0.00     0.046 A 
ATOM     10  C   UNL d   1     -40.977  15.488  17.130  0.00  0.00     0.105 A 
ATOM     11  C   UNL d   1     -40.685  15.922  17.768  0.00  0.00     0.021 A 
ATOM     12  C   UNL d   1     -38.270  13.494  18.848  0.00  0.00     0.004 A 
ATOM     13  N   UNL d   1     -41.582  15.805  16.657  0.00  0.00    -0.148 N 
ATOM     14  C   UNL d   1     -38.250  12.309  18.045  0.00  0.00     0.105 A 
ATOM     15  C   UNL d   1     -37.958  12.744  18.683  0.00  0.00     0.021 A 
ATOM     16  N   UNL d   1     -37.940  11.561  17.878  0.00  0.00    -0.148 N 
ENDROOT
BRANCH   1  17
ATOM     17  C   UNL d   1     -38.885  14.985  19.182  0.00  0.00     0.005 A 
ATOM     18  C   UNL d   1     -39.240  14.921  19.922  0.00  0.00     0.063 A 
ATOM     19  C   UNL d   1     -38.946  15.357  20.563  0.00  0.00     0.005 A 
ATOM     20  C   UNL d   1     -38.299  15.855  20.462  0.00  0.00     0.000 A 
ATOM     21  C   UNL d   1     -37.940  15.921  19.719  0.00  0.00     0.000 A 
ATOM     22  C   UNL d   1     -38.234  15.485  19.078  0.00  0.00     0.000 A 
BRANCH  18  23
ATOM     23  C   UNL d   1     -39.852  14.566  20.394  0.00  0.00     0.296 C 
ATOM     24  O   UNL d   1     -39.935  14.987  21.209  0.00  0.00    -0.259 OA
BRANCH  23  25
ATOM     25  O   UNL d   1     -40.476  14.051  20.634  0.00  0.00    -0.296 OA
ATOM     26  C   UNL d   1     -41.270  14.251  21.138  0.00  0.00     0.185 C 
ENDBRANCH  23  25
ENDBRANCH  18  23
ENDBRANCH   1  17
TORSDOF 3
ENDMDL
MODEL 2
REMARK VINA RESULT:      -6.4      8.307     10.648
REMARK  3 active torsions:
REMARK  status: ('A' for Active; 'I' for Inactive)
REMARK    1  A    between atoms: C_4  and  C_1 
REMARK    2  A    between atoms: C_11  and  C_10 
REMARK    3  A    between atoms: O_20  and  C_11 
ROOT
ATOM      1  C   UNL d   1     -48.699  13.551  23.010  0.00  0.00     0.004 A 
ATOM      2  C   UNL d   1     -49.013  14.934  23.176  0.00  0.00     0.102 A 
ATOM      3  C   UNL d   1     -49.246  14.143  23.181  0.00  0.00     0.023 A 
ATOM      4  O   UNL d   1     -48.233  15.134  23.001  0.00  0.00    -0.307 OA
ATOM      5  C   UNL d   1     -47.687  14.542  22.831  0.00  0.00     0.102 A 
ATOM      6  C   UNL d   1     -47.920  13.750  22.835  0.00  0.00     0.023 A 
ATOM      7  C   UNL d   1     -49.558  15.526  23.347  0.00  0.00     0.046 A 
ATOM      8  C   UNL d   1     -50.024  13.943  23.356  0.00  0.00     0.004 A 
ATOM      9  C   UNL d   1     -46.907  14.742  22.655  0.00  0.00     0.046 A 
ATOM     10  C   UNL d   1     -50.342  15.327  23.523  0.00  0.00     0.105 A 
ATOM     11  C   UNL d   1     -50.575  14.536  23.528  0.00  0.00     0.021 A 
ATOM     12  C   UNL d   1     -47.373  13.159  22.664  0.00  0.00     0.004 A 
ATOM     13  N   UNL d   1     -50.896  15.922  23.696  0.00  0.00    -0.148 N 
ATOM     14  C   UNL d   1     -46.354  14.148  22.483  0.00  0.00     0.105 A 
ATOM     15  C   UNL d   1     -46.587  13.356  22.487  0.00  0.00     0.021 A 
ATOM     16  N   UNL d   1     -45.570  14.346  22.307  0.00  0.00    -0.148 N 
ENDROOT
BRANCH   1  17
ATOM     17  C   UNL d   1     -48.932  12.760  23.015  0.00  0.00     0.005 A 
ATOM     18  C   UNL d   1     -49.275  12.427  22.345  0.00  0.00     0.063 A 
ATOM     19  C   UNL d   1     -49.509  11.631  22.350  0.00  0.00     0.005 A 
ATOM     20  C   UNL d   1     -49.399  11.172  23.024  0.00  0.00     0.000 A 
ATOM     21  C   UNL d   1     -49.053  11.505  23.698  0.00  0.00     0.000 A 
ATOM     22  C   UNL d   1     -48.819  12.300  23.693  0.00  0.00     0.000 A 
BRANCH  18  23
ATOM     23  C   UNL d   1     -49.536  12.538  21.543  0.00  0.00     0.296 C 
ATOM     24  O   UNL d   1     -49.235  11.862  20.993  0.00  0.00    -0.259 OA
BRANCH  23  25
ATOM     25  O   UNL d   1     -49.911  12.875  20.866  0.00  0.00    -0.296 OA
ATOM     26  C   UNL d   1     -50.800  12.735  20.529  0.00  0.00     0.185 C 
ENDBRANCH  23  25
ENDBRANCH  18  23
ENDBRANCH   1  17
TORSDOF 3
ENDMDL
MODEL 3
REMARK VINA RESULT:      -6.3      8.148     10.774
REMARK  3 active torsions:
REMARK  status: ('A' for Active; 'I' for Inactive)
REMARK    1  A    between atoms: C_4  and  C_1 
REMARK    2  A    between atoms: C_11  and  C_10 
REMARK    3  A    between atoms: O_20  and  C_11 
ROOT
ATOM      1  C   UNL d   1     -48.531  13.400  23.004  0.00  0.00     0.004 A 
ATOM      2  C   UNL d   1     -47.456  14.318  22.803  0.00  0.00     0.102 A 
ATOM      3  C   UNL d   1     -47.742  13.544  22.818  0.00  0.00     0.023 A 
ATOM      4  O   UNL d   1     -47.959  14.948  22.974  0.00  0.00    -0.307 OA
ATOM      5  C   UNL d   1     -48.747  14.803  23.160  0.00  0.00     0.102 A 
ATOM      6  C   UNL d   1     -49.034  14.029  23.175  0.00  0.00     0.023 A 
ATOM      7  C   UNL d   1     -46.667  14.463  22.617  0.00  0.00     0.046 A 
ATOM      8  C   UNL d   1     -47.240  12.915  22.647  0.00  0.00     0.004 A 
ATOM      9  C   UNL d   1     -49.250  15.432  23.331  0.00  0.00     0.046 A 
ATOM     10  C   UNL d   1     -46.161  13.831  22.445  0.00  0.00     0.105 A 
ATOM     11  C   UNL d   1     -46.447  13.058  22.460  0.00  0.00     0.021 A 
ATOM     12  C   UNL d   1     -49.823  13.885  23.361  0.00  0.00     0.004 A 
ATOM     13  N   UNL d   1     -45.364  13.973  22.256  0.00  0.00    -0.148 N 
ATOM     14  C   UNL d   1     -50.046  15.290  23.519  0.00  0.00     0.105 A 
ATOM     15  C   UNL d   1     -50.332  14.517  23.534  0.00  0.00     0.021 A 
ATOM     16  N   UNL d   1     -50.552  15.921  23.691  0.00  0.00    -0.148 N 
ENDROOT
BRANCH   1  17
ATOM     17  C   UNL d   1     -48.818  12.627  23.019  0.00  0.00     0.005 A 
ATOM     18  C   UNL d   1     -49.233  12.328  22.374  0.00  0.00     0.063 A 
ATOM     19  C   UNL d   1     -49.521  11.550  22.389  0.00  0.00     0.005 A 
ATOM     20  C   UNL d   1     -49.392  11.075  23.049  0.00  0.00     0.000 A 
ATOM     21  C   UNL d   1     -48.974  11.373  23.698  0.00  0.00     0.000 A 
ATOM     22  C   UNL d   1     -48.686  12.151  23.683  0.00  0.00     0.000 A 
BRANCH  18  23
ATOM     23  C   UNL d   1     -49.545  12.469  21.596  0.00  0.00     0.296 C 
ATOM     24  O   UNL d   1     -49.377  11.759  21.032  0.00  0.00    -0.259 OA
BRANCH  23  25
ATOM     25  O   UNL d   1     -49.932  12.848  20.948  0.00  0.00    -0.296 OA
ATOM     26  C   UNL d   1     -50.858  12.819  20.690  0.00  0.00     0.185 C 
ENDBRANCH  23  25
ENDBRANCH  18  23
ENDBRANCH   1  17
TORSDOF 3
ENDMDL
MODEL 4
REMARK VINA RESULT:      -5.8      8.589     10.924
REMARK  3 active torsions:
REMARK  status: ('A' for Active; 'I' for Inactive)
REMARK    1  A    between atoms: C_4  and  C_1 
REMARK    2  A    between atoms: C_11  and  C_10 
REMARK    3  A    between atoms: O_20  and  C_11 
ROOT
ATOM      1  C   UNL d   1     -48.972  13.691  23.054  0.00  0.00     0.004 A 
ATOM      2  C   UNL d   1     -47.682  13.100  22.901  0.00  0.00     0.102 A 
ATOM      3  C   UNL d   1     -48.168  13.767  22.897  0.00  0.00     0.023 A 
ATOM      4  O   UNL d   1     -48.001  12.358  23.061  0.00  0.00    -0.307 OA
ATOM      5  C   UNL d   1     -48.805  12.283  23.218  0.00  0.00     0.102 A 
ATOM      6  C   UNL d   1     -49.291  12.950  23.214  0.00  0.00     0.023 A 
ATOM      7  C   UNL d   1     -46.877  13.175  22.744  0.00  0.00     0.046 A 
ATOM      8  C   UNL d   1     -47.849  14.508  22.737  0.00  0.00     0.004 A 
ATOM      9  C   UNL d   1     -49.124  11.540  23.378  0.00  0.00     0.046 A 
ATOM     10  C   UNL d   1     -46.555  13.920  22.583  0.00  0.00     0.105 A 
ATOM     11  C   UNL d   1     -47.041  14.586  22.580  0.00  0.00     0.021 A 
ATOM     12  C   UNL d   1     -50.096  12.874  23.371  0.00  0.00     0.004 A 
ATOM     13  N   UNL d   1     -45.743  13.999  22.425  0.00  0.00    -0.148 N 
ATOM     14  C   UNL d   1     -49.935  11.461  23.536  0.00  0.00     0.105 A 
ATOM     15  C   UNL d   1     -50.421  12.128  23.532  0.00  0.00     0.021 A 
ATOM     16  N   UNL d   1     -50.257  10.716  23.697  0.00  0.00    -0.148 N 
ENDROOT
BRANCH   1  17
ATOM     17  C   UNL d   1     -49.458  14.358  23.051  0.00  0.00     0.005 A 
ATOM     18  C   UNL d   1     -49.948  14.509  22.406  0.00  0.00     0.063 A 
ATOM     19  C   UNL d   1     -50.436  15.179  22.403  0.00  0.00     0.005 A 
ATOM     20  C   UNL d   1     -50.433  15.695  23.044  0.00  0.00     0.000 A 
ATOM     21  C   UNL d   1     -49.942  15.545  23.692  0.00  0.00     0.000 A 
ATOM     22  C   UNL d   1     -49.454  14.876  23.696  0.00  0.00     0.000 A 
BRANCH  18  23
ATOM     23  C   UNL d   1     -50.219  14.260  21.639  0.00  0.00     0.296 C 
ATOM     24  O   UNL d   1     -50.951  14.749  21.365  0.00  0.00    -0.259 OA
BRANCH  23  25
ATOM     25  O   UNL d   1     -50.272  13.837  20.911  0.00  0.00    -0.296 OA
ATOM     26  C   UNL d   1     -51.038  13.427  20.499  0.00  0.00     0.185 C 
ENDBRANCH  23  25
ENDBRANCH  18  23
ENDBRANCH   1  17
TORSDOF 3
ENDMDL
MODEL 5
REMARK VINA RESULT:      -5.7      8.571     10.878
REMARK  3 active torsions:
REMARK  status: ('A' for Active; 'I' for Inactive)
REMARK    1  A    between atoms: C_4  and  C_1 
REMARK    2  A    between atoms: C_11  and  C_10 
REMARK    3  A    between atoms: O_20  and  C_11 
ROOT
ATOM      1  C   UNL d   1     -48.938  13.597  23.014  0.00  0.00     0.004 A 
ATOM      2  C   UNL d   1     -48.830  12.181  23.167  0.00  0.00     0.102 A 
ATOM      3  C   UNL d   1     -49.285  12.869  23.184  0.00  0.00     0.023 A 
ATOM      4  O   UNL d   1     -48.029  12.220  22.979  0.00  0.00    -0.307 OA
ATOM      5  C   UNL d   1     -47.683  12.947  22.809  0.00  0.00     0.102 A 
ATOM      6  C   UNL d   1     -48.138  13.636  22.826  0.00  0.00     0.023 A 
ATOM      7  C   UNL d   1     -49.176  11.454  23.336  0.00  0.00     0.046 A 
ATOM      8  C   UNL d   1     -50.085  12.830  23.371  0.00  0.00     0.004 A 
ATOM      9  C   UNL d   1     -46.882  12.986  22.621  0.00  0.00     0.046 A 
ATOM     10  C   UNL d   1     -49.980  11.412  23.525  0.00  0.00     0.105 A 
ATOM     11  C   UNL d   1     -50.435  12.101  23.543  0.00  0.00     0.021 A 
ATOM     12  C   UNL d   1     -47.791  14.363  22.656  0.00  0.00     0.004 A 
ATOM     13  N   UNL d   1     -50.333  10.680  23.697  0.00  0.00    -0.148 N 
ATOM     14  C   UNL d   1     -46.530  13.718  22.449  0.00  0.00     0.105 A 
ATOM     15  C   UNL d   1     -46.984  14.406  22.467  0.00  0.00     0.021 A 
ATOM     16  N   UNL d   1     -45.725  13.759  22.261  0.00  0.00    -0.148 N 
ENDROOT
BRANCH   1  17
ATOM     17  C   UNL d   1     -49.392  14.285  23.031  0.00  0.00     0.005 A 
ATOM     18  C   UNL d   1     -49.897  14.462  22.406  0.00  0.00     0.063 A 
ATOM     19  C   UNL d   1     -50.354  15.154  22.424  0.00  0.00     0.005 A 
ATOM     20  C   UNL d   1     -50.304  15.666  23.067  0.00  0.00     0.000 A 
ATOM     21  C   UNL d   1     -49.796  15.490  23.696  0.00  0.00     0.000 A 
ATOM     22  C   UNL d   1     -49.340  14.798  23.678  0.00  0.00     0.000 A 
BRANCH  18  23
ATOM     23  C   UNL d   1     -50.208  14.231  21.649  0.00  0.00     0.296 C 
ATOM     24  O   UNL d   1     -51.039  14.600  21.498  0.00  0.00    -0.259 OA
BRANCH  23  25
ATOM     25  O   UNL d   1     -50.271  13.865  20.891  0.00  0.00    -0.296 OA
ATOM     26  C   UNL d   1     -51.055  13.688  20.363  0.00  0.00     0.185 C 
ENDBRANCH  23  25
ENDBRANCH  18  23
ENDBRANCH   1  17
TORSDOF 3
ENDMDL
MODEL 6
REMARK VINA RESULT:      -5.3      1.627      2.767
REMARK  3 active torsions:
REMARK  status: ('A' for Active; 'I' for Inactive)
REMARK    1  A    between atoms: C_4  and  C_1 
REMARK    2  A    between atoms: C_11  and  C_10 
REMARK    3  A    between atoms: O_20  and  C_11 
ROOT
ATOM      1  C   UNL d   1     -38.672  14.303  18.325  0.00  0.00     0.004 A 
ATOM      2  C   UNL d   1     -38.123  14.178  19.637  0.00  0.00     0.102 A 
ATOM      3  C   UNL d   1     -38.489  14.635  19.057  0.00  0.00     0.023 A 
ATOM      4  O   UNL d   1     -37.940  13.389  19.487  0.00  0.00    -0.307 OA
ATOM      5  C   UNL d   1     -38.123  13.058  18.756  0.00  0.00     0.102 A 
ATOM      6  C   UNL d   1     -38.489  13.516  18.175  0.00  0.00     0.023 A 
ATOM      7  C   UNL d   1     -37.940  14.508  20.369  0.00  0.00     0.046 A 
ATOM      8  C   UNL d   1     -38.672  15.423  19.207  0.00  0.00     0.004 A 
ATOM      9  C   UNL d   1     -37.940  12.269  18.605  0.00  0.00     0.046 A 
ATOM     10  C   UNL d   1     -38.123  15.301  20.521  0.00  0.00     0.105 A 
ATOM     11  C   UNL d   1     -38.489  15.758  19.941  0.00  0.00     0.021 A 
ATOM     12  C   UNL d   1     -38.672  13.184  17.444  0.00  0.00     0.004 A 
ATOM     13  N   UNL d   1     -37.940  15.638  21.258  0.00  0.00    -0.148 N 
ATOM     14  C   UNL d   1     -38.123  11.932  17.869  0.00  0.00     0.105 A 
ATOM     15  C   UNL d   1     -38.489  12.390  17.288  0.00  0.00     0.021 A 
ATOM     16  N   UNL d   1     -37.940  11.140  17.716  0.00  0.00    -0.148 N 
ENDROOT
BRANCH   1  17
ATOM     17  C   UNL d   1     -39.039  14.761  17.745  0.00  0.00     0.005 A 
ATOM     18  C   UNL d   1     -39.859  14.768  17.681  0.00  0.00     0.063 A 
ATOM     19  C   UNL d   1     -40.227  15.227  17.098  0.00  0.00     0.005 A 
ATOM     20  C   UNL d   1     -39.773  15.678  16.580  0.00  0.00     0.000 A 
ATOM     21  C   UNL d   1     -38.948  15.673  16.642  0.00  0.00     0.000 A 
ATOM     22  C   UNL d   1     -38.580  15.213  17.225  0.00  0.00     0.000 A 
BRANCH  18  23
ATOM     23  C   UNL d   1     -40.603  14.482  17.979  0.00  0.00     0.296 C 
ATOM     24  O   UNL d   1     -41.314  14.882  17.550  0.00  0.00    -0.259 OA
BRANCH  23  25
ATOM     25  O   UNL d   1     -41.166  14.048  18.435  0.00  0.00    -0.296 OA
ATOM     26  C   UNL d   1     -41.701  14.339  19.179  0.00  0.00     0.185 C 
ENDBRANCH  23  25
ENDBRANCH  18  23
ENDBRANCH   1  17
TORSDOF 3
ENDMDL
MODEL 7
REMARK VINA RESULT:      -5.0      8.360      9.839
REMARK  3 active torsions:
REMARK  status: ('A' for Active; 'I' for Inactive)
REMARK    1  A    between atoms: C_4  and  C_1 
REMARK    2  A    between atoms: C_11  and  C_10 
REMARK    3  A    between atoms: O_20  and  C_11 
ROOT
ATOM      1  C   UNL d   1     -47.827  12.784  23.042  0.00  0.00     0.004 A 
ATOM      2  C   UNL d   1     -46.800  13.773  22.958  0.00  0.00     0.102 A 
ATOM      3  C   UNL d   1     -47.598  13.566  22.921  0.00  0.00     0.023 A 
ATOM      4  O   UNL d   1     -46.231  13.198  23.117  0.00  0.00    -0.307 OA
ATOM      5  C   UNL d   1     -46.461  12.417  23.238  0.00  0.00     0.102 A 
ATOM      6  C   UNL d   1     -47.259  12.210  23.200  0.00  0.00     0.023 A 
ATOM      7  C   UNL d   1     -46.570  14.554  22.837  0.00  0.00     0.046 A 
ATOM      8  C   UNL d   1     -48.165  14.140  22.762  0.00  0.00     0.004 A 
ATOM      9  C   UNL d   1     -45.892  11.843  23.397  0.00  0.00     0.046 A 
ATOM     10  C   UNL d   1     -47.140  15.132  22.678  0.00  0.00     0.105 A 
ATOM     11  C   UNL d   1     -47.937  14.925  22.640  0.00  0.00     0.021 A 
ATOM     12  C   UNL d   1     -47.488  11.429  23.321  0.00  0.00     0.004 A 
ATOM     13  N   UNL d   1     -46.912  15.922  22.555  0.00  0.00    -0.148 N 
ATOM     14  C   UNL d   1     -46.121  11.054  23.519  0.00  0.00     0.105 A 
ATOM     15  C   UNL d   1     -46.918  10.847  23.482  0.00  0.00     0.021 A 
ATOM     16  N   UNL d   1     -45.551  10.476  23.679  0.00  0.00    -0.148 N 
ENDROOT
BRANCH   1  17
ATOM     17  C   UNL d   1     -48.624  12.577  23.004  0.00  0.00     0.005 A 
ATOM     18  C   UNL d   1     -48.973  12.406  22.279  0.00  0.00     0.063 A 
ATOM     19  C   UNL d   1     -49.775  12.198  22.241  0.00  0.00     0.005 A 
ATOM     20  C   UNL d   1     -50.225  12.162  22.929  0.00  0.00     0.000 A 
ATOM     21  C   UNL d   1     -49.876  12.333  23.660  0.00  0.00     0.000 A 
ATOM     22  C   UNL d   1     -49.075  12.541  23.697  0.00  0.00     0.000 A 
BRANCH  18  23
ATOM     23  C   UNL d   1     -48.876  12.336  21.436  0.00  0.00     0.296 C 
ATOM     24  O   UNL d   1     -49.553  11.837  21.059  0.00  0.00    -0.259 OA
BRANCH  23  25
ATOM     25  O   UNL d   1     -48.554  12.421  20.661  0.00  0.00    -0.296 OA
ATOM     26  C   UNL d   1     -48.239  11.745  20.054  0.00  0.00     0.185 C 
ENDBRANCH  23  25
ENDBRANCH  18  23
ENDBRANCH   1  17
TORSDOF 3
ENDMDL
MODEL 8
REMARK VINA RESULT:      -4.9      8.480     10.279
REMARK  3 active torsions:
REMARK  status: ('A' for Active; 'I' for Inactive)
REMARK    1  A    between atoms: C_4  and  C_1 
REMARK    2  A    between atoms: C_11  and  C_10 
REMARK    3  A    between atoms: O_20  and  C_11 
ROOT
ATOM      1  C   UNL d   1     -47.979  12.803  23.047  0.00  0.00     0.004 A 
ATOM      2  C   UNL d   1     -46.623  12.407  23.250  0.00  0.00     0.102 A 
ATOM      3  C   UNL d   1     -47.425  12.217  23.209  0.00  0.00     0.023 A 
ATOM      4  O   UNL d   1     -46.376  13.184  23.129  0.00  0.00    -0.307 OA
ATOM      5  C   UNL d   1     -46.932  13.769  22.967  0.00  0.00     0.102 A 
ATOM      6  C   UNL d   1     -47.733  13.579  22.926  0.00  0.00     0.023 A 
ATOM      7  C   UNL d   1     -46.067  11.822  23.412  0.00  0.00     0.046 A 
ATOM      8  C   UNL d   1     -47.671  11.441  23.330  0.00  0.00     0.004 A 
ATOM      9  C   UNL d   1     -46.685  14.546  22.846  0.00  0.00     0.046 A 
ATOM     10  C   UNL d   1     -46.313  11.041  23.534  0.00  0.00     0.105 A 
ATOM     11  C   UNL d   1     -47.115  10.851  23.493  0.00  0.00     0.021 A 
ATOM     12  C   UNL d   1     -48.288  14.165  22.764  0.00  0.00     0.004 A 
ATOM     13  N   UNL d   1     -45.756  10.447  23.698  0.00  0.00    -0.148 N 
ATOM     14  C   UNL d   1     -47.242  15.139  22.682  0.00  0.00     0.105 A 
ATOM     15  C   UNL d   1     -48.044  14.948  22.641  0.00  0.00     0.021 A 
ATOM     16  N   UNL d   1     -46.996  15.919  22.560  0.00  0.00    -0.148 N 
ENDROOT
BRANCH   1  17
ATOM     17  C   UNL d   1     -48.781  12.613  23.006  0.00  0.00     0.005 A 
ATOM     18  C   UNL d   1     -49.132  12.456  22.278  0.00  0.00     0.063 A 
ATOM     19  C   UNL d   1     -49.937  12.265  22.237  0.00  0.00     0.005 A 
ATOM     20  C   UNL d   1     -50.389  12.231  22.924  0.00  0.00     0.000 A 
ATOM     21  C   UNL d   1     -50.039  12.388  23.657  0.00  0.00     0.000 A 
ATOM     22  C   UNL d   1     -49.234  12.579  23.698  0.00  0.00     0.000 A 
BRANCH  18  23
ATOM     23  C   UNL d   1     -49.034  12.392  21.435  0.00  0.00     0.296 C 
ATOM     24  O   UNL d   1     -49.824  12.157  21.021  0.00  0.00    -0.259 OA
BRANCH  23  25
ATOM     25  O   UNL d   1     -48.676  12.399  20.671  0.00  0.00    -0.296 OA
ATOM     26  C   UNL d   1     -48.574  11.681  20.039  0.00  0.00     0.185 C 
ENDBRANCH  23  25
ENDBRANCH  18  23
ENDBRANCH   1  17
TORSDOF 3
ENDMDL
MODEL 9
REMARK VINA RESULT:      -4.6      8.582     10.037
REMARK  3 active torsions:
REMARK  status: ('A' for Active; 'I' for Inactive)
REMARK    1  A    between atoms: C_4  and  C_1 
REMARK    2  A    between atoms: C_11  and  C_10 
REMARK    3  A    between atoms: O_20  and  C_11 
ROOT
ATOM      1  C   UNL d   1     -47.954  12.578  23.108  0.00  0.00     0.004 A 
ATOM      2  C   UNL d   1     -48.816  11.529  23.550  0.00  0.00     0.102 A 
ATOM      3  C   UNL d   1     -48.712  12.293  23.255  0.00  0.00     0.023 A 
ATOM      4  O   UNL d   1     -48.161  11.051  23.697  0.00  0.00    -0.307 OA
ATOM      5  C   UNL d   1     -47.404  11.337  23.550  0.00  0.00     0.102 A 
ATOM      6  C   UNL d   1     -47.300  12.100  23.255  0.00  0.00     0.023 A 
ATOM      7  C   UNL d   1     -49.573  11.243  23.697  0.00  0.00     0.046 A 
ATOM      8  C   UNL d   1     -49.366  12.770  23.108  0.00  0.00     0.004 A 
ATOM      9  C   UNL d   1     -46.749  10.858  23.697  0.00  0.00     0.046 A 
ATOM     10  C   UNL d   1     -50.232  11.722  23.550  0.00  0.00     0.105 A 
ATOM     11  C   UNL d   1     -50.128  12.485  23.255  0.00  0.00     0.021 A 
ATOM     12  C   UNL d   1     -46.542  12.386  23.108  0.00  0.00     0.004 A 
ATOM     13  N   UNL d   1     -50.998  11.437  23.697  0.00  0.00    -0.148 N 
ATOM     14  C   UNL d   1     -45.984  11.143  23.550  0.00  0.00     0.105 A 
ATOM     15  C   UNL d   1     -45.880  11.907  23.256  0.00  0.00     0.021 A 
ATOM     16  N   UNL d   1     -45.326  10.665  23.697  0.00  0.00    -0.148 N 
ENDROOT
BRANCH   1  17
ATOM     17  C   UNL d   1     -47.850  13.341  22.814  0.00  0.00     0.005 A 
ATOM     18  C   UNL d   1     -47.836  13.472  22.001  0.00  0.00     0.063 A 
ATOM     19  C   UNL d   1     -47.732  14.240  21.706  0.00  0.00     0.005 A 
ATOM     20  C   UNL d   1     -47.641  14.873  22.223  0.00  0.00     0.000 A 
ATOM     21  C   UNL d   1     -47.654  14.744  23.040  0.00  0.00     0.000 A 
ATOM     22  C   UNL d   1     -47.759  13.977  23.336  0.00  0.00     0.000 A 
BRANCH  18  23
ATOM     23  C   UNL d   1     -47.887  13.137  21.221  0.00  0.00     0.296 C 
ATOM     24  O   UNL d   1     -48.529  13.561  20.714  0.00  0.00    -0.259 OA
BRANCH  23  25
ATOM     25  O   UNL d   1     -47.734  12.644  20.554  0.00  0.00    -0.296 OA
ATOM     26  C   UNL d   1     -48.346  12.113  20.036  0.00  0.00     0.185 C 
ENDBRANCH  23  25
ENDBRANCH  18  23
ENDBRANCH   1  17
TORSDOF 3
ENDMDL
