MODEL 1
REMARK VINA RESULT:       0.1      0.000      0.000
REMARK  6 active torsions:
REMARK  status: ('A' for Active; 'I' for Inactive)
REMARK    1  A    between atoms: N_3  and  S_1 
REMARK    2  A    between atoms: C_7  and  S_1 
REMARK    3  A    between atoms: C_2  and  N_3 
REMARK    4  A    between atoms: N_8  and  C_5 
REMARK    5  A    between atoms: C_20  and  N_8 
REMARK    6  A    between atoms: C_13  and  C_20 
ROOT
ATOM      1  C   UNL d   1      32.853  20.660 -22.478  0.00  0.00     0.211 A 
ATOM      2  N   UNL d   1      32.723  20.494 -21.671  0.00  0.00    -0.222 NA
ATOM      3  C   UNL d   1      32.809  21.449 -22.746  0.00  0.00     0.200 A 
ATOM      4  N   UNL d   1      32.640  22.043 -22.214  0.00  0.00    -0.223 NA
ATOM      5  C   UNL d   1      32.551  21.100 -21.137  0.00  0.00     0.101 A 
ATOM      6  C   UNL d   1      32.511  21.884 -21.420  0.00  0.00     0.101 A 
ATOM      7  C   UNL d   1      32.334  22.514 -20.874  0.00  0.00     0.021 A 
ATOM      8  C   UNL d   1      32.418  20.939 -20.316  0.00  0.00     0.021 A 
ATOM      9  C   UNL d   1      32.206  22.329 -20.066  0.00  0.00     0.002 A 
ATOM     10  C   UNL d   1      32.250  21.540 -19.797  0.00  0.00     0.002 A 
ENDROOT
BRANCH   1  11
ATOM     11  N   UNL d   1      33.015  20.122 -23.003  0.00  0.00    -0.136 NA
BRANCH  11  12
ATOM     12  S   UNL d   1      32.876  19.331 -22.924  0.00  0.00     0.287 S 
ATOM     13  O   UNL d   1      32.815  18.512 -22.659  0.00  0.00    -0.198 OA
ATOM     14  O   UNL d   1      33.235  19.562 -22.243  0.00  0.00    -0.198 OA
BRANCH  12  15
ATOM     15  C   UNL d   1      32.528  18.814 -23.442  0.00  0.00     0.105 A 
ATOM     16  C   UNL d   1      32.793  18.761 -24.213  0.00  0.00     0.013 A 
ATOM     17  C   UNL d   1      32.447  18.231 -24.771  0.00  0.00     0.001 A 
ATOM     18  C   UNL d   1      31.806  17.743 -24.516  0.00  0.00     0.000 A 
ATOM     19  C   UNL d   1      31.533  17.789 -23.746  0.00  0.00     0.001 A 
ATOM     20  C   UNL d   1      31.435  17.213 -25.015  0.00  0.00     0.000 C 
ATOM     21  C   UNL d   1      31.894  18.328 -23.200  0.00  0.00     0.013 A 
ENDBRANCH  12  15
ENDBRANCH  11  12
ENDBRANCH   1  11
BRANCH   3  22
ATOM     22  N   UNL d   1      32.939  21.567 -23.517  0.00  0.00    -0.221 NA
BRANCH  22  23
ATOM     23  C   UNL d   1      33.241  22.183 -23.903  0.00  0.00     0.125 C 
BRANCH  23  24
ATOM     24  C   UNL d   1      32.769  22.626 -24.353  0.00  0.00     0.119 A 
ATOM     25  O   UNL d   1      32.100  22.397 -24.699  0.00  0.00    -0.304 OA
ATOM     26  C   UNL d   1      31.808  22.998 -25.088  0.00  0.00     0.123 A 
ATOM     27  C   UNL d   1      32.291  23.613 -24.992  0.00  0.00     0.029 A 
ATOM     28  C   UNL d   1      32.887  23.383 -24.536  0.00  0.00     0.028 A 
ENDBRANCH  23  24
ENDBRANCH  22  23
ENDBRANCH   3  22
TORSDOF 6
ENDMDL
MODEL 2
REMARK VINA RESULT:       1.1      2.198      5.319
REMARK  6 active torsions:
REMARK  status: ('A' for Active; 'I' for Inactive)
REMARK    1  A    between atoms: N_3  and  S_1 
REMARK    2  A    between atoms: C_7  and  S_1 
REMARK    3  A    between atoms: C_2  and  N_3 
REMARK    4  A    between atoms: N_8  and  C_5 
REMARK    5  A    between atoms: C_20  and  N_8 
REMARK    6  A    between atoms: C_13  and  C_20 
ROOT
ATOM      1  C   UNL d   1      31.656  17.991 -24.393  0.00  0.00     0.211 A 
ATOM      2  N   UNL d   1      30.999  18.494 -24.499  0.00  0.00    -0.222 NA
ATOM      3  C   UNL d   1      31.547  17.164 -24.418  0.00  0.00     0.200 A 
ATOM      4  N   UNL d   1      30.800  16.863 -24.545  0.00  0.00    -0.223 NA
ATOM      5  C   UNL d   1      30.245  18.183 -24.627  0.00  0.00     0.101 A 
ATOM      6  C   UNL d   1      30.152  17.354 -24.649  0.00  0.00     0.101 A 
ATOM      7  C   UNL d   1      29.376  17.027 -24.781  0.00  0.00     0.021 A 
ATOM      8  C   UNL d   1      29.573  18.687 -24.735  0.00  0.00     0.021 A 
ATOM      9  C   UNL d   1      28.726  17.548 -24.885  0.00  0.00     0.002 A 
ATOM     10  C   UNL d   1      28.835  18.374 -24.861  0.00  0.00     0.002 A 
ENDROOT
BRANCH   1  11
ATOM     11  N   UNL d   1      32.372  18.244 -24.272  0.00  0.00    -0.136 NA
BRANCH  11  12
ATOM     12  S   UNL d   1      32.592  19.018 -24.206  0.00  0.00     0.287 S 
ATOM     13  O   UNL d   1      32.815  19.841 -24.340  0.00  0.00    -0.198 OA
ATOM     14  O   UNL d   1      32.510  18.876 -24.994  0.00  0.00    -0.198 OA
BRANCH  12  15
ATOM     15  C   UNL d   1      32.750  19.456 -23.543  0.00  0.00     0.105 A 
ATOM     16  C   UNL d   1      32.933  20.250 -23.605  0.00  0.00     0.013 A 
ATOM     17  C   UNL d   1      33.102  20.726 -22.930  0.00  0.00     0.001 A 
ATOM     18  C   UNL d   1      33.078  20.363 -22.168  0.00  0.00     0.000 A 
ATOM     19  C   UNL d   1      32.896  19.568 -22.094  0.00  0.00     0.001 A 
ATOM     20  C   UNL d   1      33.233  20.778 -21.481  0.00  0.00     0.000 C 
ATOM     21  C   UNL d   1      32.729  19.106 -22.786  0.00  0.00     0.013 A 
ENDBRANCH  12  15
ENDBRANCH  11  12
ENDBRANCH   1  11
BRANCH   3  22
ATOM     22  N   UNL d   1      32.193  16.720 -24.313  0.00  0.00    -0.221 NA
BRANCH  22  23
ATOM     23  C   UNL d   1      32.274  15.959 -24.130  0.00  0.00     0.125 C 
BRANCH  23  24
ATOM     24  C   UNL d   1      32.493  15.758 -23.399  0.00  0.00     0.119 A 
ATOM     25  O   UNL d   1      33.228  15.639 -23.145  0.00  0.00    -0.304 OA
ATOM     26  C   UNL d   1      33.199  15.453 -22.395  0.00  0.00     0.123 A 
ATOM     27  C   UNL d   1      32.445  15.453 -22.169  0.00  0.00     0.029 A 
ATOM     28  C   UNL d   1      32.006  15.642 -22.791  0.00  0.00     0.028 A 
ENDBRANCH  23  24
ENDBRANCH  22  23
ENDBRANCH   3  22
TORSDOF 6
ENDMDL
MODEL 3
REMARK VINA RESULT:       1.5      2.653      4.781
REMARK  6 active torsions:
REMARK  status: ('A' for Active; 'I' for Inactive)
REMARK    1  A    between atoms: N_3  and  S_1 
REMARK    2  A    between atoms: C_7  and  S_1 
REMARK    3  A    between atoms: C_2  and  N_3 
REMARK    4  A    between atoms: N_8  and  C_5 
REMARK    5  A    between atoms: C_20  and  N_8 
REMARK    6  A    between atoms: C_13  and  C_20 
ROOT
ATOM      1  C   UNL d   1      32.526  22.728 -20.937  0.00  0.00     0.211 A 
ATOM      2  N   UNL d   1      32.472  22.022 -21.377  0.00  0.00    -0.222 NA
ATOM      3  C   UNL d   1      32.819  22.703 -20.157  0.00  0.00     0.200 A 
ATOM      4  N   UNL d   1      33.048  21.988 -19.839  0.00  0.00    -0.223 NA
ATOM      5  C   UNL d   1      32.706  21.301 -21.050  0.00  0.00     0.101 A 
ATOM      6  C   UNL d   1      32.997  21.292 -20.268  0.00  0.00     0.101 A 
ATOM      7  C   UNL d   1      33.241  20.550 -19.925  0.00  0.00     0.021 A 
ATOM      8  C   UNL d   1      32.655  20.580 -21.492  0.00  0.00     0.021 A 
ATOM      9  C   UNL d   1      33.180  19.850 -20.383  0.00  0.00     0.002 A 
ATOM     10  C   UNL d   1      32.887  19.875 -21.163  0.00  0.00     0.002 A 
ENDROOT
BRANCH   1  11
ATOM     11  N   UNL d   1      32.317  23.417 -21.209  0.00  0.00    -0.136 NA
BRANCH  11  12
ATOM     12  S   UNL d   1      31.900  23.549 -21.887  0.00  0.00     0.287 S 
ATOM     13  O   UNL d   1      31.296  23.702 -22.484  0.00  0.00    -0.198 OA
ATOM     14  O   UNL d   1      31.364  23.575 -21.288  0.00  0.00    -0.198 OA
BRANCH  12  15
ATOM     15  C   UNL d   1      32.159  23.583 -22.654  0.00  0.00     0.105 A 
ATOM     16  C   UNL d   1      31.623  23.621 -23.270  0.00  0.00     0.013 A 
ATOM     17  C   UNL d   1      31.867  23.657 -24.076  0.00  0.00     0.001 A 
ATOM     18  C   UNL d   1      32.695  23.653 -24.245  0.00  0.00     0.000 A 
ATOM     19  C   UNL d   1      33.240  23.615 -23.635  0.00  0.00     0.001 A 
ATOM     20  C   UNL d   1      32.986  23.686 -25.007  0.00  0.00     0.000 C 
ATOM     21  C   UNL d   1      32.974  23.579 -22.830  0.00  0.00     0.013 A 
ENDBRANCH  12  15
ENDBRANCH  11  12
ENDBRANCH   1  11
BRANCH   3  22
ATOM     22  N   UNL d   1      32.854  23.392 -19.771  0.00  0.00    -0.221 NA
BRANCH  22  23
ATOM     23  C   UNL d   1      33.234  23.599 -19.113  0.00  0.00     0.125 C 
BRANCH  23  24
ATOM     24  C   UNL d   1      32.858  23.559 -18.421  0.00  0.00     0.119 A 
ATOM     25  O   UNL d   1      32.080  23.591 -18.307  0.00  0.00    -0.304 OA
ATOM     26  C   UNL d   1      31.942  23.533 -17.549  0.00  0.00     0.123 A 
ATOM     27  C   UNL d   1      32.632  23.464 -17.176  0.00  0.00     0.029 A 
ATOM     28  C   UNL d   1      33.201  23.480 -17.716  0.00  0.00     0.028 A 
ENDBRANCH  23  24
ENDBRANCH  22  23
ENDBRANCH   3  22
TORSDOF 6
ENDMDL
MODEL 4
REMARK VINA RESULT:       3.0      2.601      4.808
REMARK  6 active torsions:
REMARK  status: ('A' for Active; 'I' for Inactive)
REMARK    1  A    between atoms: N_3  and  S_1 
REMARK    2  A    between atoms: C_7  and  S_1 
REMARK    3  A    between atoms: C_2  and  N_3 
REMARK    4  A    between atoms: N_8  and  C_5 
REMARK    5  A    between atoms: C_20  and  N_8 
REMARK    6  A    between atoms: C_13  and  C_20 
ROOT
ATOM      1  C   UNL d   1      31.029  17.757 -24.097  0.00  0.00     0.211 A 
ATOM      2  N   UNL d   1      31.059  16.978 -24.392  0.00  0.00    -0.222 NA
ATOM      3  C   UNL d   1      31.737  18.188 -24.004  0.00  0.00     0.200 A 
ATOM      4  N   UNL d   1      32.446  17.839 -24.204  0.00  0.00    -0.223 NA
ATOM      5  C   UNL d   1      31.780  16.630 -24.594  0.00  0.00     0.101 A 
ATOM      6  C   UNL d   1      32.480  17.073 -24.495  0.00  0.00     0.101 A 
ATOM      7  C   UNL d   1      33.228  16.719 -24.701  0.00  0.00     0.021 A 
ATOM      8  C   UNL d   1      31.818  15.839 -24.895  0.00  0.00     0.021 A 
ATOM      9  C   UNL d   1      33.239  15.934 -24.997  0.00  0.00     0.002 A 
ATOM     10  C   UNL d   1      32.531  15.503 -25.090  0.00  0.00     0.002 A 
ENDROOT
BRANCH   1  11
ATOM     11  N   UNL d   1      30.376  18.113 -23.899  0.00  0.00    -0.136 NA
BRANCH  11  12
ATOM     12  S   UNL d   1      29.651  17.983 -24.229  0.00  0.00     0.287 S 
ATOM     13  O   UNL d   1      28.942  17.976 -24.721  0.00  0.00    -0.198 OA
ATOM     14  O   UNL d   1      30.023  18.508 -24.711  0.00  0.00    -0.198 OA
BRANCH  12  15
ATOM     15  C   UNL d   1      29.047  17.505 -23.976  0.00  0.00     0.105 A 
ATOM     16  C   UNL d   1      28.577  17.730 -23.346  0.00  0.00     0.013 A 
ATOM     17  C   UNL d   1      27.944  17.250 -23.065  0.00  0.00     0.001 A 
ATOM     18  C   UNL d   1      27.797  16.514 -23.452  0.00  0.00     0.000 A 
ATOM     19  C   UNL d   1      28.262  16.279 -24.083  0.00  0.00     0.001 A 
ATOM     20  C   UNL d   1      27.196  16.011 -23.219  0.00  0.00     0.000 C 
ATOM     21  C   UNL d   1      28.894  16.776 -24.351  0.00  0.00     0.013 A 
ENDBRANCH  12  15
ENDBRANCH  11  12
ENDBRANCH   1  11
BRANCH   3  22
ATOM     22  N   UNL d   1      31.669  18.923 -23.721  0.00  0.00    -0.221 NA
BRANCH  22  23
ATOM     23  C   UNL d   1      32.176  19.525 -23.714  0.00  0.00     0.125 C 
BRANCH  23  24
ATOM     24  C   UNL d   1      32.484  19.763 -23.028  0.00  0.00     0.119 A 
ATOM     25  O   UNL d   1      33.114  19.461 -22.667  0.00  0.00    -0.304 OA
ATOM     26  C   UNL d   1      33.230  19.853 -22.010  0.00  0.00     0.123 A 
ATOM     27  C   UNL d   1      32.673  20.407 -21.952  0.00  0.00     0.029 A 
ATOM     28  C   UNL d   1      32.210  20.352 -22.583  0.00  0.00     0.028 A 
ENDBRANCH  23  24
ENDBRANCH  22  23
ENDBRANCH   3  22
TORSDOF 6
ENDMDL
MODEL 5
REMARK VINA RESULT:       3.1      3.195      5.073
REMARK  6 active torsions:
REMARK  status: ('A' for Active; 'I' for Inactive)
REMARK    1  A    between atoms: N_3  and  S_1 
REMARK    2  A    between atoms: C_7  and  S_1 
REMARK    3  A    between atoms: C_2  and  N_3 
REMARK    4  A    between atoms: N_8  and  C_5 
REMARK    5  A    between atoms: C_20  and  N_8 
REMARK    6  A    between atoms: C_13  and  C_20 
ROOT
ATOM      1  C   UNL d   1      31.330  18.003 -24.884  0.00  0.00     0.211 A 
ATOM      2  N   UNL d   1      31.194  18.817 -24.999  0.00  0.00    -0.222 NA
ATOM      3  C   UNL d   1      32.107  17.732 -24.748  0.00  0.00     0.200 A 
ATOM      4  N   UNL d   1      32.720  18.269 -24.730  0.00  0.00    -0.223 NA
ATOM      5  C   UNL d   1      31.820  19.357 -24.980  0.00  0.00     0.101 A 
ATOM      6  C   UNL d   1      32.591  19.070 -24.843  0.00  0.00     0.101 A 
ATOM      7  C   UNL d   1      33.241  19.622 -24.822  0.00  0.00     0.021 A 
ATOM      8  C   UNL d   1      31.689  20.185 -25.096  0.00  0.00     0.021 A 
ATOM      9  C   UNL d   1      33.086  20.439 -24.940  0.00  0.00     0.002 A 
ATOM     10  C   UNL d   1      32.309  20.710 -25.076  0.00  0.00     0.002 A 
ENDROOT
BRANCH   1  11
ATOM     11  N   UNL d   1      30.773  17.472 -24.895  0.00  0.00    -0.136 NA
BRANCH  11  12
ATOM     12  S   UNL d   1      29.994  17.604 -24.727  0.00  0.00     0.287 S 
ATOM     13  O   UNL d   1      29.198  17.924 -24.637  0.00  0.00    -0.198 OA
ATOM     14  O   UNL d   1      30.257  18.268 -25.097  0.00  0.00    -0.198 OA
BRANCH  12  15
ATOM     15  C   UNL d   1      29.457  17.122 -24.359  0.00  0.00     0.105 A 
ATOM     16  C   UNL d   1      29.007  17.404 -23.738  0.00  0.00     0.013 A 
ATOM     17  C   UNL d   1      28.442  16.923 -23.339  0.00  0.00     0.001 A 
ATOM     18  C   UNL d   1      28.343  16.123 -23.595  0.00  0.00     0.000 A 
ATOM     19  C   UNL d   1      28.790  15.831 -24.216  0.00  0.00     0.001 A 
ATOM     20  C   UNL d   1      27.810  15.614 -23.243  0.00  0.00     0.000 C 
ATOM     21  C   UNL d   1      29.353  16.332 -24.604  0.00  0.00     0.013 A 
ENDBRANCH  12  15
ENDBRANCH  11  12
ENDBRANCH   1  11
BRANCH   3  22
ATOM     22  N   UNL d   1      32.196  16.953 -24.643  0.00  0.00    -0.221 NA
BRANCH  22  23
ATOM     23  C   UNL d   1      32.801  16.533 -24.364  0.00  0.00     0.125 C 
BRANCH  23  24
ATOM     24  C   UNL d   1      32.727  16.164 -23.671  0.00  0.00     0.119 A 
ATOM     25  O   UNL d   1      33.240  16.180 -23.075  0.00  0.00    -0.304 OA
ATOM     26  C   UNL d   1      32.959  15.746 -22.500  0.00  0.00     0.123 A 
ATOM     27  C   UNL d   1      32.265  15.453 -22.729  0.00  0.00     0.029 A 
ATOM     28  C   UNL d   1      32.120  15.711 -23.455  0.00  0.00     0.028 A 
ENDBRANCH  23  24
ENDBRANCH  22  23
ENDBRANCH   3  22
TORSDOF 6
ENDMDL
