MODEL 1
REMARK VINA RESULT:       8.4      0.000      0.000
REMARK  3 active torsions:
REMARK  status: ('A' for Active; 'I' for Inactive)
REMARK    1  A    between atoms: C_6  and  C_2 
REMARK       I    between atoms: N_8  and  C_6 
REMARK    2  A    between atoms: C_14  and  N_8 
REMARK    3  A    between atoms: C_15  and  C_14 
ROOT
ATOM      1  N   UNL d   1      23.680  12.429  -2.693  0.00  0.00    -0.252 N 
ATOM      2  C   UNL d   1      23.490  12.369  -1.282  0.00  0.00     0.133 A 
ATOM      3  C   UNL d   1      23.211  12.567  -2.031  0.00  0.00     0.272 A 
ATOM      4  C   UNL d   1      24.428  12.092  -2.606  0.00  0.00     0.182 A 
ATOM      5  N   UNL d   1      24.708  11.894  -1.858  0.00  0.00    -0.220 NA
ATOM      6  C   UNL d   1      24.238  12.033  -1.195  0.00  0.00     0.111 A 
ATOM      7  S   UNL d   1      24.768  12.019  -3.359  0.00  0.00    -0.048 SA
ATOM      8  O   UNL d   1      22.463  12.904  -2.117  0.00  0.00    -0.266 OA
ATOM      9  C   UNL d   1      23.558  12.564  -3.499  0.00  0.00     0.092 A 
ATOM     10  C   UNL d   1      24.231  12.310  -3.903  0.00  0.00     0.057 A 
ENDROOT
BRANCH   2  11
ATOM     11  C   UNL d   1      23.020  12.507  -0.607  0.00  0.00     0.285 C 
ATOM     12  N   UNL d   1      23.285  13.024  -0.019  0.00  0.00    -0.208 NA
ATOM     13  O   UNL d   1      22.292  12.125  -0.532  0.00  0.00    -0.265 OA
BRANCH  12  14
ATOM     14  C   UNL d   1      24.013  13.405  -0.098  0.00  0.00     0.085 C 
ATOM     15  C   UNL d   1      24.712  12.959  -0.152  0.00  0.00     0.021 C 
BRANCH  14  16
ATOM     16  C   UNL d   1      24.045  14.227  -0.121  0.00  0.00     0.019 C 
ATOM     17  C   UNL d   1      24.768  14.618  -0.015  0.00  0.00     0.002 C 
ENDBRANCH  14  16
ENDBRANCH  12  14
ENDBRANCH   2  11
TORSDOF 3
ENDMDL
