MODEL 1
REMARK VINA RESULT:      12.0      0.000      0.000
REMARK  2 active torsions:
REMARK  status: ('A' for Active; 'I' for Inactive)
REMARK    1  A    between atoms: C_5  and  C_1 
REMARK    2  A    between atoms: C_7  and  C_5 
ROOT
ATOM      1  C   UNL d   1      45.188 -13.065  44.054  0.00  0.00     0.061 A 
ATOM      2  C   UNL d   1      44.439 -12.812  44.227  0.00  0.00     0.102 A 
ATOM      3  N   UNL d   1      44.142 -12.396  43.573  0.00  0.00    -0.244 NA
ATOM      4  C   UNL d   1      45.373 -12.815  43.297  0.00  0.00     0.022 A 
ATOM      5  C   UNL d   1      44.729 -12.403  43.001  0.00  0.00     0.082 A 
ATOM      6  C   UNL d   1      46.055 -12.915  42.839  0.00  0.00     0.002 A 
ATOM      7  C   UNL d   1      44.751 -12.080  42.239  0.00  0.00     0.019 A 
ATOM      8  C   UNL d   1      46.075 -12.592  42.080  0.00  0.00     0.000 A 
ATOM      9  C   UNL d   1      45.432 -12.180  41.784  0.00  0.00     0.002 A 
ENDROOT
BRANCH   1  10
ATOM     10  C   UNL d   1      45.685 -13.512  44.579  0.00  0.00     0.215 C 
ATOM     11  O   UNL d   1      46.321 -13.150  44.948  0.00  0.00    -0.285 OA
BRANCH  10  12
ATOM     12  C   UNL d   1      45.512 -14.316  44.706  0.00  0.00     0.120 A 
ATOM     13  N   UNL d   1      44.730 -14.554  44.813  0.00  0.00    -0.241 NA
ATOM     14  C   UNL d   1      44.574 -15.355  44.938  0.00  0.00     0.099 A 
ATOM     15  C   UNL d   1      45.191 -15.904  44.955  0.00  0.00     0.021 A 
ATOM     16  C   UNL d   1      45.962 -15.655  44.847  0.00  0.00     0.003 A 
ATOM     17  C   UNL d   1      46.127 -14.868  44.723  0.00  0.00     0.022 A 
ENDBRANCH  10  12
ENDBRANCH   1  10
TORSDOF 2
ENDMDL
