MODEL 1
REMARK VINA RESULT:     114.0      0.000      0.000
REMARK  7 active torsions:
REMARK  status: ('A' for Active; 'I' for Inactive)
REMARK    1  A    between atoms: C_20  and  N_1 
REMARK       I    between atoms: C_6  and  N_7 
REMARK    2  A    between atoms: C_10  and  C_6 
REMARK    3  A    between atoms: N_7  and  C_24 
REMARK    4  A    between atoms: C_9  and  N_7 
REMARK    5  A    between atoms: O_29  and  C_11 
REMARK    6  A    between atoms: C_23  and  C_20 
REMARK    7  A    between atoms: C_24  and  C_23 
ROOT
ATOM      1  C   UNL d   1      59.162  49.704  52.139  0.00  0.00     0.085 C 
ENDROOT
BRANCH   1   2
ATOM      2  N   UNL d   1      58.364  49.696  51.966  0.00  0.00    -0.271 N 
ATOM      3  C   UNL d   1      57.815  49.691  52.585  0.00  0.00     0.271 C 
ATOM      4  O   UNL d   1      57.012  49.683  52.414  0.00  0.00    -0.266 OA
BRANCH   3   5
ATOM      5  C   UNL d   1      58.074  49.694  53.368  0.00  0.00     0.086 A 
ATOM      6  S   UNL d   1      58.857  49.692  53.638  0.00  0.00    -0.082 SA
ATOM      7  C   UNL d   1      58.852  49.697  54.438  0.00  0.00     0.036 A 
ATOM      8  C   UNL d   1      58.093  49.702  54.703  0.00  0.00     0.008 A 
ATOM      9  C   UNL d   1      57.582  49.700  54.025  0.00  0.00     0.012 A 
ENDBRANCH   3   5
BRANCH   2  10
ATOM     10  C   UNL d   1      58.106  49.693  51.187  0.00  0.00     0.089 A 
ATOM     11  C   UNL d   1      57.293  49.694  51.010  0.00  0.00     0.110 A 
ATOM     12  C   UNL d   1      57.037  49.691  50.236  0.00  0.00     0.026 A 
ATOM     13  C   UNL d   1      57.585  49.686  49.613  0.00  0.00     0.002 A 
ATOM     14  C   UNL d   1      58.384  49.685  49.790  0.00  0.00     0.002 A 
ATOM     15  C   UNL d   1      57.325  49.683  48.830  0.00  0.00     0.000 C 
ATOM     16  C   UNL d   1      58.640  49.688  50.564  0.00  0.00     0.020 A 
BRANCH  11  17
ATOM     17  O   UNL d   1      56.748  49.699  51.614  0.00  0.00    -0.327 OA
ATOM     18  C   UNL d   1      56.191  49.104  51.665  0.00  0.00     0.181 C 
ENDBRANCH  11  17
ENDBRANCH   2  10
ENDBRANCH   1   2
BRANCH   1  19
ATOM     19  C   UNL d   1      59.723  49.427  51.569  0.00  0.00     0.038 C 
BRANCH  19  20
ATOM     20  C   UNL d   1      60.415  49.037  51.810  0.00  0.00     0.088 C 
BRANCH  20  21
ATOM     21  N   UNL d   1      60.717  48.385  51.346  0.00  0.00    -0.240 N 
ATOM     22  C   UNL d   1      61.040  48.520  50.599  0.00  0.00     0.267 A 
ATOM     23  C   UNL d   1      61.334  47.896  50.143  0.00  0.00     0.057 A 
ATOM     24  O   UNL d   1      61.077  49.311  50.281  0.00  0.00    -0.267 OA
ATOM     25  C   UNL d   1      61.651  48.028  49.411  0.00  0.00     0.005 A 
ATOM     26  C   UNL d   1      61.295  47.126  50.459  0.00  0.00     0.009 A 
ATOM     27  C   UNL d   1      61.945  47.396  48.958  0.00  0.00     0.000 A 
ATOM     28  C   UNL d   1      61.905  46.639  49.272  0.00  0.00     0.000 A 
ATOM     29  C   UNL d   1      61.589  46.507  50.003  0.00  0.00     0.000 A 
ATOM     30  C   UNL d   1      61.549  45.741  50.320  0.00  0.00     0.000 A 
ATOM     31  C   UNL d   1      61.226  45.606  51.067  0.00  0.00     0.000 A 
ATOM     32  C   UNL d   1      60.934  46.235  51.516  0.00  0.00     0.005 A 
ATOM     33  C   UNL d   1      60.972  46.992  51.206  0.00  0.00     0.057 A 
ATOM     34  C   UNL d   1      60.680  47.624  51.656  0.00  0.00     0.267 A 
ATOM     35  O   UNL d   1      60.351  47.488  52.415  0.00  0.00    -0.267 OA
ENDBRANCH  20  21
ENDBRANCH  19  20
ENDBRANCH   1  19
TORSDOF 7
ENDMDL
MODEL 2
REMARK VINA RESULT:     116.4      1.724      3.252
REMARK  7 active torsions:
REMARK  status: ('A' for Active; 'I' for Inactive)
REMARK    1  A    between atoms: C_20  and  N_1 
REMARK       I    between atoms: C_6  and  N_7 
REMARK    2  A    between atoms: C_10  and  C_6 
REMARK    3  A    between atoms: N_7  and  C_24 
REMARK    4  A    between atoms: C_9  and  N_7 
REMARK    5  A    between atoms: O_29  and  C_11 
REMARK    6  A    between atoms: C_23  and  C_20 
REMARK    7  A    between atoms: C_24  and  C_23 
ROOT
ATOM      1  C   UNL d   1      59.668  48.048  50.526  0.00  0.00     0.085 C 
ENDROOT
BRANCH   1   2
ATOM      2  N   UNL d   1      59.586  48.682  51.034  0.00  0.00    -0.271 N 
ATOM      3  C   UNL d   1      58.857  49.069  51.085  0.00  0.00     0.271 C 
ATOM      4  O   UNL d   1      58.773  49.706  51.595  0.00  0.00    -0.266 OA
BRANCH   3   5
ATOM      5  C   UNL d   1      58.220  48.815  50.626  0.00  0.00     0.086 A 
ATOM      6  S   UNL d   1      57.888  49.199  49.972  0.00  0.00    -0.082 SA
ATOM      7  C   UNL d   1      57.282  48.756  49.696  0.00  0.00     0.036 A 
ATOM      8  C   UNL d   1      57.204  48.094  50.146  0.00  0.00     0.008 A 
ATOM      9  C   UNL d   1      57.802  48.119  50.748  0.00  0.00     0.012 A 
ENDBRANCH   3   5
BRANCH   2  10
ATOM     10  C   UNL d   1      60.220  48.934  51.491  0.00  0.00     0.089 A 
ATOM     11  C   UNL d   1      60.870  49.316  51.139  0.00  0.00     0.110 A 
ATOM     12  C   UNL d   1      61.499  49.567  51.593  0.00  0.00     0.026 A 
ATOM     13  C   UNL d   1      61.499  49.445  52.413  0.00  0.00     0.002 A 
ATOM     14  C   UNL d   1      60.859  49.069  52.757  0.00  0.00     0.002 A 
ATOM     15  C   UNL d   1      62.136  49.699  52.873  0.00  0.00     0.000 C 
ATOM     16  C   UNL d   1      60.229  48.818  52.303  0.00  0.00     0.020 A 
BRANCH  11  17
ATOM     17  O   UNL d   1      60.879  49.440  50.334  0.00  0.00    -0.327 OA
ATOM     18  C   UNL d   1      61.560  49.707  49.971  0.00  0.00     0.181 C 
ENDBRANCH  11  17
ENDBRANCH   2  10
ENDBRANCH   1   2
BRANCH   1  19
ATOM     19  C   UNL d   1      60.094  47.359  50.771  0.00  0.00     0.038 C 
BRANCH  19  20
ATOM     20  C   UNL d   1      59.953  46.622  50.413  0.00  0.00     0.088 C 
BRANCH  20  21
ATOM     21  N   UNL d   1      60.604  46.086  50.277  0.00  0.00    -0.240 N 
ATOM     22  C   UNL d   1      61.162  46.248  49.692  0.00  0.00     0.267 A 
ATOM     23  C   UNL d   1      61.796  45.735  49.553  0.00  0.00     0.057 A 
ATOM     24  O   UNL d   1      61.095  46.953  49.215  0.00  0.00    -0.267 OA
ATOM     25  C   UNL d   1      62.343  45.893  48.980  0.00  0.00     0.005 A 
ATOM     26  C   UNL d   1      61.856  45.048  50.022  0.00  0.00     0.009 A 
ATOM     27  C   UNL d   1      62.978  45.373  48.845  0.00  0.00     0.000 A 
ATOM     28  C   UNL d   1      63.034  44.698  49.309  0.00  0.00     0.000 A 
ATOM     29  C   UNL d   1      62.487  44.540  49.882  0.00  0.00     0.000 A 
ATOM     30  C   UNL d   1      62.544  43.857  50.350  0.00  0.00     0.000 A 
ATOM     31  C   UNL d   1      61.986  43.695  50.935  0.00  0.00     0.000 A 
ATOM     32  C   UNL d   1      61.356  44.213  51.068  0.00  0.00     0.005 A 
ATOM     33  C   UNL d   1      61.297  44.887  50.607  0.00  0.00     0.057 A 
ATOM     34  C   UNL d   1      60.665  45.408  50.739  0.00  0.00     0.267 A 
ATOM     35  O   UNL d   1      60.098  45.244  51.333  0.00  0.00    -0.267 OA
ENDBRANCH  20  21
ENDBRANCH  19  20
ENDBRANCH   1  19
TORSDOF 7
ENDMDL
