MODEL 1
REMARK VINA RESULT:      19.1      0.000      0.000
REMARK  3 active torsions:
REMARK  status: ('A' for Active; 'I' for Inactive)
REMARK    1  A    between atoms: C_9  and  N_1 
REMARK    2  A    between atoms: C_2  and  C_9 
REMARK    3  A    between atoms: S_13  and  C_5 
ROOT
ATOM      1  N   UNL d   1      46.574 -18.386  43.569  0.00  0.00    -0.265 N 
ATOM      2  C   UNL d   1      46.490 -18.980  44.140  0.00  0.00     0.296 A 
ATOM      3  S   UNL d   1      46.437 -19.699  43.744  0.00  0.00    -0.025 SA
ATOM      4  C   UNL d   1      46.574 -18.730  42.826  0.00  0.00     0.074 A 
ATOM      5  C   UNL d   1      46.490 -19.543  42.926  0.00  0.00     0.050 A 
ATOM      6  O   UNL d   1      46.463 -18.867  44.955  0.00  0.00    -0.259 OA
ATOM      7  C   UNL d   1      46.640 -18.415  42.061  0.00  0.00     0.018 A 
ATOM      8  C   UNL d   1      46.471 -20.044  42.268  0.00  0.00     0.008 A 
ATOM      9  C   UNL d   1      46.622 -18.912  41.401  0.00  0.00     0.002 A 
ATOM     10  C   UNL d   1      46.536 -19.731  41.515  0.00  0.00     0.001 A 
ENDROOT
BRANCH   1  11
ATOM     11  C   UNL d   1      46.647 -17.577  43.718  0.00  0.00     0.123 C 
BRANCH  11  12
ATOM     12  C   UNL d   1      46.085 -17.188  44.166  0.00  0.00     0.189 A 
ATOM     13  N   UNL d   1      46.083 -16.369  44.198  0.00  0.00    -0.265 N 
ATOM     14  C   UNL d   1      45.462 -16.136  44.686  0.00  0.00     0.197 A 
ATOM     15  C   UNL d   1      46.604 -15.856  43.816  0.00  0.00     0.103 C 
ATOM     16  N   UNL d   1      45.080 -16.813  44.955  0.00  0.00    -0.122 NA
ATOM     17  N   UNL d   1      45.469 -17.463  44.631  0.00  0.00    -0.126 NA
BRANCH  14  18
ATOM     18  S   UNL d   1      45.256 -15.360  44.874  0.00  0.00    -0.074 SA
ATOM     19  C   UNL d   1      44.464 -15.128  44.888  0.00  0.00     0.077 C 
ENDBRANCH  14  18
ENDBRANCH  11  12
ENDBRANCH   1  11
TORSDOF 3
ENDMDL
MODEL 2
REMARK VINA RESULT:      19.8      1.601      4.361
REMARK  3 active torsions:
REMARK  status: ('A' for Active; 'I' for Inactive)
REMARK    1  A    between atoms: C_9  and  N_1 
REMARK    2  A    between atoms: C_2  and  C_9 
REMARK    3  A    between atoms: S_13  and  C_5 
ROOT
ATOM      1  N   UNL d   1      45.400 -15.363  44.822  0.00  0.00    -0.265 N 
ATOM      2  C   UNL d   1      44.575 -15.304  44.871  0.00  0.00     0.296 A 
ATOM      3  S   UNL d   1      44.381 -14.505  44.822  0.00  0.00    -0.025 SA
ATOM      4  C   UNL d   1      45.715 -14.612  44.742  0.00  0.00     0.074 A 
ATOM      5  C   UNL d   1      45.092 -14.076  44.742  0.00  0.00     0.050 A 
ATOM      6  O   UNL d   1      44.048 -15.930  44.955  0.00  0.00    -0.259 OA
ATOM      7  C   UNL d   1      46.495 -14.336  44.669  0.00  0.00     0.018 A 
ATOM      8  C   UNL d   1      45.239 -13.265  44.669  0.00  0.00     0.008 A 
ATOM      9  C   UNL d   1      46.647 -13.526  44.596  0.00  0.00     0.002 A 
ATOM     10  C   UNL d   1      46.008 -12.995  44.597  0.00  0.00     0.001 A 
ENDROOT
BRANCH   1  11
ATOM     11  C   UNL d   1      45.837 -16.063  44.847  0.00  0.00     0.123 C 
BRANCH  11  12
ATOM     12  C   UNL d   1      45.899 -16.536  44.184  0.00  0.00     0.189 A 
ATOM     13  N   UNL d   1      46.142 -17.314  44.258  0.00  0.00    -0.265 N 
ATOM     14  C   UNL d   1      46.152 -17.650  43.507  0.00  0.00     0.197 A 
ATOM     15  C   UNL d   1      46.344 -17.708  44.955  0.00  0.00     0.103 C 
ATOM     16  N   UNL d   1      45.914 -17.076  42.967  0.00  0.00    -0.122 NA
ATOM     17  N   UNL d   1      45.758 -16.387  43.390  0.00  0.00    -0.126 NA
BRANCH  14  18
ATOM     18  S   UNL d   1      46.363 -18.425  43.322  0.00  0.00    -0.074 SA
ATOM     19  C   UNL d   1      46.484 -18.652  42.537  0.00  0.00     0.077 C 
ENDBRANCH  14  18
ENDBRANCH  11  12
ENDBRANCH   1  11
TORSDOF 3
ENDMDL
