MODEL 1
REMARK VINA RESULT:       4.1      0.000      0.000
REMARK  1 active torsions:
REMARK  status: ('A' for Active; 'I' for Inactive)
REMARK    1  A    between atoms: C_2  and  S_1 
ROOT
ATOM      1  C   UNL d   1     -51.477  25.279  33.311  0.00  0.00     0.107 A 
ATOM      2  C   UNL d   1     -51.096  24.548  33.308  0.00  0.00     0.014 A 
ATOM      3  C   UNL d   1     -52.292  25.323  33.312  0.00  0.00     0.014 A 
ATOM      4  C   UNL d   1     -52.372  23.908  33.307  0.00  0.00     0.058 A 
ATOM      5  C   UNL d   1     -52.745  24.628  33.310  0.00  0.00     0.012 A 
ATOM      6  C   UNL d   1     -51.540  23.852  33.306  0.00  0.00     0.012 A 
ATOM      7 CL   UNL d   1     -52.838  23.227  33.306  0.00  0.00    -0.082 Cl
ENDROOT
BRANCH   1   8
ATOM      8  S   UNL d   1     -51.026  25.969  33.312  0.00  0.00     0.302 S 
ATOM      9  O   UNL d   1     -50.340  25.511  33.306  0.00  0.00    -0.197 OA
ATOM     10  O   UNL d   1     -51.702  26.422  33.318  0.00  0.00    -0.197 OA
ATOM     11  N   UNL d   1     -50.570  26.652  33.314  0.00  0.00    -0.043 N 
ENDBRANCH   1   8
TORSDOF 1
ENDMDL
MODEL 2
REMARK VINA RESULT:       4.9      2.309      2.561
REMARK  1 active torsions:
REMARK  status: ('A' for Active; 'I' for Inactive)
REMARK    1  A    between atoms: C_2  and  S_1 
ROOT
ATOM      1  C   UNL d   1     -52.248  24.403  33.410  0.00  0.00     0.107 A 
ATOM      2  C   UNL d   1     -51.453  24.184  33.387  0.00  0.00     0.014 A 
ATOM      3  C   UNL d   1     -52.463  25.189  33.405  0.00  0.00     0.014 A 
ATOM      4  C   UNL d   1     -51.097  25.566  33.354  0.00  0.00     0.058 A 
ATOM      5  C   UNL d   1     -51.879  25.779  33.376  0.00  0.00     0.012 A 
ATOM      6  C   UNL d   1     -50.867  24.764  33.359  0.00  0.00     0.012 A 
ATOM      7 CL   UNL d   1     -50.530  26.164  33.326  0.00  0.00    -0.082 Cl
ENDROOT
BRANCH   1   8
ATOM      8  S   UNL d   1     -52.827  23.816  33.438  0.00  0.00     0.302 S 
ATOM      9  O   UNL d   1     -53.405  24.392  33.314  0.00  0.00    -0.197 OA
ATOM     10  O   UNL d   1     -52.259  23.248  33.560  0.00  0.00    -0.197 OA
ATOM     11  N   UNL d   1     -53.410  23.238  33.465  0.00  0.00    -0.043 N 
ENDBRANCH   1   8
TORSDOF 1
ENDMDL
