MODEL 1
REMARK VINA RESULT:      44.9      0.000      0.000
REMARK  7 active torsions:
REMARK  status: ('A' for Active; 'I' for Inactive)
REMARK    1  A    between atoms: S_10  and  C_3 
REMARK    2  A    between atoms: C_12  and  C_7 
REMARK    3  A    between atoms: C_19  and  S_10 
REMARK    4  A    between atoms: C_11  and  C_19 
REMARK       I    between atoms: N_14  and  C_11 
REMARK    5  A    between atoms: C_13  and  C_15 
REMARK    6  A    between atoms: C_15  and  N_14 
REMARK    7  A    between atoms: O_21  and  C_17 
ROOT
ATOM      1  N   UNL d   1      14.742  15.380  -1.273  0.00  0.00    -0.186 N 
ATOM      2  N   UNL d   1      14.625  14.587  -1.121  0.00  0.00    -0.162 NA
ATOM      3  C   UNL d   1      14.414  15.888  -1.838  0.00  0.00     0.217 A 
ATOM      4  C   UNL d   1      15.269  15.823  -0.822  0.00  0.00     0.187 A 
ATOM      5  N   UNL d   1      14.742  16.628  -1.726  0.00  0.00    -0.120 NA
ATOM      6  N   UNL d   1      15.273  16.589  -1.097  0.00  0.00    -0.127 NA
ATOM      7  C   UNL d   1      15.041  14.226  -0.506  0.00  0.00     0.103 A 
ATOM      8  C   UNL d   1      15.687  15.457  -0.205  0.00  0.00     0.042 A 
ATOM      9  C   UNL d   1      15.573  14.665  -0.050  0.00  0.00     0.024 A 
ENDROOT
BRANCH   3  10
ATOM     10  S   UNL d   1      13.857  15.701  -2.417  0.00  0.00    -0.041 SA
BRANCH  10  11
ATOM     11  C   UNL d   1      14.061  15.240  -3.053  0.00  0.00     0.101 C 
BRANCH  11  12
ATOM     12  C   UNL d   1      13.681  15.334  -3.767  0.00  0.00     0.286 C 
ATOM     13  N   UNL d   1      13.384  14.678  -4.169  0.00  0.00    -0.206 NA
ATOM     14  O   UNL d   1      13.583  16.082  -4.105  0.00  0.00    -0.265 OA
BRANCH  13  15
ATOM     15  C   UNL d   1      13.476  13.927  -3.840  0.00  0.00     0.104 C 
BRANCH  15  16
ATOM     16  C   UNL d   1      13.367  13.257  -4.311  0.00  0.00     0.042 A 
ATOM     17  C   UNL d   1      13.124  12.543  -3.965  0.00  0.00     0.096 A 
ATOM     18  C   UNL d   1      13.013  11.869  -4.432  0.00  0.00     0.024 A 
ATOM     19  C   UNL d   1      13.149  11.918  -5.252  0.00  0.00     0.002 A 
ATOM     20  C   UNL d   1      13.391  12.631  -5.589  0.00  0.00     0.000 A 
ATOM     21  C   UNL d   1      13.500  13.297  -5.123  0.00  0.00     0.004 A 
BRANCH  17  22
ATOM     22  O   UNL d   1      12.989  12.496  -3.153  0.00  0.00    -0.328 OA
ATOM     23  C   UNL d   1      13.057  11.780  -2.765  0.00  0.00     0.181 C 
ENDBRANCH  17  22
ENDBRANCH  15  16
ENDBRANCH  13  15
ENDBRANCH  11  12
ENDBRANCH  10  11
ENDBRANCH   3  10
BRANCH   7  24
ATOM     24  C   UNL d   1      14.918  13.422  -0.357  0.00  0.00     0.039 A 
ATOM     25  C   UNL d   1      15.534  12.937  -0.162  0.00  0.00     0.101 A 
ATOM     26  N   UNL d   1      15.408  12.149  -0.017  0.00  0.00    -0.242 NA
ATOM     27  C   UNL d   1      14.647  11.833  -0.065  0.00  0.00     0.099 A 
ATOM     28  C   UNL d   1      14.021  12.327  -0.263  0.00  0.00     0.021 A 
ATOM     29  C   UNL d   1      14.151  13.127  -0.411  0.00  0.00     0.005 A 
ENDBRANCH   7  24
TORSDOF 7
ENDMDL
