MODEL 1
REMARK VINA RESULT:      -5.1      0.000      0.000
REMARK  4 active torsions:
REMARK  status: ('A' for Active; 'I' for Inactive)
REMARK    1  A    between atoms: C_2  and  S_1 
REMARK    2  A    between atoms: N_3  and  S_1 
REMARK    3  A    between atoms: C_12  and  N_3 
REMARK    4  A    between atoms: N_4  and  C_8 
ROOT
ATOM      1  S   UNL d   1      57.710   0.179  30.791  0.00  0.00     0.285 S 
ATOM      2  O   UNL d   1      58.371   0.634  31.091  0.00  0.00    -0.198 OA
ATOM      3  O   UNL d   1      57.084  -0.253  30.504  0.00  0.00    -0.198 OA
ENDROOT
BRANCH   1   4
ATOM      4  C   UNL d   1      57.398   0.194  31.531  0.00  0.00     0.105 A 
ATOM      5  C   UNL d   1      56.722  -0.226  31.737  0.00  0.00     0.013 A 
ATOM      6  C   UNL d   1      56.406  -0.205  32.505  0.00  0.00     0.001 A 
ATOM      7  C   UNL d   1      55.729  -0.635  32.684  0.00  0.00     0.000 A 
ATOM      8  C   UNL d   1      56.777   0.248  33.076  0.00  0.00     0.000 A 
ATOM      9  C   UNL d   1      55.415  -0.613  33.448  0.00  0.00     0.000 A 
ATOM     10  C   UNL d   1      55.802  -0.141  34.041  0.00  0.00     0.000 A 
ATOM     11  C   UNL d   1      56.475   0.279  33.841  0.00  0.00     0.000 A 
ATOM     12  C   UNL d   1      57.465   0.681  32.881  0.00  0.00     0.001 A 
ATOM     13  C   UNL d   1      57.791   0.672  32.128  0.00  0.00     0.013 A 
ENDBRANCH   1   4
BRANCH   1  14
ATOM     14  N   UNL d   1      58.063   0.179  30.021  0.00  0.00    -0.158 NA
BRANCH  14  15
ATOM     15  C   UNL d   1      58.511  -0.446  29.769  0.00  0.00     0.094 A 
ATOM     16  C   UNL d   1      59.329  -0.436  29.793  0.00  0.00     0.021 A 
ATOM     17  C   UNL d   1      59.802  -1.064  29.540  0.00  0.00     0.019 A 
ATOM     18  C   UNL d   1      59.415  -1.755  29.240  0.00  0.00     0.064 A 
ATOM     19  C   UNL d   1      58.595  -1.780  29.211  0.00  0.00     0.019 A 
ATOM     20  C   UNL d   1      58.116  -1.138  29.469  0.00  0.00     0.021 A 
BRANCH  18  21
ATOM     21  N   UNL d   1      59.874  -2.395  28.982  0.00  0.00    -0.300 N 
ATOM     22  C   UNL d   1      59.588  -3.175  28.962  0.00  0.00     0.107 A 
ATOM     23  C   UNL d   1      60.049  -3.795  28.706  0.00  0.00     0.142 A 
ATOM     24  O   UNL d   1      60.821  -3.661  28.458  0.00  0.00    -0.300 OA
ATOM     25  C   UNL d   1      61.133  -2.897  28.466  0.00  0.00     0.142 A 
ATOM     26  C   UNL d   1      60.663  -2.254  28.729  0.00  0.00     0.107 A 
ENDBRANCH  18  21
ENDBRANCH  14  15
ENDBRANCH   1  14
TORSDOF 4
ENDMDL
MODEL 2
REMARK VINA RESULT:      -5.1      1.371      5.163
REMARK  4 active torsions:
REMARK  status: ('A' for Active; 'I' for Inactive)
REMARK    1  A    between atoms: C_2  and  S_1 
REMARK    2  A    between atoms: N_3  and  S_1 
REMARK    3  A    between atoms: C_12  and  N_3 
REMARK    4  A    between atoms: N_4  and  C_8 
ROOT
ATOM      1  S   UNL d   1      58.590  -0.008  29.849  0.00  0.00     0.285 S 
ATOM      2  O   UNL d   1      59.343   0.156  30.223  0.00  0.00    -0.198 OA
ATOM      3  O   UNL d   1      57.874  -0.161  29.495  0.00  0.00    -0.198 OA
ENDROOT
BRANCH   1   4
ATOM      4  C   UNL d   1      58.927  -0.655  29.514  0.00  0.00     0.105 A 
ATOM      5  C   UNL d   1      58.565  -1.394  29.512  0.00  0.00     0.013 A 
ATOM      6  C   UNL d   1      58.921  -2.059  29.164  0.00  0.00     0.001 A 
ATOM      7  C   UNL d   1      58.537  -2.784  29.176  0.00  0.00     0.000 A 
ATOM      8  C   UNL d   1      59.655  -1.979  28.812  0.00  0.00     0.000 A 
ATOM      9  C   UNL d   1      58.892  -3.446  28.830  0.00  0.00     0.000 A 
ATOM     10  C   UNL d   1      59.655  -3.362  28.463  0.00  0.00     0.000 A 
ATOM     11  C   UNL d   1      60.019  -2.629  28.463  0.00  0.00     0.000 A 
ATOM     12  C   UNL d   1      60.036  -1.235  28.806  0.00  0.00     0.001 A 
ATOM     13  C   UNL d   1      59.699  -0.568  29.145  0.00  0.00     0.013 A 
ENDBRANCH   1   4
BRANCH   1  14
ATOM     14  N   UNL d   1      58.261   0.681  30.215  0.00  0.00    -0.158 NA
BRANCH  14  15
ATOM     15  C   UNL d   1      57.826   0.623  30.895  0.00  0.00     0.094 A 
ATOM     16  C   UNL d   1      58.173   0.553  31.633  0.00  0.00     0.021 A 
ATOM     17  C   UNL d   1      57.746   0.493  32.336  0.00  0.00     0.019 A 
ATOM     18  C   UNL d   1      56.899   0.505  32.287  0.00  0.00     0.064 A 
ATOM     19  C   UNL d   1      56.538   0.575  31.554  0.00  0.00     0.019 A 
ATOM     20  C   UNL d   1      56.977   0.636  30.839  0.00  0.00     0.021 A 
BRANCH  18  21
ATOM     21  N   UNL d   1      56.453   0.446  32.984  0.00  0.00    -0.300 N 
ATOM     22  C   UNL d   1      55.671   0.168  32.994  0.00  0.00     0.107 A 
ATOM     23  C   UNL d   1      55.243   0.115  33.685  0.00  0.00     0.142 A 
ATOM     24  O   UNL d   1      55.583   0.337  34.399  0.00  0.00    -0.300 OA
ATOM     25  C   UNL d   1      56.359   0.617  34.420  0.00  0.00     0.142 A 
ATOM     26  C   UNL d   1      56.804   0.675  33.712  0.00  0.00     0.107 A 
ENDBRANCH  18  21
ENDBRANCH  14  15
ENDBRANCH   1  14
TORSDOF 4
ENDMDL
MODEL 3
REMARK VINA RESULT:      -2.6      8.185      8.803
REMARK  4 active torsions:
REMARK  status: ('A' for Active; 'I' for Inactive)
REMARK    1  A    between atoms: C_2  and  S_1 
REMARK    2  A    between atoms: N_3  and  S_1 
REMARK    3  A    between atoms: C_12  and  N_3 
REMARK    4  A    between atoms: N_4  and  C_8 
ROOT
ATOM      1  S   UNL d   1      59.525  -9.106  34.458  0.00  0.00     0.285 S 
ATOM      2  O   UNL d   1      58.694  -9.143  34.665  0.00  0.00    -0.198 OA
ATOM      3  O   UNL d   1      60.313  -9.075  34.260  0.00  0.00    -0.198 OA
ENDROOT
BRANCH   1   4
ATOM      4  C   UNL d   1      59.580  -8.441  34.904  0.00  0.00     0.105 A 
ATOM      5  C   UNL d   1      60.258  -7.976  34.928  0.00  0.00     0.013 A 
ATOM      6  C   UNL d   1      60.307  -7.289  35.392  0.00  0.00     0.001 A 
ATOM      7  C   UNL d   1      60.996  -6.844  35.397  0.00  0.00     0.000 A 
ATOM      8  C   UNL d   1      59.659  -7.065  35.840  0.00  0.00     0.000 A 
ATOM      9  C   UNL d   1      61.044  -6.160  35.859  0.00  0.00     0.000 A 
ATOM     10  C   UNL d   1      60.370  -5.927  36.325  0.00  0.00     0.000 A 
ATOM     11  C   UNL d   1      59.693  -6.386  36.304  0.00  0.00     0.000 A 
ATOM     12  C   UNL d   1      58.963  -7.526  35.826  0.00  0.00     0.001 A 
ATOM     13  C   UNL d   1      58.898  -8.208  35.373  0.00  0.00     0.013 A 
ENDBRANCH   1   4
BRANCH   1  14
ATOM     14  N   UNL d   1      59.438  -9.810  33.996  0.00  0.00    -0.158 NA
BRANCH  14  15
ATOM     15  C   UNL d   1      59.107  -9.784  33.257  0.00  0.00     0.094 A 
ATOM     16  C   UNL d   1      58.298  -9.728  33.141  0.00  0.00     0.021 A 
ATOM     17  C   UNL d   1      57.944  -9.700  32.396  0.00  0.00     0.019 A 
ATOM     18  C   UNL d   1      58.449  -9.731  31.716  0.00  0.00     0.064 A 
ATOM     19  C   UNL d   1      59.261  -9.788  31.817  0.00  0.00     0.019 A 
ATOM     20  C   UNL d   1      59.619  -9.816  32.579  0.00  0.00     0.021 A 
BRANCH  18  21
ATOM     21  N   UNL d   1      58.110  -9.704  30.960  0.00  0.00    -0.300 N 
ATOM     22  C   UNL d   1      57.297  -9.814  30.828  0.00  0.00     0.107 A 
ATOM     23  C   UNL d   1      56.977  -9.785  30.080  0.00  0.00     0.142 A 
ATOM     24  O   UNL d   1      57.457  -9.645  29.429  0.00  0.00    -0.300 OA
ATOM     25  C   UNL d   1      58.269  -9.532  29.529  0.00  0.00     0.142 A 
ATOM     26  C   UNL d   1      58.605  -9.561  30.297  0.00  0.00     0.107 A 
ENDBRANCH  18  21
ENDBRANCH  14  15
ENDBRANCH   1  14
TORSDOF 4
ENDMDL
MODEL 4
REMARK VINA RESULT:      -2.6      1.727      5.403
REMARK  4 active torsions:
REMARK  status: ('A' for Active; 'I' for Inactive)
REMARK    1  A    between atoms: C_2  and  S_1 
REMARK    2  A    between atoms: N_3  and  S_1 
REMARK    3  A    between atoms: C_12  and  N_3 
REMARK    4  A    between atoms: N_4  and  C_8 
ROOT
ATOM      1  S   UNL d   1      57.537  -0.745  30.496  0.00  0.00     0.285 S 
ATOM      2  O   UNL d   1      57.811  -1.551  30.602  0.00  0.00    -0.198 OA
ATOM      3  O   UNL d   1      57.275   0.018  30.398  0.00  0.00    -0.198 OA
ENDROOT
BRANCH   1   4
ATOM      4  C   UNL d   1      58.230  -0.587  30.123  0.00  0.00     0.105 A 
ATOM      5  C   UNL d   1      58.817  -0.118  30.456  0.00  0.00     0.013 A 
ATOM      6  C   UNL d   1      59.532   0.041  30.064  0.00  0.00     0.001 A 
ATOM      7  C   UNL d   1      60.101   0.513  30.420  0.00  0.00     0.000 A 
ATOM      8  C   UNL d   1      59.657  -0.279  29.321  0.00  0.00     0.000 A 
ATOM      9  C   UNL d   1      60.812   0.671  30.028  0.00  0.00     0.000 A 
ATOM     10  C   UNL d   1      60.942   0.338  29.256  0.00  0.00     0.000 A 
ATOM     11  C   UNL d   1      60.361  -0.130  28.920  0.00  0.00     0.000 A 
ATOM     12  C   UNL d   1      59.070  -0.758  28.969  0.00  0.00     0.001 A 
ATOM     13  C   UNL d   1      58.359  -0.925  29.343  0.00  0.00     0.013 A 
ENDBRANCH   1   4
BRANCH   1  14
ATOM     14  N   UNL d   1      56.816  -0.942  30.894  0.00  0.00    -0.158 NA
BRANCH  14  15
ATOM     15  C   UNL d   1      56.668  -0.673  31.643  0.00  0.00     0.094 A 
ATOM     16  C   UNL d   1      56.933   0.056  31.908  0.00  0.00     0.021 A 
ATOM     17  C   UNL d   1      56.791   0.346  32.667  0.00  0.00     0.019 A 
ATOM     18  C   UNL d   1      56.346  -0.142  33.200  0.00  0.00     0.064 A 
ATOM     19  C   UNL d   1      56.075  -0.874  32.949  0.00  0.00     0.019 A 
ATOM     20  C   UNL d   1      56.221  -1.166  32.173  0.00  0.00     0.021 A 
BRANCH  18  21
ATOM     21  N   UNL d   1      56.195   0.134  33.968  0.00  0.00    -0.300 N 
ATOM     22  C   UNL d   1      56.794   0.413  34.471  0.00  0.00     0.107 A 
ATOM     23  C   UNL d   1      56.632   0.682  35.223  0.00  0.00     0.142 A 
ATOM     24  O   UNL d   1      55.860   0.682  35.504  0.00  0.00    -0.300 OA
ATOM     25  C   UNL d   1      55.244   0.410  35.027  0.00  0.00     0.142 A 
ATOM     26  C   UNL d   1      55.404   0.133  34.252  0.00  0.00     0.107 A 
ENDBRANCH  18  21
ENDBRANCH  14  15
ENDBRANCH   1  14
TORSDOF 4
ENDMDL
