MODEL 1
REMARK VINA RESULT:      47.2      0.000      0.000
REMARK  5 active torsions:
REMARK  status: ('A' for Active; 'I' for Inactive)
REMARK       I    between atoms: C_3  and  N_1 
REMARK    1  A    between atoms: C_5  and  N_1 
REMARK    2  A    between atoms: C_2  and  C_3 
REMARK    3  A    between atoms: N_10  and  C_5 
REMARK    4  A    between atoms: C_13  and  N_10 
REMARK    5  A    between atoms: C_14  and  C_13 
ROOT
ATOM      1  C   UNL d   1     -48.454  28.815  34.912  0.00  0.00     0.224 C 
ATOM      2  S   UNL d   1     -48.001  28.408  35.472  0.00  0.00    -0.037 SA
ENDROOT
BRANCH   1   3
ATOM      3  N   UNL d   1     -48.254  29.586  34.706  0.00  0.00    -0.177 NA
ATOM      4  C   UNL d   1     -47.911  30.086  35.271  0.00  0.00     0.304 C 
ATOM      5  O   UNL d   1     -47.773  29.817  36.028  0.00  0.00    -0.263 OA
BRANCH   4   6
ATOM      6  C   UNL d   1     -47.710  30.857  35.065  0.00  0.00     0.158 A 
ATOM      7  O   UNL d   1     -48.027  31.292  34.442  0.00  0.00    -0.296 OA
ATOM      8  C   UNL d   1     -47.678  32.025  34.432  0.00  0.00     0.134 A 
ATOM      9 BR   UNL d   1     -47.832  32.631  33.903  0.00  0.00    -0.022 Br
ATOM     10  C   UNL d   1     -47.139  32.054  35.050  0.00  0.00     0.034 A 
ATOM     11  C   UNL d   1     -47.158  31.325  35.446  0.00  0.00     0.032 A 
ENDBRANCH   4   6
ENDBRANCH   1   3
BRANCH   1  12
ATOM     12  N   UNL d   1     -49.101  28.445  34.568  0.00  0.00    -0.216 NA
BRANCH  12  13
ATOM     13  C   UNL d   1     -48.999  27.736  34.182  0.00  0.00     0.101 C 
BRANCH  13  14
ATOM     14  C   UNL d   1     -49.654  27.335  33.891  0.00  0.00     0.019 A 
ATOM     15  C   UNL d   1     -50.359  27.737  33.746  0.00  0.00     0.002 A 
ATOM     16  C   UNL d   1     -51.013  27.329  33.454  0.00  0.00     0.000 A 
ATOM     17  C   UNL d   1     -50.962  26.517  33.306  0.00  0.00     0.000 A 
ATOM     18  C   UNL d   1     -50.257  26.114  33.451  0.00  0.00     0.000 A 
ATOM     19  C   UNL d   1     -49.603  26.523  33.743  0.00  0.00     0.002 A 
ENDBRANCH  13  14
ENDBRANCH  12  13
ENDBRANCH   1  12
TORSDOF 5
ENDMDL
MODEL 2
REMARK VINA RESULT:      48.3      2.722      5.020
REMARK  5 active torsions:
REMARK  status: ('A' for Active; 'I' for Inactive)
REMARK       I    between atoms: C_3  and  N_1 
REMARK    1  A    between atoms: C_5  and  N_1 
REMARK    2  A    between atoms: C_2  and  C_3 
REMARK    3  A    between atoms: N_10  and  C_5 
REMARK    4  A    between atoms: C_13  and  N_10 
REMARK    5  A    between atoms: C_14  and  C_13 
ROOT
ATOM      1  C   UNL d   1     -48.985  27.637  34.511  0.00  0.00     0.224 C 
ATOM      2  S   UNL d   1     -48.349  27.180  34.244  0.00  0.00    -0.037 SA
ENDROOT
BRANCH   1   3
ATOM      3  N   UNL d   1     -49.755  27.415  34.326  0.00  0.00    -0.177 NA
ATOM      4  C   UNL d   1     -49.886  26.766  33.827  0.00  0.00     0.304 C 
ATOM      5  O   UNL d   1     -49.256  26.350  33.521  0.00  0.00    -0.263 OA
BRANCH   4   6
ATOM      6  C   UNL d   1     -50.656  26.544  33.642  0.00  0.00     0.158 A 
ATOM      7  O   UNL d   1     -50.948  25.775  33.617  0.00  0.00    -0.296 OA
ATOM      8  C   UNL d   1     -51.733  25.800  33.411  0.00  0.00     0.134 A 
ATOM      9 BR   UNL d   1     -52.235  25.159  33.323  0.00  0.00    -0.022 Br
ATOM     10  C   UNL d   1     -51.939  26.588  33.306  0.00  0.00     0.034 A 
ATOM     11  C   UNL d   1     -51.267  27.053  33.449  0.00  0.00     0.032 A 
ENDBRANCH   4   6
ENDBRANCH   1   3
BRANCH   1  12
ATOM     12  N   UNL d   1     -48.840  28.310  34.960  0.00  0.00    -0.216 NA
BRANCH  12  13
ATOM     13  C   UNL d   1     -48.090  28.448  35.245  0.00  0.00     0.101 C 
BRANCH  13  14
ATOM     14  C   UNL d   1     -47.837  29.220  35.361  0.00  0.00     0.019 A 
ATOM     15  C   UNL d   1     -48.368  29.847  35.298  0.00  0.00     0.002 A 
ATOM     16  C   UNL d   1     -48.107  30.621  35.416  0.00  0.00     0.000 A 
ATOM     17  C   UNL d   1     -47.313  30.767  35.595  0.00  0.00     0.000 A 
ATOM     18  C   UNL d   1     -46.782  30.140  35.657  0.00  0.00     0.000 A 
ATOM     19  C   UNL d   1     -47.043  29.366  35.540  0.00  0.00     0.002 A 
ENDBRANCH  13  14
ENDBRANCH  12  13
ENDBRANCH   1  12
TORSDOF 5
ENDMDL
