MODEL 1
REMARK VINA RESULT:      -2.6      0.000      0.000
REMARK  4 active torsions:
REMARK  status: ('A' for Active; 'I' for Inactive)
REMARK    1  A    between atoms: C_2  and  C_1 
REMARK    2  A    between atoms: C_3  and  C_1 
REMARK       I    between atoms: N_7  and  C_2 
REMARK    3  A    between atoms: C_4  and  C_3 
REMARK    4  A    between atoms: C_13  and  N_7 
ROOT
ATOM      1  C   UNL d   1      31.732  16.422 -24.077  0.00  0.00     0.128 C 
ATOM      2  C   UNL d   1      31.658  16.009 -23.376  0.00  0.00     0.106 C 
ATOM      3  N   UNL d   1      31.585  15.585 -22.661  0.00  0.00    -0.191 NA
ENDROOT
BRANCH   1   4
ATOM      4  C   UNL d   1      32.393  16.308 -24.573  0.00  0.00     0.289 C 
ATOM      5  N   UNL d   1      33.025  16.831 -24.534  0.00  0.00    -0.207 NA
ATOM      6  O   UNL d   1      32.400  15.670 -25.097  0.00  0.00    -0.264 OA
BRANCH   5   7
ATOM      7  C   UNL d   1      33.018  17.469 -24.010  0.00  0.00     0.085 A 
ATOM      8  C   UNL d   1      32.789  18.216 -24.274  0.00  0.00     0.019 A 
ATOM      9  C   UNL d   1      32.782  18.854 -23.751  0.00  0.00     0.002 A 
ATOM     10  C   UNL d   1      33.004  18.746 -22.965  0.00  0.00     0.000 A 
ATOM     11  C   UNL d   1      33.234  17.999 -22.700  0.00  0.00     0.002 A 
ATOM     12  C   UNL d   1      32.995  19.392 -22.444  0.00  0.00     0.000 C 
ATOM     13  C   UNL d   1      33.241  17.361 -23.223  0.00  0.00     0.019 A 
ENDBRANCH   5   7
ENDBRANCH   1   4
BRANCH   1  14
ATOM     14  C   UNL d   1      31.148  16.961 -24.300  0.00  0.00     0.040 C 
BRANCH  14  15
ATOM     15  C   UNL d   1      30.380  16.701 -24.474  0.00  0.00     0.101 A 
ATOM     16  O   UNL d   1      30.084  15.994 -24.768  0.00  0.00    -0.307 OA
ATOM     17  C   UNL d   1      29.264  16.072 -24.822  0.00  0.00     0.100 A 
ATOM     18  C   UNL d   1      28.732  15.484 -25.095  0.00  0.00     0.027 C 
ATOM     19  C   UNL d   1      29.052  16.815 -24.566  0.00  0.00     0.027 A 
ATOM     20  C   UNL d   1      29.746  17.212 -24.348  0.00  0.00     0.027 A 
ENDBRANCH  14  15
ENDBRANCH   1  14
TORSDOF 4
ENDMDL
MODEL 2
REMARK VINA RESULT:      -2.2      1.461      3.663
REMARK  4 active torsions:
REMARK  status: ('A' for Active; 'I' for Inactive)
REMARK    1  A    between atoms: C_2  and  C_1 
REMARK    2  A    between atoms: C_3  and  C_1 
REMARK       I    between atoms: N_7  and  C_2 
REMARK    3  A    between atoms: C_4  and  C_3 
REMARK    4  A    between atoms: C_13  and  N_7 
ROOT
ATOM      1  C   UNL d   1      31.886  17.375 -24.232  0.00  0.00     0.128 C 
ATOM      2  C   UNL d   1      31.291  17.815 -24.580  0.00  0.00     0.106 C 
ATOM      3  N   UNL d   1      30.684  18.261 -24.938  0.00  0.00    -0.191 NA
ENDROOT
BRANCH   1   4
ATOM      4  C   UNL d   1      32.238  16.736 -24.636  0.00  0.00     0.289 C 
ATOM      5  N   UNL d   1      31.912  15.985 -24.569  0.00  0.00    -0.207 NA
ATOM      6  O   UNL d   1      32.910  16.869 -25.097  0.00  0.00    -0.264 OA
BRANCH   5   7
ATOM      7  C   UNL d   1      31.240  15.852 -24.108  0.00  0.00     0.085 A 
ATOM      8  C   UNL d   1      30.490  15.979 -24.427  0.00  0.00     0.019 A 
ATOM      9  C   UNL d   1      29.818  15.846 -23.966  0.00  0.00     0.002 A 
ATOM     10  C   UNL d   1      29.897  15.586 -23.188  0.00  0.00     0.000 A 
ATOM     11  C   UNL d   1      30.647  15.458 -22.869  0.00  0.00     0.002 A 
ATOM     12  C   UNL d   1      29.217  15.454 -22.730  0.00  0.00     0.000 C 
ATOM     13  C   UNL d   1      31.318  15.591 -23.329  0.00  0.00     0.019 A 
ENDBRANCH   5   7
ENDBRANCH   1   4
BRANCH   1  14
ATOM     14  C   UNL d   1      32.145  17.565 -23.472  0.00  0.00     0.040 C 
BRANCH  14  15
ATOM     15  C   UNL d   1      32.515  18.291 -23.321  0.00  0.00     0.101 A 
ATOM     16  O   UNL d   1      32.565  18.990 -23.748  0.00  0.00    -0.307 OA
ATOM     17  C   UNL d   1      33.014  19.521 -23.303  0.00  0.00     0.100 A 
ATOM     18  C   UNL d   1      33.208  20.305 -23.525  0.00  0.00     0.027 C 
ATOM     19  C   UNL d   1      33.241  19.158 -22.611  0.00  0.00     0.027 A 
ATOM     20  C   UNL d   1      32.931  18.389 -22.617  0.00  0.00     0.027 A 
ENDBRANCH  14  15
ENDBRANCH   1  14
TORSDOF 4
ENDMDL
MODEL 3
REMARK VINA RESULT:      -1.9      1.206      3.610
REMARK  4 active torsions:
REMARK  status: ('A' for Active; 'I' for Inactive)
REMARK    1  A    between atoms: C_2  and  C_1 
REMARK    2  A    between atoms: C_3  and  C_1 
REMARK       I    between atoms: N_7  and  C_2 
REMARK    3  A    between atoms: C_4  and  C_3 
REMARK    4  A    between atoms: C_13  and  N_7 
ROOT
ATOM      1  C   UNL d   1      31.290  16.370 -23.974  0.00  0.00     0.128 C 
ATOM      2  C   UNL d   1      31.491  16.024 -23.261  0.00  0.00     0.106 C 
ATOM      3  N   UNL d   1      31.697  15.667 -22.535  0.00  0.00    -0.191 NA
ENDROOT
BRANCH   1   4
ATOM      4  C   UNL d   1      31.200  15.909 -24.663  0.00  0.00     0.289 C 
ATOM      5  N   UNL d   1      30.448  15.678 -24.902  0.00  0.00    -0.207 NA
ATOM      6  O   UNL d   1      31.869  15.693 -25.095  0.00  0.00    -0.264 OA
BRANCH   5   7
ATOM      7  C   UNL d   1      29.779  15.894 -24.470  0.00  0.00     0.085 A 
ATOM      8  C   UNL d   1      29.331  16.546 -24.704  0.00  0.00     0.019 A 
ATOM      9  C   UNL d   1      28.662  16.762 -24.272  0.00  0.00     0.002 A 
ATOM     10  C   UNL d   1      28.441  16.327 -23.608  0.00  0.00     0.000 A 
ATOM     11  C   UNL d   1      28.889  15.675 -23.374  0.00  0.00     0.002 A 
ATOM     12  C   UNL d   1      27.767  16.551 -23.178  0.00  0.00     0.000 C 
ATOM     13  C   UNL d   1      29.558  15.459 -23.805  0.00  0.00     0.019 A 
ENDBRANCH   5   7
ENDBRANCH   1   4
BRANCH   1  14
ATOM     14  C   UNL d   1      31.173  17.186 -24.015  0.00  0.00     0.040 C 
BRANCH  14  15
ATOM     15  C   UNL d   1      31.797  17.709 -23.863  0.00  0.00     0.101 A 
ATOM     16  O   UNL d   1      32.131  17.992 -23.169  0.00  0.00    -0.307 OA
ATOM     17  C   UNL d   1      32.744  18.504 -23.378  0.00  0.00     0.100 A 
ATOM     18  C   UNL d   1      33.239  18.921 -22.846  0.00  0.00     0.027 C 
ATOM     19  C   UNL d   1      32.790  18.540 -24.190  0.00  0.00     0.027 A 
ATOM     20  C   UNL d   1      32.201  18.045 -24.497  0.00  0.00     0.027 A 
ENDBRANCH  14  15
ENDBRANCH   1  14
TORSDOF 4
ENDMDL
MODEL 4
REMARK VINA RESULT:      -1.9      1.491      1.745
REMARK  4 active torsions:
REMARK  status: ('A' for Active; 'I' for Inactive)
REMARK    1  A    between atoms: C_2  and  C_1 
REMARK    2  A    between atoms: C_3  and  C_1 
REMARK       I    between atoms: N_7  and  C_2 
REMARK    3  A    between atoms: C_4  and  C_3 
REMARK    4  A    between atoms: C_13  and  N_7 
ROOT
ATOM      1  C   UNL d   1      30.410  16.752 -24.231  0.00  0.00     0.128 C 
ATOM      2  C   UNL d   1      30.081  17.407 -24.592  0.00  0.00     0.106 C 
ATOM      3  N   UNL d   1      29.746  18.075 -24.965  0.00  0.00    -0.191 NA
ENDROOT
BRANCH   1   4
ATOM      4  C   UNL d   1      30.959  16.271 -24.636  0.00  0.00     0.289 C 
ATOM      5  N   UNL d   1      31.762  16.429 -24.571  0.00  0.00    -0.207 NA
ATOM      6  O   UNL d   1      30.683  15.643 -25.094  0.00  0.00    -0.264 OA
BRANCH   5   7
ATOM      7  C   UNL d   1      32.038  17.058 -24.112  0.00  0.00     0.085 A 
ATOM      8  C   UNL d   1      32.116  17.808 -24.446  0.00  0.00     0.019 A 
ATOM      9  C   UNL d   1      32.392  18.436 -23.988  0.00  0.00     0.002 A 
ATOM     10  C   UNL d   1      32.588  18.315 -23.196  0.00  0.00     0.000 A 
ATOM     11  C   UNL d   1      32.509  17.565 -22.862  0.00  0.00     0.002 A 
ATOM     12  C   UNL d   1      32.864  18.951 -22.741  0.00  0.00     0.000 C 
ATOM     13  C   UNL d   1      32.234  16.937 -23.320  0.00  0.00     0.019 A 
ENDBRANCH   5   7
ENDBRANCH   1   4
BRANCH   1  14
ATOM     14  C   UNL d   1      30.200  16.563 -23.456  0.00  0.00     0.040 C 
BRANCH  14  15
ATOM     15  C   UNL d   1      29.471  16.203 -23.293  0.00  0.00     0.101 A 
ATOM     16  O   UNL d   1      28.751  16.202 -23.686  0.00  0.00    -0.307 OA
ATOM     17  C   UNL d   1      28.229  15.738 -23.245  0.00  0.00     0.100 A 
ATOM     18  C   UNL d   1      27.428  15.581 -23.438  0.00  0.00     0.027 C 
ATOM     19  C   UNL d   1      28.619  15.454 -22.589  0.00  0.00     0.027 A 
ATOM     20  C   UNL d   1      29.395  15.742 -22.615  0.00  0.00     0.027 A 
ENDBRANCH  14  15
ENDBRANCH   1  14
TORSDOF 4
ENDMDL
MODEL 5
REMARK VINA RESULT:       0.2      1.496      3.867
REMARK  4 active torsions:
REMARK  status: ('A' for Active; 'I' for Inactive)
REMARK    1  A    between atoms: C_2  and  C_1 
REMARK    2  A    between atoms: C_3  and  C_1 
REMARK       I    between atoms: N_7  and  C_2 
REMARK    3  A    between atoms: C_4  and  C_3 
REMARK    4  A    between atoms: C_13  and  N_7 
ROOT
ATOM      1  C   UNL d   1      30.231  16.235 -23.923  0.00  0.00     0.128 C 
ATOM      2  C   UNL d   1      30.377  15.850 -23.217  0.00  0.00     0.106 C 
ATOM      3  N   UNL d   1      30.524  15.453 -22.498  0.00  0.00    -0.191 NA
ENDROOT
BRANCH   1   4
ATOM      4  C   UNL d   1      29.954  15.817 -24.589  0.00  0.00     0.289 C 
ATOM      5  N   UNL d   1      29.146  15.773 -24.733  0.00  0.00    -0.207 NA
ATOM      6  O   UNL d   1      30.497  15.455 -25.094  0.00  0.00    -0.264 OA
BRANCH   5   7
ATOM      7  C   UNL d   1      28.603  16.135 -24.228  0.00  0.00     0.085 A 
ATOM      8  C   UNL d   1      28.424  16.935 -24.321  0.00  0.00     0.019 A 
ATOM      9  C   UNL d   1      27.882  17.298 -23.816  0.00  0.00     0.002 A 
ATOM     10  C   UNL d   1      27.518  16.861 -23.219  0.00  0.00     0.000 A 
ATOM     11  C   UNL d   1      27.696  16.061 -23.126  0.00  0.00     0.002 A 
ATOM     12  C   UNL d   1      26.973  17.233 -22.715  0.00  0.00     0.000 C 
ATOM     13  C   UNL d   1      28.239  15.699 -23.630  0.00  0.00     0.019 A 
ENDBRANCH   5   7
ENDBRANCH   1   4
BRANCH   1  14
ATOM     14  C   UNL d   1      30.360  17.048 -23.980  0.00  0.00     0.040 C 
BRANCH  14  15
ATOM     15  C   UNL d   1      31.130  17.354 -23.981  0.00  0.00     0.101 A 
ATOM     16  O   UNL d   1      31.829  17.103 -23.632  0.00  0.00    -0.307 OA
ATOM     17  C   UNL d   1      32.418  17.646 -23.837  0.00  0.00     0.100 A 
ATOM     18  C   UNL d   1      33.221  17.610 -23.602  0.00  0.00     0.027 C 
ATOM     19  C   UNL d   1      32.090  18.224 -24.306  0.00  0.00     0.027 A 
ATOM     20  C   UNL d   1      31.286  18.046 -24.399  0.00  0.00     0.027 A 
ENDBRANCH  14  15
ENDBRANCH   1  14
TORSDOF 4
ENDMDL
