MODEL 1
REMARK VINA RESULT:      54.5      0.000      0.000
REMARK  8 active torsions:
REMARK  status: ('A' for Active; 'I' for Inactive)
REMARK    1  A    between atoms: C_7  and  N_1 
REMARK    2  A    between atoms: C_2  and  C_5 
REMARK    3  A    between atoms: C_9  and  C_4 
REMARK       I    between atoms: N_20  and  C_9 
REMARK    4  A    between atoms: O_25  and  C_14 
REMARK    5  A    between atoms: O_26  and  C_16 
REMARK    6  A    between atoms: C_27  and  N_20 
REMARK    7  A    between atoms: C_23  and  C_28 
REMARK    8  A    between atoms: C_28  and  C_27 
ROOT
ATOM      1  C   UNL d   1      13.561  13.432  -3.941  0.00  0.00     0.101 A 
ATOM      2  O   UNL d   1      13.893  14.130  -4.230  0.00  0.00    -0.302 OA
ATOM      3  C   UNL d   1      13.573  14.267  -4.975  0.00  0.00     0.158 A 
ATOM      4  C   UNL d   1      13.042  13.136  -4.498  0.00  0.00     0.027 A 
ATOM      5  C   UNL d   1      13.046  13.656  -5.149  0.00  0.00     0.032 A 
ENDROOT
BRANCH   3   6
ATOM      6  C   UNL d   1      13.748  14.905  -5.469  0.00  0.00     0.302 C 
ATOM      7  O   UNL d   1      14.273  14.814  -6.093  0.00  0.00    -0.263 OA
ATOM      8  N   UNL d   1      13.390  15.635  -5.333  0.00  0.00    -0.205 NA
BRANCH   8   9
ATOM      9  C   UNL d   1      13.565  16.275  -5.828  0.00  0.00     0.102 C 
BRANCH   9  10
ATOM     10  C   UNL d   1      13.021  16.886  -5.923  0.00  0.00     0.021 C 
BRANCH  10  11
ATOM     11  C   UNL d   1      13.279  17.658  -6.003  0.00  0.00     0.004 A 
ATOM     12  C   UNL d   1      14.044  17.854  -5.775  0.00  0.00     0.026 A 
ATOM     13  C   UNL d   1      14.306  18.633  -5.855  0.00  0.00     0.116 A 
ATOM     14  C   UNL d   1      13.800  19.211  -6.162  0.00  0.00     0.116 A 
ATOM     15  C   UNL d   1      13.035  19.010  -6.389  0.00  0.00     0.026 A 
ATOM     16  C   UNL d   1      12.774  18.231  -6.308  0.00  0.00     0.002 A 
BRANCH  13  17
ATOM     17  O   UNL d   1      15.076  18.837  -5.627  0.00  0.00    -0.326 OA
ATOM     18  C   UNL d   1      15.368  18.573  -4.900  0.00  0.00     0.181 C 
ENDBRANCH  13  17
BRANCH  14  19
ATOM     19  O   UNL d   1      14.062  19.986  -6.241  0.00  0.00    -0.326 OA
ATOM     20  C   UNL d   1      13.832  20.557  -5.694  0.00  0.00     0.181 C 
ENDBRANCH  14  19
ENDBRANCH  10  11
ENDBRANCH   9  10
ENDBRANCH   8   9
ENDBRANCH   3   6
BRANCH   1  21
ATOM     21  C   UNL d   1      13.733  13.095  -3.208  0.00  0.00     0.034 A 
ATOM     22  C   UNL d   1      14.175  13.511  -2.644  0.00  0.00     0.004 A 
ATOM     23  C   UNL d   1      14.340  13.162  -1.915  0.00  0.00     0.024 A 
ATOM     24  C   UNL d   1      14.067  12.408  -1.747  0.00  0.00     0.128 A 
ATOM     25  C   UNL d   1      13.626  11.992  -2.311  0.00  0.00     0.035 A 
ATOM     26  C   UNL d   1      13.458  12.333  -3.040  0.00  0.00     0.061 A 
ATOM     27 CL   UNL d   1      13.019  11.916  -3.594  0.00  0.00    -0.082 Cl
BRANCH  24  28
ATOM     28  N   UNL d   1      14.232  12.057  -1.015  0.00  0.00    -0.114 N 
ATOM     29  O   UNL d   1      15.010  11.958  -0.766  0.00  0.00    -0.532 OA
ATOM     30  O   UNL d   1      13.612  11.806  -0.534  0.00  0.00    -0.532 OA
ENDBRANCH  24  28
ENDBRANCH   1  21
TORSDOF 8
ENDMDL
MODEL 2
REMARK VINA RESULT:      56.8      1.710      6.390
REMARK  8 active torsions:
REMARK  status: ('A' for Active; 'I' for Inactive)
REMARK    1  A    between atoms: C_7  and  N_1 
REMARK    2  A    between atoms: C_2  and  C_5 
REMARK    3  A    between atoms: C_9  and  C_4 
REMARK       I    between atoms: N_20  and  C_9 
REMARK    4  A    between atoms: O_25  and  C_14 
REMARK    5  A    between atoms: O_26  and  C_16 
REMARK    6  A    between atoms: C_27  and  N_20 
REMARK    7  A    between atoms: C_23  and  C_28 
REMARK    8  A    between atoms: C_28  and  C_27 
ROOT
ATOM      1  C   UNL d   1      14.091  15.559  -4.265  0.00  0.00     0.101 A 
ATOM      2  O   UNL d   1      13.643  14.960  -4.613  0.00  0.00    -0.302 OA
ATOM      3  C   UNL d   1      13.630  14.324  -4.092  0.00  0.00     0.158 A 
ATOM      4  C   UNL d   1      14.355  15.302  -3.536  0.00  0.00     0.027 A 
ATOM      5  C   UNL d   1      14.069  14.528  -3.422  0.00  0.00     0.032 A 
ENDROOT
BRANCH   3   6
ATOM      6  C   UNL d   1      13.246  13.604  -4.213  0.00  0.00     0.302 C 
ATOM      7  O   UNL d   1      12.884  13.443  -4.932  0.00  0.00    -0.263 OA
ATOM      8  N   UNL d   1      13.227  13.046  -3.606  0.00  0.00    -0.205 NA
BRANCH   8   9
ATOM      9  C   UNL d   1      12.842  12.323  -3.728  0.00  0.00     0.102 C 
BRANCH   9  10
ATOM     10  C   UNL d   1      12.777  11.779  -3.112  0.00  0.00     0.021 C 
BRANCH  10  11
ATOM     11  C   UNL d   1      13.325  11.779  -2.504  0.00  0.00     0.004 A 
ATOM     12  C   UNL d   1      13.065  11.779  -1.725  0.00  0.00     0.026 A 
ATOM     13  C   UNL d   1      13.617  11.779  -1.112  0.00  0.00     0.116 A 
ATOM     14  C   UNL d   1      14.427  11.779  -1.282  0.00  0.00     0.116 A 
ATOM     15  C   UNL d   1      14.682  11.779  -2.064  0.00  0.00     0.026 A 
ATOM     16  C   UNL d   1      14.129  11.779  -2.677  0.00  0.00     0.002 A 
BRANCH  13  17
ATOM     17  O   UNL d   1      13.362  11.779  -0.323  0.00  0.00    -0.326 OA
ATOM     18  C   UNL d   1      12.952  12.434  -0.029  0.00  0.00     0.181 C 
ENDBRANCH  13  17
BRANCH  14  19
ATOM     19  O   UNL d   1      14.976  11.779  -0.670  0.00  0.00    -0.326 OA
ATOM     20  C   UNL d   1      15.775  11.889  -0.834  0.00  0.00     0.181 C 
ENDBRANCH  14  19
ENDBRANCH  10  11
ENDBRANCH   9  10
ENDBRANCH   8   9
ENDBRANCH   3   6
BRANCH   1  21
ATOM     21  C   UNL d   1      14.242  16.295  -4.605  0.00  0.00     0.034 A 
ATOM     22  C   UNL d   1      14.050  16.443  -5.397  0.00  0.00     0.004 A 
ATOM     23  C   UNL d   1      14.207  17.183  -5.726  0.00  0.00     0.024 A 
ATOM     24  C   UNL d   1      14.551  17.772  -5.271  0.00  0.00     0.128 A 
ATOM     25  C   UNL d   1      14.743  17.624  -4.479  0.00  0.00     0.035 A 
ATOM     26  C   UNL d   1      14.590  16.888  -4.145  0.00  0.00     0.061 A 
ATOM     27 CL   UNL d   1      14.782  16.749  -3.360  0.00  0.00    -0.082 Cl
BRANCH  24  28
ATOM     28  N   UNL d   1      14.709  18.515  -5.599  0.00  0.00    -0.114 N 
ATOM     29  O   UNL d   1      15.408  18.910  -5.420  0.00  0.00    -0.532 OA
ATOM     30  O   UNL d   1      14.161  18.861  -6.108  0.00  0.00    -0.532 OA
ENDBRANCH  24  28
ENDBRANCH   1  21
TORSDOF 8
ENDMDL
