MODEL 1
REMARK VINA RESULT:      -5.5      0.000      0.000
REMARK  6 active torsions:
REMARK  status: ('A' for Active; 'I' for Inactive)
REMARK    1  A    between atoms: C_12  and  N_3 
REMARK    2  A    between atoms: C_8  and  C_4 
REMARK    3  A    between atoms: O_23  and  C_11 
REMARK    4  A    between atoms: C_19  and  C_12 
REMARK    5  A    between atoms: N_13  and  C_19 
REMARK    6  A    between atoms: O_26  and  C_17 
ROOT
ATOM      1  C   UNL d   1      52.283  32.656  53.201  0.00  0.00     0.083 A 
ATOM      2  C   UNL d   1      51.630  32.154  53.173  0.00  0.00     0.161 A 
ATOM      3  N   UNL d   1      51.197  33.414  53.161  0.00  0.00    -0.270 N 
ATOM      4  C   UNL d   1      52.013  33.426  53.193  0.00  0.00     0.074 A 
ATOM      5  C   UNL d   1      50.952  32.626  53.149  0.00  0.00     0.288 A 
ATOM      6  C   UNL d   1      53.044  32.343  53.229  0.00  0.00     0.201 A 
ATOM      7  O   UNL d   1      51.737  31.338  53.174  0.00  0.00    -0.302 OA
ATOM      8  C   UNL d   1      53.151  31.526  53.230  0.00  0.00     0.064 A 
ATOM      9  C   UNL d   1      52.497  31.024  53.203  0.00  0.00     0.103 A 
ATOM     10  O   UNL d   1      50.174  32.354  53.118  0.00  0.00    -0.264 OA
ATOM     11  O   UNL d   1      53.698  32.846  53.256  0.00  0.00    -0.286 OA
ATOM     12  C   UNL d   1      53.907  31.220  53.258  0.00  0.00     0.035 A 
ATOM     13  C   UNL d   1      52.604  30.208  53.204  0.00  0.00     0.027 A 
ATOM     14  C   UNL d   1      54.018  30.396  53.259  0.00  0.00     0.140 A 
ATOM     15  C   UNL d   1      53.359  29.901  53.232  0.00  0.00     0.032 A 
ATOM     16  F   UNL d   1      54.779  30.083  53.287  0.00  0.00    -0.204 F 
ENDROOT
BRANCH   4  17
ATOM     17  C   UNL d   1      52.480  34.110  53.214  0.00  0.00     0.041 A 
ATOM     18  C   UNL d   1      52.657  34.472  53.932  0.00  0.00     0.118 A 
ATOM     19  C   UNL d   1      53.121  35.151  53.947  0.00  0.00     0.116 A 
ATOM     20  C   UNL d   1      53.410  35.471  53.241  0.00  0.00     0.026 A 
ATOM     21  C   UNL d   1      53.232  35.108  52.520  0.00  0.00     0.002 A 
ATOM     22  C   UNL d   1      52.766  34.426  52.507  0.00  0.00     0.004 A 
BRANCH  18  23
ATOM     23  O   UNL d   1      52.368  34.151  54.633  0.00  0.00    -0.326 OA
ATOM     24  C   UNL d   1      52.769  34.358  55.329  0.00  0.00     0.181 C 
ENDBRANCH  18  23
BRANCH  19  25
ATOM     25  O   UNL d   1      53.299  35.513  54.668  0.00  0.00    -0.326 OA
ATOM     26  C   UNL d   1      53.497  36.311  54.691  0.00  0.00     0.181 C 
ENDBRANCH  19  25
ENDBRANCH   4  17
BRANCH   3  27
ATOM     27  C   UNL d   1      50.695  34.068  53.144  0.00  0.00     0.102 C 
BRANCH  27  28
ATOM     28  C   UNL d   1      49.966  34.029  52.756  0.00  0.00     0.100 C 
BRANCH  28  29
ATOM     29  N   UNL d   1      49.459  34.679  52.756  0.00  0.00    -0.298 N 
ATOM     30  C   UNL d   1      49.318  35.089  53.457  0.00  0.00     0.107 A 
ATOM     31  C   UNL d   1      48.817  35.734  53.461  0.00  0.00     0.142 A 
ATOM     32  O   UNL d   1      48.450  35.974  52.756  0.00  0.00    -0.300 OA
ATOM     33  C   UNL d   1      48.590  35.565  52.055  0.00  0.00     0.142 A 
ATOM     34  C   UNL d   1      49.096  34.914  52.051  0.00  0.00     0.107 A 
ENDBRANCH  28  29
ENDBRANCH  27  28
ENDBRANCH   3  27
TORSDOF 6
ENDMDL
MODEL 2
REMARK VINA RESULT:      -4.3      2.143      4.659
REMARK  6 active torsions:
REMARK  status: ('A' for Active; 'I' for Inactive)
REMARK    1  A    between atoms: C_12  and  N_3 
REMARK    2  A    between atoms: C_8  and  C_4 
REMARK    3  A    between atoms: O_23  and  C_11 
REMARK    4  A    between atoms: C_19  and  C_12 
REMARK    5  A    between atoms: N_13  and  C_19 
REMARK    6  A    between atoms: O_26  and  C_17 
ROOT
ATOM      1  C   UNL d   1      52.320  32.838  53.469  0.00  0.00     0.083 A 
ATOM      2  C   UNL d   1      51.900  32.360  52.944  0.00  0.00     0.161 A 
ATOM      3  N   UNL d   1      52.932  31.663  53.418  0.00  0.00    -0.270 N 
ATOM      4  C   UNL d   1      52.950  32.406  53.756  0.00  0.00     0.074 A 
ATOM      5  C   UNL d   1      52.281  31.628  52.912  0.00  0.00     0.288 A 
ATOM      6  C   UNL d   1      52.071  33.608  53.618  0.00  0.00     0.201 A 
ATOM      7  O   UNL d   1      51.230  32.653  52.567  0.00  0.00    -0.302 OA
ATOM      8  C   UNL d   1      51.400  33.901  53.240  0.00  0.00     0.064 A 
ATOM      9  C   UNL d   1      50.980  33.424  52.714  0.00  0.00     0.103 A 
ATOM     10  O   UNL d   1      52.049  30.982  52.455  0.00  0.00    -0.264 OA
ATOM     11  O   UNL d   1      52.491  34.085  54.143  0.00  0.00    -0.286 OA
ATOM     12  C   UNL d   1      51.156  34.665  53.389  0.00  0.00     0.035 A 
ATOM     13  C   UNL d   1      50.310  33.717  52.337  0.00  0.00     0.027 A 
ATOM     14  C   UNL d   1      50.480  34.965  53.010  0.00  0.00     0.140 A 
ATOM     15  C   UNL d   1      50.065  34.481  52.486  0.00  0.00     0.032 A 
ATOM     16  F   UNL d   1      50.231  35.735  53.158  0.00  0.00    -0.204 F 
ENDROOT
BRANCH   4  17
ATOM     17  C   UNL d   1      53.518  32.669  54.300  0.00  0.00     0.041 A 
ATOM     18  C   UNL d   1      54.230  32.990  54.036  0.00  0.00     0.118 A 
ATOM     19  C   UNL d   1      54.790  33.249  54.580  0.00  0.00     0.116 A 
ATOM     20  C   UNL d   1      54.640  33.189  55.391  0.00  0.00     0.026 A 
ATOM     21  C   UNL d   1      53.926  32.868  55.656  0.00  0.00     0.002 A 
ATOM     22  C   UNL d   1      53.364  32.607  55.108  0.00  0.00     0.004 A 
BRANCH  18  23
ATOM     23  O   UNL d   1      54.376  33.049  53.229  0.00  0.00    -0.326 OA
ATOM     24  C   UNL d   1      55.172  33.052  52.995  0.00  0.00     0.181 C 
ENDBRANCH  18  23
BRANCH  19  25
ATOM     25  O   UNL d   1      55.504  33.571  54.315  0.00  0.00    -0.326 OA
ATOM     26  C   UNL d   1      55.939  34.069  54.804  0.00  0.00     0.181 C 
ENDBRANCH  19  25
ENDBRANCH   4  17
BRANCH   3  27
ATOM     27  C   UNL d   1      53.465  31.048  53.551  0.00  0.00     0.102 C 
BRANCH  27  28
ATOM     28  C   UNL d   1      53.258  30.268  53.373  0.00  0.00     0.100 C 
BRANCH  28  29
ATOM     29  N   UNL d   1      53.530  29.647  53.844  0.00  0.00    -0.298 N 
ATOM     30  C   UNL d   1      53.027  29.301  54.397  0.00  0.00     0.107 A 
ATOM     31  C   UNL d   1      53.293  28.687  54.865  0.00  0.00     0.142 A 
ATOM     32  O   UNL d   1      54.072  28.413  54.781  0.00  0.00    -0.300 OA
ATOM     33  C   UNL d   1      54.576  28.758  54.228  0.00  0.00     0.142 A 
ATOM     34  C   UNL d   1      54.307  29.378  53.756  0.00  0.00     0.107 A 
ENDBRANCH  28  29
ENDBRANCH  27  28
ENDBRANCH   3  27
TORSDOF 6
ENDMDL
MODEL 3
REMARK VINA RESULT:      -3.9      2.144      4.559
REMARK  6 active torsions:
REMARK  status: ('A' for Active; 'I' for Inactive)
REMARK    1  A    between atoms: C_12  and  N_3 
REMARK    2  A    between atoms: C_8  and  C_4 
REMARK    3  A    between atoms: O_23  and  C_11 
REMARK    4  A    between atoms: C_19  and  C_12 
REMARK    5  A    between atoms: N_13  and  C_19 
REMARK    6  A    between atoms: O_26  and  C_17 
ROOT
ATOM      1  C   UNL d   1      52.276  32.743  53.293  0.00  0.00     0.083 A 
ATOM      2  C   UNL d   1      51.647  32.215  53.206  0.00  0.00     0.161 A 
ATOM      3  N   UNL d   1      52.754  31.519  53.466  0.00  0.00    -0.270 N 
ATOM      4  C   UNL d   1      52.949  32.311  53.452  0.00  0.00     0.074 A 
ATOM      5  C   UNL d   1      51.945  31.452  53.314  0.00  0.00     0.288 A 
ATOM      6  C   UNL d   1      52.149  33.552  53.215  0.00  0.00     0.201 A 
ATOM      7  O   UNL d   1      50.892  32.497  53.042  0.00  0.00    -0.302 OA
ATOM      8  C   UNL d   1      51.393  33.834  53.050  0.00  0.00     0.064 A 
ATOM      9  C   UNL d   1      50.764  33.307  52.963  0.00  0.00     0.103 A 
ATOM     10  O   UNL d   1      51.509  30.753  53.276  0.00  0.00    -0.264 OA
ATOM     11  O   UNL d   1      52.778  34.080  53.302  0.00  0.00    -0.286 OA
ATOM     12  C   UNL d   1      51.271  34.638  52.974  0.00  0.00     0.035 A 
ATOM     13  C   UNL d   1      50.010  33.589  52.799  0.00  0.00     0.027 A 
ATOM     14  C   UNL d   1      50.510  34.926  52.807  0.00  0.00     0.140 A 
ATOM     15  C   UNL d   1      49.887  34.392  52.722  0.00  0.00     0.032 A 
ATOM     16  F   UNL d   1      50.383  35.736  52.730  0.00  0.00    -0.204 F 
ENDROOT
BRANCH   4  17
ATOM     17  C   UNL d   1      53.709  32.617  53.579  0.00  0.00     0.041 A 
ATOM     18  C   UNL d   1      53.961  32.806  54.340  0.00  0.00     0.118 A 
ATOM     19  C   UNL d   1      54.716  33.109  54.460  0.00  0.00     0.116 A 
ATOM     20  C   UNL d   1      55.223  33.225  53.818  0.00  0.00     0.026 A 
ATOM     21  C   UNL d   1      54.971  33.037  53.054  0.00  0.00     0.002 A 
ATOM     22  C   UNL d   1      54.212  32.732  52.934  0.00  0.00     0.004 A 
BRANCH  18  23
ATOM     23  O   UNL d   1      53.454  32.688  54.978  0.00  0.00    -0.326 OA
ATOM     24  C   UNL d   1      53.804  32.654  55.729  0.00  0.00     0.181 C 
ENDBRANCH  18  23
BRANCH  19  25
ATOM     25  O   UNL d   1      54.968  33.297  55.225  0.00  0.00    -0.326 OA
ATOM     26  C   UNL d   1      55.555  33.862  55.338  0.00  0.00     0.181 C 
ENDBRANCH  19  25
ENDBRANCH   4  17
BRANCH   3  27
ATOM     27  C   UNL d   1      53.265  30.887  53.607  0.00  0.00     0.102 C 
BRANCH  27  28
ATOM     28  C   UNL d   1      52.995  30.108  53.548  0.00  0.00     0.100 C 
BRANCH  28  29
ATOM     29  N   UNL d   1      53.358  29.508  53.983  0.00  0.00    -0.298 N 
ATOM     30  C   UNL d   1      53.001  29.228  54.671  0.00  0.00     0.107 A 
ATOM     31  C   UNL d   1      53.357  28.635  55.105  0.00  0.00     0.142 A 
ATOM     32  O   UNL d   1      54.080  28.315  54.850  0.00  0.00    -0.300 OA
ATOM     33  C   UNL d   1      54.437  28.594  54.163  0.00  0.00     0.142 A 
ATOM     34  C   UNL d   1      54.078  29.194  53.725  0.00  0.00     0.107 A 
ENDBRANCH  28  29
ENDBRANCH  27  28
ENDBRANCH   3  27
TORSDOF 6
ENDMDL
MODEL 4
REMARK VINA RESULT:      -3.8      1.620      2.430
REMARK  6 active torsions:
REMARK  status: ('A' for Active; 'I' for Inactive)
REMARK    1  A    between atoms: C_12  and  N_3 
REMARK    2  A    between atoms: C_8  and  C_4 
REMARK    3  A    between atoms: O_23  and  C_11 
REMARK    4  A    between atoms: C_19  and  C_12 
REMARK    5  A    between atoms: N_13  and  C_19 
REMARK    6  A    between atoms: O_26  and  C_17 
ROOT
ATOM      1  C   UNL d   1      53.196  31.223  53.838  0.00  0.00     0.083 A 
ATOM      2  C   UNL d   1      52.710  30.958  53.227  0.00  0.00     0.161 A 
ATOM      3  N   UNL d   1      52.761  32.289  53.182  0.00  0.00    -0.270 N 
ATOM      4  C   UNL d   1      53.224  32.037  53.806  0.00  0.00     0.074 A 
ATOM      5  C   UNL d   1      52.438  31.622  52.817  0.00  0.00     0.288 A 
ATOM      6  C   UNL d   1      53.552  30.682  54.347  0.00  0.00     0.201 A 
ATOM      7  O   UNL d   1      52.579  30.152  53.124  0.00  0.00    -0.302 OA
ATOM      8  C   UNL d   1      53.421  29.876  54.244  0.00  0.00     0.064 A 
ATOM      9  C   UNL d   1      52.934  29.610  53.633  0.00  0.00     0.103 A 
ATOM     10  O   UNL d   1      51.936  31.615  52.163  0.00  0.00    -0.264 OA
ATOM     11  O   UNL d   1      54.038  30.948  54.958  0.00  0.00    -0.286 OA
ATOM     12  C   UNL d   1      53.775  29.343  54.750  0.00  0.00     0.035 A 
ATOM     13  C   UNL d   1      52.804  28.805  53.530  0.00  0.00     0.027 A 
ATOM     14  C   UNL d   1      53.646  28.528  54.650  0.00  0.00     0.140 A 
ATOM     15  C   UNL d   1      53.158  28.271  54.036  0.00  0.00     0.032 A 
ATOM     16  F   UNL d   1      54.001  27.988  55.158  0.00  0.00    -0.204 F 
ENDROOT
BRANCH   4  17
ATOM     17  C   UNL d   1      53.648  32.535  54.316  0.00  0.00     0.041 A 
ATOM     18  C   UNL d   1      54.381  32.835  54.091  0.00  0.00     0.118 A 
ATOM     19  C   UNL d   1      54.797  33.327  54.601  0.00  0.00     0.116 A 
ATOM     20  C   UNL d   1      54.481  33.522  55.340  0.00  0.00     0.026 A 
ATOM     21  C   UNL d   1      53.745  33.222  55.566  0.00  0.00     0.002 A 
ATOM     22  C   UNL d   1      53.327  32.726  55.052  0.00  0.00     0.004 A 
BRANCH  18  23
ATOM     23  O   UNL d   1      54.694  32.639  53.356  0.00  0.00    -0.326 OA
ATOM     24  C   UNL d   1      55.400  33.017  53.140  0.00  0.00     0.181 C 
ENDBRANCH  18  23
BRANCH  19  25
ATOM     25  O   UNL d   1      55.533  33.628  54.375  0.00  0.00    -0.326 OA
ATOM     26  C   UNL d   1      55.927  34.162  54.861  0.00  0.00     0.181 C 
ENDBRANCH  19  25
ENDBRANCH   4  17
BRANCH   3  27
ATOM     27  C   UNL d   1      52.631  33.069  52.947  0.00  0.00     0.102 C 
BRANCH  27  28
ATOM     28  C   UNL d   1      51.948  33.273  52.529  0.00  0.00     0.100 C 
BRANCH  28  29
ATOM     29  N   UNL d   1      51.522  33.949  52.734  0.00  0.00    -0.298 N 
ATOM     30  C   UNL d   1      51.916  34.666  52.836  0.00  0.00     0.107 A 
ATOM     31  C   UNL d   1      51.498  35.338  53.038  0.00  0.00     0.142 A 
ATOM     32  O   UNL d   1      50.675  35.296  53.141  0.00  0.00    -0.300 OA
ATOM     33  C   UNL d   1      50.280  34.580  53.039  0.00  0.00     0.142 A 
ATOM     34  C   UNL d   1      50.703  33.901  52.834  0.00  0.00     0.107 A 
ENDBRANCH  28  29
ENDBRANCH  27  28
ENDBRANCH   3  27
TORSDOF 6
ENDMDL
MODEL 5
REMARK VINA RESULT:      -2.6      1.561      3.205
REMARK  6 active torsions:
REMARK  status: ('A' for Active; 'I' for Inactive)
REMARK    1  A    between atoms: C_12  and  N_3 
REMARK    2  A    between atoms: C_8  and  C_4 
REMARK    3  A    between atoms: O_23  and  C_11 
REMARK    4  A    between atoms: C_19  and  C_12 
REMARK    5  A    between atoms: N_13  and  C_19 
REMARK    6  A    between atoms: O_26  and  C_17 
ROOT
ATOM      1  C   UNL d   1      52.866  32.060  53.424  0.00  0.00     0.083 A 
ATOM      2  C   UNL d   1      53.661  32.019  53.639  0.00  0.00     0.161 A 
ATOM      3  N   UNL d   1      53.279  33.296  53.665  0.00  0.00    -0.270 N 
ATOM      4  C   UNL d   1      52.638  32.843  53.442  0.00  0.00     0.074 A 
ATOM      5  C   UNL d   1      53.919  32.790  53.790  0.00  0.00     0.288 A 
ATOM      6  C   UNL d   1      52.452  31.373  53.240  0.00  0.00     0.201 A 
ATOM      7  O   UNL d   1      54.043  31.291  53.670  0.00  0.00    -0.302 OA
ATOM      8  C   UNL d   1      52.834  30.644  53.270  0.00  0.00     0.064 A 
ATOM      9  C   UNL d   1      53.630  30.603  53.485  0.00  0.00     0.103 A 
ATOM     10  O   UNL d   1      54.680  33.008  54.022  0.00  0.00    -0.264 OA
ATOM     11  O   UNL d   1      51.657  31.414  53.024  0.00  0.00    -0.286 OA
ATOM     12  C   UNL d   1      52.421  29.965  53.086  0.00  0.00     0.035 A 
ATOM     13  C   UNL d   1      54.011  29.875  53.516  0.00  0.00     0.027 A 
ATOM     14  C   UNL d   1      52.803  29.228  53.116  0.00  0.00     0.140 A 
ATOM     15  C   UNL d   1      53.599  29.196  53.332  0.00  0.00     0.032 A 
ATOM     16  F   UNL d   1      52.389  28.541  52.932  0.00  0.00    -0.204 F 
ENDROOT
BRANCH   4  17
ATOM     17  C   UNL d   1      51.884  33.139  53.264  0.00  0.00     0.041 A 
ATOM     18  C   UNL d   1      51.737  33.497  52.537  0.00  0.00     0.118 A 
ATOM     19  C   UNL d   1      50.988  33.788  52.366  0.00  0.00     0.116 A 
ATOM     20  C   UNL d   1      50.380  33.722  52.923  0.00  0.00     0.026 A 
ATOM     21  C   UNL d   1      50.527  33.363  53.653  0.00  0.00     0.002 A 
ATOM     22  C   UNL d   1      51.281  33.071  53.824  0.00  0.00     0.004 A 
BRANCH  18  23
ATOM     23  O   UNL d   1      52.344  33.560  51.984  0.00  0.00    -0.326 OA
ATOM     24  C   UNL d   1      52.268  34.162  51.418  0.00  0.00     0.181 C 
ENDBRANCH  18  23
BRANCH  19  25
ATOM     25  O   UNL d   1      50.841  34.147  51.636  0.00  0.00    -0.326 OA
ATOM     26  C   UNL d   1      50.085  34.415  51.452  0.00  0.00     0.181 C 
ENDBRANCH  19  25
ENDBRANCH   4  17
BRANCH   3  27
ATOM     27  C   UNL d   1      53.297  34.116  53.754  0.00  0.00     0.102 C 
BRANCH  27  28
ATOM     28  C   UNL d   1      53.667  34.459  54.409  0.00  0.00     0.100 C 
BRANCH  28  29
ATOM     29  N   UNL d   1      53.446  35.212  54.664  0.00  0.00    -0.298 N 
ATOM     30  C   UNL d   1      53.068  35.303  55.391  0.00  0.00     0.107 A 
ATOM     31  C   UNL d   1      52.848  36.047  55.647  0.00  0.00     0.142 A 
ATOM     32  O   UNL d   1      53.005  36.710  55.173  0.00  0.00    -0.300 OA
ATOM     33  C   UNL d   1      53.382  36.619  54.446  0.00  0.00     0.142 A 
ATOM     34  C   UNL d   1      53.605  35.868  54.187  0.00  0.00     0.107 A 
ENDBRANCH  28  29
ENDBRANCH  27  28
ENDBRANCH   3  27
TORSDOF 6
ENDMDL
