MODEL 1
REMARK VINA RESULT:      -5.0      0.000      0.000
REMARK  8 active torsions:
REMARK  status: ('A' for Active; 'I' for Inactive)
REMARK    1  A    between atoms: N_5  and  C_1 
REMARK    2  A    between atoms: C_2  and  N_5 
REMARK    3  A    between atoms: N_3  and  C_2 
REMARK       I    between atoms: C_6  and  N_3 
REMARK    4  A    between atoms: C_13  and  C_6 
REMARK    5  A    between atoms: C_9  and  C_7 
REMARK    6  A    between atoms: C_11  and  C_9 
REMARK    7  A    between atoms: O_21  and  C_11 
REMARK    8  A    between atoms: C_23  and  O_21 
ROOT
ATOM      1  C   UNL d   1      57.832   0.306  30.560  0.00  0.00     0.225 C 
ATOM      2  S   UNL d   1      58.475   0.682  30.886  0.00  0.00    -0.037 SA
ENDROOT
BRANCH   1   3
ATOM      3  N   UNL d   1      57.817   0.153  29.749  0.00  0.00    -0.192 NA
BRANCH   3   4
ATOM      4  C   UNL d   1      58.529  -0.026  29.347  0.00  0.00     0.196 A 
ATOM      5  N   UNL d   1      58.797  -0.758  29.139  0.00  0.00    -0.220 NA
ATOM      6  C   UNL d   1      59.502  -0.658  28.764  0.00  0.00     0.095 A 
ATOM      7  C   UNL d   1      59.664   0.150  28.744  0.00  0.00     0.058 A 
ATOM      8  S   UNL d   1      59.058   0.529  29.106  0.00  0.00    -0.046 SA
BRANCH   6   9
ATOM      9  C   UNL d   1      59.969  -1.283  28.456  0.00  0.00     0.088 C 
BRANCH   9  10
ATOM     10  C   UNL d   1      60.246  -1.880  28.926  0.00  0.00     0.302 C 
ATOM     11  O   UNL d   1      60.876  -1.777  29.438  0.00  0.00    -0.259 OA
BRANCH  10  12
ATOM     12  O   UNL d   1      59.882  -2.636  28.894  0.00  0.00    -0.271 OA
BRANCH  12  13
ATOM     13  C   UNL d   1      60.359  -3.310  28.945  0.00  0.00     0.126 C 
ATOM     14  C   UNL d   1      60.005  -4.034  28.783  0.00  0.00     0.029 C 
ENDBRANCH  12  13
ENDBRANCH  10  12
ENDBRANCH   9  10
ENDBRANCH   6   9
ENDBRANCH   3   4
ENDBRANCH   1   3
BRANCH   1  15
ATOM     15  N   UNL d   1      57.205   0.079  31.016  0.00  0.00    -0.179 NA
ATOM     16  C   UNL d   1      57.228   0.213  31.836  0.00  0.00     0.281 C 
ATOM     17  O   UNL d   1      57.881   0.571  32.174  0.00  0.00    -0.265 OA
BRANCH  16  18
ATOM     18  C   UNL d   1      56.586  -0.019  32.312  0.00  0.00     0.058 A 
ATOM     19  C   UNL d   1      56.492  -0.814  32.537  0.00  0.00     0.007 A 
ATOM     20  C   UNL d   1      55.845  -1.020  33.011  0.00  0.00     0.030 A 
ATOM     21  C   UNL d   1      55.299  -0.442  33.259  0.00  0.00     0.140 A 
ATOM     22  C   UNL d   1      55.404   0.334  33.031  0.00  0.00     0.030 A 
ATOM     23  F   UNL d   1      54.668  -0.644  33.721  0.00  0.00    -0.204 F 
ATOM     24  C   UNL d   1      56.039   0.554  32.562  0.00  0.00     0.007 A 
ENDBRANCH  16  18
ENDBRANCH   1  15
TORSDOF 8
ENDMDL
MODEL 2
REMARK VINA RESULT:      -4.3      2.000      5.172
REMARK  8 active torsions:
REMARK  status: ('A' for Active; 'I' for Inactive)
REMARK    1  A    between atoms: N_5  and  C_1 
REMARK    2  A    between atoms: C_2  and  N_5 
REMARK    3  A    between atoms: N_3  and  C_2 
REMARK       I    between atoms: C_6  and  N_3 
REMARK    4  A    between atoms: C_13  and  C_6 
REMARK    5  A    between atoms: C_9  and  C_7 
REMARK    6  A    between atoms: C_11  and  C_9 
REMARK    7  A    between atoms: O_21  and  C_11 
REMARK    8  A    between atoms: C_23  and  O_21 
ROOT
ATOM      1  C   UNL d   1      59.125  -0.163  29.323  0.00  0.00     0.225 C 
ATOM      2  S   UNL d   1      59.041   0.320  28.674  0.00  0.00    -0.037 SA
ENDROOT
BRANCH   1   3
ATOM      3  N   UNL d   1      59.105   0.164  30.080  0.00  0.00    -0.192 NA
BRANCH   3   4
ATOM      4  C   UNL d   1      58.370   0.298  30.456  0.00  0.00     0.196 A 
ATOM      5  N   UNL d   1      58.170   0.101  31.213  0.00  0.00    -0.220 NA
ATOM      6  C   UNL d   1      57.410   0.336  31.329  0.00  0.00     0.095 A 
ATOM      7  C   UNL d   1      57.143   0.682  30.630  0.00  0.00     0.058 A 
ATOM      8  S   UNL d   1      57.743   0.652  30.100  0.00  0.00    -0.046 SA
BRANCH   6   9
ATOM      9  C   UNL d   1      56.986   0.235  32.046  0.00  0.00     0.088 C 
BRANCH   9  10
ATOM     10  C   UNL d   1      56.566  -0.439  32.203  0.00  0.00     0.302 C 
ATOM     11  O   UNL d   1      56.866  -1.185  32.051  0.00  0.00    -0.259 OA
BRANCH  10  12
ATOM     12  O   UNL d   1      55.796  -0.380  32.532  0.00  0.00    -0.271 OA
BRANCH  12  13
ATOM     13  C   UNL d   1      55.710  -0.431  33.354  0.00  0.00     0.126 C 
ATOM     14  C   UNL d   1      54.991  -0.190  33.672  0.00  0.00     0.029 C 
ENDBRANCH  12  13
ENDBRANCH  10  12
ENDBRANCH   9  10
ENDBRANCH   6   9
ENDBRANCH   3   4
ENDBRANCH   1   3
BRANCH   1  15
ATOM     15  N   UNL d   1      59.229  -0.960  29.240  0.00  0.00    -0.179 NA
ATOM     16  C   UNL d   1      59.883  -1.243  28.813  0.00  0.00     0.281 C 
ATOM     17  O   UNL d   1      60.415  -0.717  28.482  0.00  0.00    -0.265 OA
BRANCH  16  18
ATOM     18  C   UNL d   1      59.997  -2.062  28.723  0.00  0.00     0.058 A 
ATOM     19  C   UNL d   1      60.762  -2.377  28.644  0.00  0.00     0.007 A 
ATOM     20  C   UNL d   1      60.851  -3.196  28.556  0.00  0.00     0.030 A 
ATOM     21  C   UNL d   1      60.185  -3.696  28.547  0.00  0.00     0.140 A 
ATOM     22  C   UNL d   1      59.439  -3.374  28.626  0.00  0.00     0.030 A 
ATOM     23  F   UNL d   1      60.271  -4.494  28.461  0.00  0.00    -0.204 F 
ATOM     24  C   UNL d   1      59.335  -2.565  28.714  0.00  0.00     0.007 A 
ENDBRANCH  16  18
ENDBRANCH   1  15
TORSDOF 8
ENDMDL
MODEL 3
REMARK VINA RESULT:      -4.2      1.094      1.430
REMARK  8 active torsions:
REMARK  status: ('A' for Active; 'I' for Inactive)
REMARK    1  A    between atoms: N_5  and  C_1 
REMARK    2  A    between atoms: C_2  and  N_5 
REMARK    3  A    between atoms: N_3  and  C_2 
REMARK       I    between atoms: C_6  and  N_3 
REMARK    4  A    between atoms: C_13  and  C_6 
REMARK    5  A    between atoms: C_9  and  C_7 
REMARK    6  A    between atoms: C_11  and  C_9 
REMARK    7  A    between atoms: O_21  and  C_11 
REMARK    8  A    between atoms: C_23  and  O_21 
ROOT
ATOM      1  C   UNL d   1      57.225  -0.408  31.324  0.00  0.00     0.225 C 
ATOM      2  S   UNL d   1      57.678  -1.080  31.392  0.00  0.00    -0.037 SA
ENDROOT
BRANCH   1   3
ATOM      3  N   UNL d   1      57.141  -0.046  30.588  0.00  0.00    -0.192 NA
BRANCH   3   4
ATOM      4  C   UNL d   1      57.812   0.070  30.102  0.00  0.00     0.196 A 
ATOM      5  N   UNL d   1      58.051  -0.396  29.487  0.00  0.00    -0.220 NA
ATOM      6  C   UNL d   1      58.722  -0.069  29.186  0.00  0.00     0.095 A 
ATOM      7  C   UNL d   1      58.892   0.607  29.626  0.00  0.00     0.058 A 
ATOM      8  S   UNL d   1      58.325   0.682  30.186  0.00  0.00    -0.046 SA
BRANCH   6   9
ATOM      9  C   UNL d   1      59.152  -0.382  28.537  0.00  0.00     0.088 C 
BRANCH   9  10
ATOM     10  C   UNL d   1      59.848  -0.782  28.639  0.00  0.00     0.302 C 
ATOM     11  O   UNL d   1      60.527  -0.415  28.910  0.00  0.00    -0.259 OA
BRANCH  10  12
ATOM     12  O   UNL d   1      59.883  -1.603  28.465  0.00  0.00    -0.271 OA
BRANCH  12  13
ATOM     13  C   UNL d   1      60.592  -2.008  28.601  0.00  0.00     0.126 C 
ATOM     14  C   UNL d   1      60.543  -2.733  28.986  0.00  0.00     0.029 C 
ENDBRANCH  12  13
ENDBRANCH  10  12
ENDBRANCH   9  10
ENDBRANCH   6   9
ENDBRANCH   3   4
ENDBRANCH   1   3
BRANCH   1  15
ATOM     15  N   UNL d   1      56.856  -0.086  31.967  0.00  0.00    -0.179 NA
ATOM     16  C   UNL d   1      56.375  -0.569  32.443  0.00  0.00     0.281 C 
ATOM     17  O   UNL d   1      56.279  -1.360  32.260  0.00  0.00    -0.265 OA
BRANCH  16  18
ATOM     18  C   UNL d   1      55.991  -0.245  33.106  0.00  0.00     0.058 A 
ATOM     19  C   UNL d   1      56.392   0.278  33.614  0.00  0.00     0.007 A 
ATOM     20  C   UNL d   1      55.989   0.588  34.268  0.00  0.00     0.030 A 
ATOM     21  C   UNL d   1      55.196   0.380  34.415  0.00  0.00     0.140 A 
ATOM     22  C   UNL d   1      54.815  -0.134  33.909  0.00  0.00     0.030 A 
ATOM     23  F   UNL d   1      54.804   0.682  35.053  0.00  0.00    -0.204 F 
ATOM     24  C   UNL d   1      55.200  -0.449  33.258  0.00  0.00     0.007 A 
ENDBRANCH  16  18
ENDBRANCH   1  15
TORSDOF 8
ENDMDL
MODEL 4
REMARK VINA RESULT:      -2.6      2.142      5.275
REMARK  8 active torsions:
REMARK  status: ('A' for Active; 'I' for Inactive)
REMARK    1  A    between atoms: N_5  and  C_1 
REMARK    2  A    between atoms: C_2  and  N_5 
REMARK    3  A    between atoms: N_3  and  C_2 
REMARK       I    between atoms: C_6  and  N_3 
REMARK    4  A    between atoms: C_13  and  C_6 
REMARK    5  A    between atoms: C_9  and  C_7 
REMARK    6  A    between atoms: C_11  and  C_9 
REMARK    7  A    between atoms: O_21  and  C_11 
REMARK    8  A    between atoms: C_23  and  O_21 
ROOT
ATOM      1  C   UNL d   1      58.457   0.230  30.250  0.00  0.00     0.225 C 
ATOM      2  S   UNL d   1      57.890   0.512  29.740  0.00  0.00    -0.037 SA
ENDROOT
BRANCH   1   3
ATOM      3  N   UNL d   1      58.656   0.667  30.921  0.00  0.00    -0.192 NA
BRANCH   3   4
ATOM      4  C   UNL d   1      58.143   0.670  31.582  0.00  0.00     0.196 A 
ATOM      5  N   UNL d   1      57.335   0.675  31.568  0.00  0.00    -0.220 NA
ATOM      6  C   UNL d   1      57.083   0.677  32.332  0.00  0.00     0.095 A 
ATOM      7  C   UNL d   1      57.749   0.674  32.817  0.00  0.00     0.058 A 
ATOM      8  S   UNL d   1      58.395   0.670  32.344  0.00  0.00    -0.046 SA
BRANCH   6   9
ATOM      9  C   UNL d   1      56.277   0.682  32.566  0.00  0.00     0.088 C 
BRANCH   9  10
ATOM     10  C   UNL d   1      56.007   0.224  33.176  0.00  0.00     0.302 C 
ATOM     11  O   UNL d   1      55.889  -0.582  33.098  0.00  0.00    -0.259 OA
BRANCH  10  12
ATOM     12  O   UNL d   1      55.839   0.579  33.918  0.00  0.00    -0.271 OA
BRANCH  12  13
ATOM     13  C   UNL d   1      55.397   0.152  34.472  0.00  0.00     0.126 C 
ATOM     14  C   UNL d   1      54.731   0.518  34.785  0.00  0.00     0.029 C 
ENDBRANCH  12  13
ENDBRANCH  10  12
ENDBRANCH   9  10
ENDBRANCH   6   9
ENDBRANCH   3   4
ENDBRANCH   1   3
BRANCH   1  15
ATOM     15  N   UNL d   1      58.831  -0.473  30.112  0.00  0.00    -0.179 NA
ATOM     16  C   UNL d   1      58.655  -0.899  29.419  0.00  0.00     0.281 C 
ATOM     17  O   UNL d   1      58.109  -0.606  28.886  0.00  0.00    -0.265 OA
BRANCH  16  18
ATOM     18  C   UNL d   1      59.037  -1.623  29.270  0.00  0.00     0.058 A 
ATOM     19  C   UNL d   1      59.820  -1.748  29.519  0.00  0.00     0.007 A 
ATOM     20  C   UNL d   1      60.179  -2.477  29.360  0.00  0.00     0.030 A 
ATOM     21  C   UNL d   1      59.762  -3.075  28.957  0.00  0.00     0.140 A 
ATOM     22  C   UNL d   1      58.994  -2.940  28.718  0.00  0.00     0.030 A 
ATOM     23  F   UNL d   1      60.112  -3.786  28.801  0.00  0.00    -0.204 F 
ATOM     24  C   UNL d   1      58.625  -2.223  28.869  0.00  0.00     0.007 A 
ENDBRANCH  16  18
ENDBRANCH   1  15
TORSDOF 8
ENDMDL
