MODEL 1
REMARK VINA RESULT:      -3.6      0.000      0.000
REMARK  0 active torsions:
REMARK  status: ('A' for Active; 'I' for Inactive)
ROOT
ATOM      1  C   UNL d   1      29.776  17.259 -24.556  0.00  0.00     0.134 A 
ATOM      2  N   UNL d   1      30.586  17.412 -24.555  0.00  0.00    -0.234 NA
ATOM      3  C   UNL d   1      29.478  16.655 -24.075  0.00  0.00     0.045 A 
ATOM      4  C   UNL d   1      31.091  16.967 -24.079  0.00  0.00     0.207 A 
ATOM      5  N   UNL d   1      30.795  16.360 -23.596  0.00  0.00    -0.244 NA
ATOM      6  C   UNL d   1      29.986  16.207 -23.597  0.00  0.00     0.081 A 
ATOM      7  S   UNL d   1      29.268  17.702 -25.031  0.00  0.00    -0.058 SA
ATOM      8  C   UNL d   1      28.666  16.499 -24.073  0.00  0.00     0.004 A 
ATOM      9  C   UNL d   1      31.394  17.566 -24.555  0.00  0.00     0.023 A 
ATOM     10  C   UNL d   1      31.592  16.518 -23.601  0.00  0.00     0.023 A 
ATOM     11  C   UNL d   1      29.679  15.606 -23.119  0.00  0.00     0.019 A 
ATOM     12  C   UNL d   1      28.363  15.900 -23.598  0.00  0.00     0.000 A 
ATOM     13  C   UNL d   1      32.395  16.668 -23.599  0.00  0.00    -0.001 A 
ATOM     14  C   UNL d   1      32.203  17.719 -24.555  0.00  0.00    -0.001 A 
ATOM     15  C   UNL d   1      28.870  15.453 -23.119  0.00  0.00     0.002 A 
ATOM     16  C   UNL d   1      32.706  17.272 -24.077  0.00  0.00    -0.000 A 
ENDROOT
TORSDOF 0
ENDMDL
MODEL 2
REMARK VINA RESULT:      -3.0      5.880      6.799
REMARK  0 active torsions:
REMARK  status: ('A' for Active; 'I' for Inactive)
ROOT
ATOM      1  C   UNL d   1      32.748  22.663 -21.577  0.00  0.00     0.134 A 
ATOM      2  N   UNL d   1      32.837  21.898 -21.870  0.00  0.00    -0.234 NA
ATOM      3  C   UNL d   1      32.819  22.796 -20.764  0.00  0.00     0.045 A 
ATOM      4  C   UNL d   1      32.994  21.273 -21.355  0.00  0.00     0.207 A 
ATOM      5  N   UNL d   1      33.066  21.404 -20.538  0.00  0.00    -0.244 NA
ATOM      6  C   UNL d   1      32.978  22.168 -20.246  0.00  0.00     0.081 A 
ATOM      7  S   UNL d   1      32.590  23.290 -22.089  0.00  0.00    -0.058 SA
ATOM      8  C   UNL d   1      32.731  23.563 -20.467  0.00  0.00     0.004 A 
ATOM      9  C   UNL d   1      32.925  21.135 -22.163  0.00  0.00     0.023 A 
ATOM     10  C   UNL d   1      33.152  20.652 -20.836  0.00  0.00     0.023 A 
ATOM     11  C   UNL d   1      33.048  22.310 -19.434  0.00  0.00     0.019 A 
ATOM     12  C   UNL d   1      32.801  23.702 -19.659  0.00  0.00     0.000 A 
ATOM     13  C   UNL d   1      33.240  19.893 -21.123  0.00  0.00    -0.001 A 
ATOM     14  C   UNL d   1      33.013  20.370 -22.456  0.00  0.00    -0.001 A 
ATOM     15  C   UNL d   1      32.959  23.075 -19.141  0.00  0.00     0.002 A 
ATOM     16  C   UNL d   1      33.171  19.747 -21.938  0.00  0.00    -0.000 A 
ENDROOT
TORSDOF 0
ENDMDL
MODEL 3
REMARK VINA RESULT:      -3.0      1.282      3.325
REMARK  0 active torsions:
REMARK  status: ('A' for Active; 'I' for Inactive)
ROOT
ATOM      1  C   UNL d   1      32.353  16.579 -23.606  0.00  0.00     0.134 A 
ATOM      2  N   UNL d   1      31.634  16.204 -23.462  0.00  0.00    -0.234 NA
ATOM      3  C   UNL d   1      32.374  17.240 -24.102  0.00  0.00     0.045 A 
ATOM      4  C   UNL d   1      30.943  16.489 -23.812  0.00  0.00     0.207 A 
ATOM      5  N   UNL d   1      30.961  17.152 -24.311  0.00  0.00    -0.244 NA
ATOM      6  C   UNL d   1      31.680  17.526 -24.454  0.00  0.00     0.081 A 
ATOM      7  S   UNL d   1      33.047  16.297 -23.258  0.00  0.00    -0.058 SA
ATOM      8  C   UNL d   1      33.095  17.618 -24.248  0.00  0.00     0.004 A 
ATOM      9  C   UNL d   1      30.915  15.830 -23.319  0.00  0.00     0.023 A 
ATOM     10  C   UNL d   1      30.254  16.777 -24.164  0.00  0.00     0.023 A 
ATOM     11  C   UNL d   1      31.710  18.188 -24.949  0.00  0.00     0.019 A 
ATOM     12  C   UNL d   1      33.124  18.276 -24.741  0.00  0.00     0.000 A 
ATOM     13  C   UNL d   1      29.540  16.408 -24.024  0.00  0.00    -0.001 A 
ATOM     14  C   UNL d   1      30.195  15.456 -23.175  0.00  0.00    -0.001 A 
ATOM     15  C   UNL d   1      32.430  18.561 -25.092  0.00  0.00     0.002 A 
ATOM     16  C   UNL d   1      29.506  15.743 -23.527  0.00  0.00    -0.000 A 
ENDROOT
TORSDOF 0
ENDMDL
MODEL 4
REMARK VINA RESULT:      -2.6      0.737      2.854
REMARK  0 active torsions:
REMARK  status: ('A' for Active; 'I' for Inactive)
ROOT
ATOM      1  C   UNL d   1      29.441  17.772 -24.663  0.00  0.00     0.134 A 
ATOM      2  N   UNL d   1      28.923  17.275 -24.257  0.00  0.00    -0.234 NA
ATOM      3  C   UNL d   1      30.249  17.596 -24.668  0.00  0.00     0.045 A 
ATOM      4  C   UNL d   1      29.211  16.611 -23.862  0.00  0.00     0.207 A 
ATOM      5  N   UNL d   1      30.021  16.433 -23.865  0.00  0.00    -0.244 NA
ATOM      6  C   UNL d   1      30.539  16.929 -24.270  0.00  0.00     0.081 A 
ATOM      7  S   UNL d   1      29.157  18.437 -25.059  0.00  0.00    -0.058 SA
ATOM      8  C   UNL d   1      30.772  18.092 -25.073  0.00  0.00     0.004 A 
ATOM      9  C   UNL d   1      28.405  16.780 -23.853  0.00  0.00     0.023 A 
ATOM     10  C   UNL d   1      29.503  15.948 -23.467  0.00  0.00     0.023 A 
ATOM     11  C   UNL d   1      31.349  16.760 -24.280  0.00  0.00     0.019 A 
ATOM     12  C   UNL d   1      31.577  17.924 -25.083  0.00  0.00     0.000 A 
ATOM     13  C   UNL d   1      28.992  15.455 -23.065  0.00  0.00    -0.001 A 
ATOM     14  C   UNL d   1      27.887  16.284 -23.448  0.00  0.00    -0.001 A 
ATOM     15  C   UNL d   1      31.866  17.256 -24.685  0.00  0.00     0.002 A 
ATOM     16  C   UNL d   1      28.178  15.621 -23.053  0.00  0.00    -0.000 A 
ENDROOT
TORSDOF 0
ENDMDL
MODEL 5
REMARK VINA RESULT:      -2.5      6.283      7.238
REMARK  0 active torsions:
REMARK  status: ('A' for Active; 'I' for Inactive)
ROOT
ATOM      1  C   UNL d   1      33.133  21.686 -21.276  0.00  0.00     0.134 A 
ATOM      2  N   UNL d   1      33.169  21.856 -22.081  0.00  0.00    -0.234 NA
ATOM      3  C   UNL d   1      33.035  22.304 -20.735  0.00  0.00     0.045 A 
ATOM      4  C   UNL d   1      33.108  22.636 -22.342  0.00  0.00     0.207 A 
ATOM      5  N   UNL d   1      33.009  23.258 -21.802  0.00  0.00    -0.244 NA
ATOM      6  C   UNL d   1      32.974  23.088 -20.998  0.00  0.00     0.081 A 
ATOM      7  S   UNL d   1      33.194  20.907 -21.011  0.00  0.00    -0.058 SA
ATOM      8  C   UNL d   1      32.999  22.136 -19.926  0.00  0.00     0.004 A 
ATOM      9  C   UNL d   1      33.205  22.025 -22.886  0.00  0.00     0.023 A 
ATOM     10  C   UNL d   1      33.046  23.418 -22.599  0.00  0.00     0.023 A 
ATOM     11  C   UNL d   1      32.876  23.700 -20.450  0.00  0.00     0.019 A 
ATOM     12  C   UNL d   1      32.902  22.746 -19.383  0.00  0.00     0.000 A 
ATOM     13  C   UNL d   1      33.081  23.589 -23.396  0.00  0.00    -0.001 A 
ATOM     14  C   UNL d   1      33.241  22.195 -23.691  0.00  0.00    -0.001 A 
ATOM     15  C   UNL d   1      32.840  23.530 -19.645  0.00  0.00     0.002 A 
ATOM     16  C   UNL d   1      33.179  22.977 -23.948  0.00  0.00    -0.000 A 
ENDROOT
TORSDOF 0
ENDMDL
MODEL 6
REMARK VINA RESULT:      -2.5      4.129      5.353
REMARK  0 active torsions:
REMARK  status: ('A' for Active; 'I' for Inactive)
ROOT
ATOM      1  C   UNL d   1      33.221  21.259 -23.024  0.00  0.00     0.134 A 
ATOM      2  N   UNL d   1      33.228  20.494 -23.330  0.00  0.00    -0.234 NA
ATOM      3  C   UNL d   1      33.212  21.367 -22.204  0.00  0.00     0.045 A 
ATOM      4  C   UNL d   1      33.226  19.845 -22.821  0.00  0.00     0.207 A 
ATOM      5  N   UNL d   1      33.217  19.950 -21.998  0.00  0.00    -0.244 NA
ATOM      6  C   UNL d   1      33.210  20.715 -21.692  0.00  0.00     0.081 A 
ATOM      7  S   UNL d   1      33.223  21.911 -23.530  0.00  0.00    -0.058 SA
ATOM      8  C   UNL d   1      33.206  22.134 -21.894  0.00  0.00     0.004 A 
ATOM      9  C   UNL d   1      33.234  19.730 -23.636  0.00  0.00     0.023 A 
ATOM     10  C   UNL d   1      33.223  19.199 -22.308  0.00  0.00     0.023 A 
ATOM     11  C   UNL d   1      33.201  20.832 -20.873  0.00  0.00     0.019 A 
ATOM     12  C   UNL d   1      33.197  22.249 -21.080  0.00  0.00     0.000 A 
ATOM     13  C   UNL d   1      33.230  18.440 -22.608  0.00  0.00    -0.001 A 
ATOM     14  C   UNL d   1      33.241  18.965 -23.942  0.00  0.00    -0.001 A 
ATOM     15  C   UNL d   1      33.195  21.597 -20.568  0.00  0.00     0.002 A 
ATOM     16  C   UNL d   1      33.239  18.319 -23.430  0.00  0.00    -0.000 A 
ENDROOT
TORSDOF 0
ENDMDL
MODEL 7
REMARK VINA RESULT:      -2.4      2.954      3.796
REMARK  0 active torsions:
REMARK  status: ('A' for Active; 'I' for Inactive)
ROOT
ATOM      1  C   UNL d   1      33.077  18.822 -24.399  0.00  0.00     0.134 A 
ATOM      2  N   UNL d   1      33.018  18.011 -24.534  0.00  0.00    -0.234 NA
ATOM      3  C   UNL d   1      33.129  19.101 -23.622  0.00  0.00     0.045 A 
ATOM      4  C   UNL d   1      33.011  17.486 -23.898  0.00  0.00     0.207 A 
ATOM      5  N   UNL d   1      33.064  17.763 -23.117  0.00  0.00    -0.244 NA
ATOM      6  C   UNL d   1      33.122  18.573 -22.983  0.00  0.00     0.081 A 
ATOM      7  S   UNL d   1      33.084  19.351 -25.033  0.00  0.00    -0.058 SA
ATOM      8  C   UNL d   1      33.189  19.914 -23.484  0.00  0.00     0.004 A 
ATOM      9  C   UNL d   1      32.959  17.202 -24.668  0.00  0.00     0.023 A 
ATOM     10  C   UNL d   1      33.005  16.965 -23.258  0.00  0.00     0.023 A 
ATOM     11  C   UNL d   1      33.175  18.861 -22.209  0.00  0.00     0.019 A 
ATOM     12  C   UNL d   1      33.241  20.199 -22.714  0.00  0.00     0.000 A 
ATOM     13  C   UNL d   1      32.947  16.161 -23.389  0.00  0.00    -0.001 A 
ATOM     14  C   UNL d   1      32.900  16.391 -24.803  0.00  0.00    -0.001 A 
ATOM     15  C   UNL d   1      33.234  19.671 -22.075  0.00  0.00     0.002 A 
ATOM     16  C   UNL d   1      32.894  15.869 -24.164  0.00  0.00    -0.000 A 
ENDROOT
TORSDOF 0
ENDMDL
MODEL 8
REMARK VINA RESULT:      -2.3      3.955      5.094
REMARK  0 active torsions:
REMARK  status: ('A' for Active; 'I' for Inactive)
ROOT
ATOM      1  C   UNL d   1      33.238  20.743 -23.514  0.00  0.00     0.134 A 
ATOM      2  N   UNL d   1      33.239  21.171 -22.810  0.00  0.00    -0.234 NA
ATOM      3  C   UNL d   1      33.238  19.917 -23.486  0.00  0.00     0.045 A 
ATOM      4  C   UNL d   1      33.239  20.776 -22.086  0.00  0.00     0.207 A 
ATOM      5  N   UNL d   1      33.238  19.946 -22.055  0.00  0.00    -0.244 NA
ATOM      6  C   UNL d   1      33.238  19.519 -22.759  0.00  0.00     0.081 A 
ATOM      7  S   UNL d   1      33.238  21.135 -24.240  0.00  0.00    -0.058 SA
ATOM      8  C   UNL d   1      33.237  19.485 -24.191  0.00  0.00     0.004 A 
ATOM      9  C   UNL d   1      33.239  21.598 -22.107  0.00  0.00     0.023 A 
ATOM     10  C   UNL d   1      33.239  20.376 -21.364  0.00  0.00     0.023 A 
ATOM     11  C   UNL d   1      33.238  18.692 -22.740  0.00  0.00     0.019 A 
ATOM     12  C   UNL d   1      33.237  18.662 -24.171  0.00  0.00     0.000 A 
ATOM     13  C   UNL d   1      33.239  20.797 -20.665  0.00  0.00    -0.001 A 
ATOM     14  C   UNL d   1      33.239  22.026 -21.403  0.00  0.00    -0.001 A 
ATOM     15  C   UNL d   1      33.237  18.265 -23.444  0.00  0.00     0.002 A 
ATOM     16  C   UNL d   1      33.240  21.627 -20.681  0.00  0.00    -0.000 A 
ENDROOT
TORSDOF 0
ENDMDL
MODEL 9
REMARK VINA RESULT:      -2.0      5.066      6.206
REMARK  0 active torsions:
REMARK  status: ('A' for Active; 'I' for Inactive)
ROOT
ATOM      1  C   UNL d   1      33.094  20.679 -21.272  0.00  0.00     0.134 A 
ATOM      2  N   UNL d   1      33.043  21.476 -21.072  0.00  0.00    -0.234 NA
ATOM      3  C   UNL d   1      33.141  20.464 -22.070  0.00  0.00     0.045 A 
ATOM      4  C   UNL d   1      33.039  22.052 -21.663  0.00  0.00     0.207 A 
ATOM      5  N   UNL d   1      33.087  21.839 -22.464  0.00  0.00    -0.244 NA
ATOM      6  C   UNL d   1      33.138  21.042 -22.664  0.00  0.00     0.081 A 
ATOM      7  S   UNL d   1      33.097  20.100 -20.684  0.00  0.00    -0.058 SA
ATOM      8  C   UNL d   1      33.193  19.664 -22.274  0.00  0.00     0.004 A 
ATOM      9  C   UNL d   1      32.991  22.272 -20.872  0.00  0.00     0.023 A 
ATOM     10  C   UNL d   1      33.036  22.624 -22.258  0.00  0.00     0.023 A 
ATOM     11  C   UNL d   1      33.186  20.817 -23.459  0.00  0.00     0.019 A 
ATOM     12  C   UNL d   1      33.241  19.442 -23.064  0.00  0.00     0.000 A 
ATOM     13  C   UNL d   1      32.985  23.415 -22.062  0.00  0.00    -0.001 A 
ATOM     14  C   UNL d   1      32.940  23.070 -20.671  0.00  0.00    -0.001 A 
ATOM     15  C   UNL d   1      33.237  20.021 -23.658  0.00  0.00     0.002 A 
ATOM     16  C   UNL d   1      32.937  23.643 -21.265  0.00  0.00    -0.000 A 
ENDROOT
TORSDOF 0
ENDMDL
