MODEL 1
REMARK VINA RESULT:      59.9      0.000      0.000
REMARK  8 active torsions:
REMARK  status: ('A' for Active; 'I' for Inactive)
REMARK    1  A    between atoms: C_4  and  C_1 
REMARK    2  A    between atoms: N_6  and  C_3 
REMARK    3  A    between atoms: O_18  and  C_4 
REMARK       I    between atoms: C_7  and  N_6 
REMARK    4  A    between atoms: C_16  and  C_7 
REMARK    5  A    between atoms: C_10  and  C_8 
REMARK    6  A    between atoms: C_9  and  S_11 
REMARK    7  A    between atoms: S_11  and  C_16 
REMARK    8  A    between atoms: C_24  and  O_18 
ROOT
ATOM      1  N   UNL d   1      58.476  49.650  50.890  0.00  0.00    -0.207 NA
ATOM      2  C   UNL d   1      59.292  49.678  50.768  0.00  0.00     0.286 C 
ATOM      3  O   UNL d   1      59.591  49.707  50.000  0.00  0.00    -0.265 OA
ENDROOT
BRANCH   2   4
ATOM      4  C   UNL d   1      59.805  49.678  51.410  0.00  0.00     0.099 C 
BRANCH   4   5
ATOM      5  S   UNL d   1      60.606  49.543  51.289  0.00  0.00    -0.061 SA
BRANCH   5   6
ATOM      6  C   UNL d   1      60.862  48.846  50.931  0.00  0.00     0.133 A 
ATOM      7  N   UNL d   1      61.549  48.834  50.486  0.00  0.00    -0.141 NA
ATOM      8  N   UNL d   1      61.806  48.136  50.128  0.00  0.00    -0.148 NA
ATOM      9  C   UNL d   1      61.367  47.438  50.216  0.00  0.00     0.104 A 
ATOM     10  C   UNL d   1      60.672  47.447  50.665  0.00  0.00     0.023 A 
ATOM     11  C   UNL d   1      60.419  48.145  51.020  0.00  0.00     0.029 A 
BRANCH   9  12
ATOM     12  C   UNL d   1      61.623  46.741  49.858  0.00  0.00     0.039 A 
ATOM     13  C   UNL d   1      62.414  46.639  49.694  0.00  0.00     0.101 A 
ATOM     14  N   UNL d   1      62.673  45.948  49.339  0.00  0.00    -0.242 NA
ATOM     15  C   UNL d   1      62.125  45.352  49.146  0.00  0.00     0.099 A 
ATOM     16  C   UNL d   1      61.332  45.460  49.312  0.00  0.00     0.021 A 
ATOM     17  C   UNL d   1      61.066  46.155  49.670  0.00  0.00     0.005 A 
ENDBRANCH   9  12
ENDBRANCH   5   6
ENDBRANCH   4   5
ENDBRANCH   2   4
BRANCH   1  18
ATOM     18  C   UNL d   1      57.965  49.651  50.251  0.00  0.00     0.090 A 
ATOM     19  C   UNL d   1      57.149  49.664  50.373  0.00  0.00     0.081 A 
ATOM     20  C   UNL d   1      56.636  49.665  49.731  0.00  0.00     0.007 A 
ATOM     21  C   UNL d   1      56.933  49.652  48.965  0.00  0.00     0.000 A 
ATOM     22  C   UNL d   1      57.756  49.639  48.831  0.00  0.00     0.002 A 
ATOM     23  C   UNL d   1      58.265  49.638  49.482  0.00  0.00     0.019 A 
BRANCH  19  24
ATOM     24  C   UNL d   1      56.859  49.677  51.140  0.00  0.00     0.302 C 
ATOM     25  O   UNL d   1      56.049  49.659  51.270  0.00  0.00    -0.259 OA
BRANCH  24  26
ATOM     26  O   UNL d   1      57.376  49.707  51.779  0.00  0.00    -0.271 OA
BRANCH  26  27
ATOM     27  C   UNL d   1      57.244  49.225  52.436  0.00  0.00     0.126 C 
ATOM     28  C   UNL d   1      56.957  49.559  53.136  0.00  0.00     0.029 C 
ENDBRANCH  26  27
ENDBRANCH  24  26
ENDBRANCH  19  24
ENDBRANCH   1  18
TORSDOF 8
ENDMDL
