MODEL 1
REMARK VINA RESULT:     109.7      0.000      0.000
REMARK  1 active torsions:
REMARK  status: ('A' for Active; 'I' for Inactive)
REMARK    1  A    between atoms: C_9  and  C_3 
REMARK       I    between atoms: C_10  and  N_4 
ROOT
ATOM      1  N   UNL d   1      61.331  48.315  50.191  0.00  0.00    -0.047 N 
ATOM      2  N   UNL d   1      60.737  48.351  50.754  0.00  0.00    -0.188 N 
ATOM      3  C   UNL d   1      60.513  49.132  50.896  0.00  0.00     0.194 A 
ATOM      4  N   UNL d   1      61.538  47.590  50.059  0.00  0.00    -0.172 N 
ATOM      5  N   UNL d   1      60.979  49.628  50.405  0.00  0.00    -0.083 NA
ATOM      6  C   UNL d   1      60.588  47.596  50.965  0.00  0.00     0.104 A 
ATOM      7  O   UNL d   1      61.493  49.111  49.963  0.00  0.00    -0.089 OA
ATOM      8  C   UNL d   1      61.093  47.110  50.528  0.00  0.00     0.106 A 
ATOM      9  C   UNL d   1      62.139  47.356  49.508  0.00  0.00     0.282 C 
ATOM     10  O   UNL d   1      62.540  47.917  49.073  0.00  0.00    -0.265 OA
ATOM     11  C   UNL d   1      60.050  47.264  51.509  0.00  0.00     0.021 A 
ATOM     12  C   UNL d   1      61.057  46.300  50.637  0.00  0.00     0.021 A 
ATOM     13  C   UNL d   1      62.324  46.550  49.405  0.00  0.00     0.068 C 
ATOM     14  C   UNL d   1      60.547  45.954  51.155  0.00  0.00     0.002 A 
ATOM     15  C   UNL d   1      60.023  46.438  51.610  0.00  0.00     0.002 A 
ENDROOT
BRANCH   3  16
ATOM     16  C   UNL d   1      59.930  49.309  51.436  0.00  0.00     0.038 A 
ATOM     17  C   UNL d   1      59.173  49.411  51.204  0.00  0.00     0.003 A 
ATOM     18  C   UNL d   1      58.585  49.594  51.784  0.00  0.00     0.000 A 
ATOM     19  C   UNL d   1      58.943  49.345  50.414  0.00  0.00     0.000 C 
ATOM     20  C   UNL d   1      57.794  49.706  51.575  0.00  0.00     0.000 C 
ATOM     21  C   UNL d   1      58.797  49.659  52.541  0.00  0.00     0.000 A 
ATOM     22  C   UNL d   1      59.554  49.556  52.773  0.00  0.00     0.000 A 
ATOM     23  C   UNL d   1      60.137  49.379  52.232  0.00  0.00     0.003 A 
ATOM     24  C   UNL d   1      59.780  49.628  53.602  0.00  0.00     0.000 C 
ATOM     25  C   UNL d   1      60.919  49.273  52.472  0.00  0.00     0.000 C 
ENDBRANCH   3  16
TORSDOF 1
ENDMDL
