MODEL 1
REMARK VINA RESULT:      -5.2      0.000      0.000
REMARK  5 active torsions:
REMARK  status: ('A' for Active; 'I' for Inactive)
REMARK       I    between atoms: C_6  and  N_1 
REMARK    1  A    between atoms: C_7  and  C_3 
REMARK    2  A    between atoms: C_8  and  C_4 
REMARK    3  A    between atoms: C_11  and  C_6 
REMARK    4  A    between atoms: C_9  and  C_17 
REMARK    5  A    between atoms: C_17  and  C_11 
ROOT
ATOM      1  N   UNL d   1     -40.557  14.292  20.443  0.00  0.00    -0.195 N 
ATOM      2  N   UNL d   1     -40.816  14.417  19.680  0.00  0.00    -0.163 NA
ATOM      3  C   UNL d   1     -40.193  14.737  19.299  0.00  0.00     0.103 A 
ATOM      4  C   UNL d   1     -39.807  14.526  20.525  0.00  0.00     0.088 A 
ATOM      5  C   UNL d   1     -39.551  14.806  19.837  0.00  0.00     0.040 A 
ATOM      6  C   UNL d   1     -41.022  13.965  21.041  0.00  0.00     0.281 C 
ATOM      7  O   UNL d   1     -40.710  13.860  21.800  0.00  0.00    -0.265 OA
ENDROOT
BRANCH   4   8
ATOM      8  C   UNL d   1     -39.443  14.439  21.280  0.00  0.00     0.018 A 
ATOM      9  C   UNL d   1     -39.466  15.091  21.797  0.00  0.00     0.002 A 
ATOM     10  C   UNL d   1     -39.113  14.992  22.518  0.00  0.00     0.007 A 
ATOM     11  C   UNL d   1     -38.753  14.318  22.749  0.00  0.00     0.035 A 
ATOM     12  C   UNL d   1     -38.736  13.670  22.223  0.00  0.00     0.007 A 
ATOM     13 BR   UNL d   1     -38.398  14.276  23.526  0.00  0.00    -0.049 Br
ATOM     14  C   UNL d   1     -39.100  13.756  21.467  0.00  0.00     0.002 A 
ENDBRANCH   4   8
BRANCH   6  15
ATOM     15  C   UNL d   1     -41.833  13.738  20.860  0.00  0.00     0.069 C 
BRANCH  15  16
ATOM     16  C   UNL d   1     -42.243  13.251  21.396  0.00  0.00     0.075 C 
BRANCH  16  17
ATOM     17  C   UNL d   1     -43.022  13.035  21.252  0.00  0.00     0.211 C 
ATOM     18  O   UNL d   1     -43.630  13.347  21.732  0.00  0.00    -0.644 OA
ATOM     19  O   UNL d   1     -43.206  12.514  20.639  0.00  0.00    -0.644 OA
ENDBRANCH  16  17
ENDBRANCH  15  16
ENDBRANCH   6  15
BRANCH   3  20
ATOM     20  C   UNL d   1     -40.098  14.989  18.514  0.00  0.00     0.019 A 
ATOM     21  C   UNL d   1     -40.473  15.664  18.247  0.00  0.00     0.002 A 
ATOM     22  C   UNL d   1     -40.377  15.911  17.468  0.00  0.00     0.007 A 
ATOM     23  C   UNL d   1     -39.899  15.475  16.956  0.00  0.00     0.035 A 
ATOM     24  C   UNL d   1     -39.513  14.787  17.219  0.00  0.00     0.007 A 
ATOM     25 BR   UNL d   1     -39.779  15.719  16.114  0.00  0.00    -0.049 Br
ATOM     26  C   UNL d   1     -39.620  14.553  18.002  0.00  0.00     0.002 A 
ENDBRANCH   3  20
TORSDOF 5
ENDMDL
MODEL 2
REMARK VINA RESULT:      -4.7      2.251      4.809
REMARK  5 active torsions:
REMARK  status: ('A' for Active; 'I' for Inactive)
REMARK       I    between atoms: C_6  and  N_1 
REMARK    1  A    between atoms: C_7  and  C_3 
REMARK    2  A    between atoms: C_8  and  C_4 
REMARK    3  A    between atoms: C_11  and  C_6 
REMARK    4  A    between atoms: C_9  and  C_17 
REMARK    5  A    between atoms: C_17  and  C_11 
ROOT
ATOM      1  N   UNL d   1     -39.507  14.480  18.865  0.00  0.00    -0.195 N 
ATOM      2  N   UNL d   1     -39.161  14.385  19.596  0.00  0.00    -0.163 NA
ATOM      3  C   UNL d   1     -39.423  15.000  20.031  0.00  0.00     0.103 A 
ATOM      4  C   UNL d   1     -39.962  15.126  18.853  0.00  0.00     0.088 A 
ATOM      5  C   UNL d   1     -39.933  15.471  19.558  0.00  0.00     0.040 A 
ATOM      6  C   UNL d   1     -39.393  13.966  18.230  0.00  0.00     0.281 C 
ATOM      7  O   UNL d   1     -39.769  14.108  17.507  0.00  0.00    -0.265 OA
ENDROOT
BRANCH   4   8
ATOM      8  C   UNL d   1     -40.367  15.314  18.138  0.00  0.00     0.018 A 
ATOM      9  C   UNL d   1     -39.951  15.747  17.562  0.00  0.00     0.002 A 
ATOM     10  C   UNL d   1     -40.354  15.920  16.882  0.00  0.00     0.007 A 
ATOM     11  C   UNL d   1     -41.109  15.701  16.742  0.00  0.00     0.035 A 
ATOM     12  C   UNL d   1     -41.517  15.266  17.327  0.00  0.00     0.007 A 
ATOM     13 BR   UNL d   1     -41.479  15.915  16.001  0.00  0.00    -0.049 Br
ATOM     14  C   UNL d   1     -41.112  15.078  18.042  0.00  0.00     0.002 A 
ENDBRANCH   4   8
BRANCH   6  15
ATOM     15  C   UNL d   1     -38.878  13.284  18.334  0.00  0.00     0.069 C 
BRANCH  15  16
ATOM     16  C   UNL d   1     -38.274  13.147  17.777  0.00  0.00     0.075 C 
BRANCH  16  17
ATOM     17  C   UNL d   1     -38.056  12.381  17.577  0.00  0.00     0.211 C 
ATOM     18  O   UNL d   1     -37.944  12.182  16.775  0.00  0.00    -0.644 OA
ATOM     19  O   UNL d   1     -37.947  11.811  18.163  0.00  0.00    -0.644 OA
ENDBRANCH  16  17
ENDBRANCH  15  16
ENDBRANCH   6  15
BRANCH   3  20
ATOM     20  C   UNL d   1     -39.275  15.220  20.818  0.00  0.00     0.019 A 
ATOM     21  C   UNL d   1     -39.779  14.983  21.416  0.00  0.00     0.002 A 
ATOM     22  C   UNL d   1     -39.629  15.204  22.196  0.00  0.00     0.007 A 
ATOM     23  C   UNL d   1     -38.968  15.665  22.371  0.00  0.00     0.035 A 
ATOM     24  C   UNL d   1     -38.451  15.911  21.768  0.00  0.00     0.007 A 
ATOM     25 BR   UNL d   1     -38.785  15.916  23.199  0.00  0.00    -0.049 Br
ATOM     26  C   UNL d   1     -38.614  15.682  20.994  0.00  0.00     0.002 A 
ENDBRANCH   3  20
TORSDOF 5
ENDMDL
MODEL 3
REMARK VINA RESULT:      -4.6      6.655      8.661
REMARK  5 active torsions:
REMARK  status: ('A' for Active; 'I' for Inactive)
REMARK       I    between atoms: C_6  and  N_1 
REMARK    1  A    between atoms: C_7  and  C_3 
REMARK    2  A    between atoms: C_8  and  C_4 
REMARK    3  A    between atoms: C_11  and  C_6 
REMARK    4  A    between atoms: C_9  and  C_17 
REMARK    5  A    between atoms: C_17  and  C_11 
ROOT
ATOM      1  N   UNL d   1     -47.128  12.551  23.102  0.00  0.00    -0.195 N 
ATOM      2  N   UNL d   1     -46.327  12.424  23.183  0.00  0.00    -0.163 NA
ATOM      3  C   UNL d   1     -46.249  11.635  23.258  0.00  0.00     0.103 A 
ATOM      4  C   UNL d   1     -47.523  11.867  23.126  0.00  0.00     0.088 A 
ATOM      5  C   UNL d   1     -47.010  11.280  23.222  0.00  0.00     0.040 A 
ATOM      6  C   UNL d   1     -47.470  13.296  23.008  0.00  0.00     0.281 C 
ATOM      7  O   UNL d   1     -48.291  13.370  22.930  0.00  0.00    -0.265 OA
ENDROOT
BRANCH   4   8
ATOM      8  C   UNL d   1     -48.362  11.890  23.051  0.00  0.00     0.018 A 
ATOM      9  C   UNL d   1     -48.682  11.853  22.283  0.00  0.00     0.002 A 
ATOM     10  C   UNL d   1     -49.489  11.875  22.228  0.00  0.00     0.007 A 
ATOM     11  C   UNL d   1     -49.978  11.929  22.857  0.00  0.00     0.035 A 
ATOM     12  C   UNL d   1     -49.646  11.966  23.622  0.00  0.00     0.007 A 
ATOM     13 BR   UNL d   1     -50.824  11.949  22.731  0.00  0.00    -0.049 Br
ATOM     14  C   UNL d   1     -48.807  11.943  23.698  0.00  0.00     0.002 A 
ENDBRANCH   4   8
BRANCH   6  15
ATOM     15  C   UNL d   1     -46.960  13.989  22.993  0.00  0.00     0.069 C 
BRANCH  15  16
ATOM     16  C   UNL d   1     -47.309  14.745  22.965  0.00  0.00     0.075 C 
BRANCH  16  17
ATOM     17  C   UNL d   1     -47.026  15.317  22.450  0.00  0.00     0.211 C 
ATOM     18  O   UNL d   1     -47.557  15.711  21.940  0.00  0.00    -0.644 OA
ATOM     19  O   UNL d   1     -46.222  15.504  22.432  0.00  0.00    -0.644 OA
ENDBRANCH  16  17
ENDBRANCH  15  16
ENDBRANCH   6  15
BRANCH   3  20
ATOM     20  C   UNL d   1     -45.579  11.155  23.358  0.00  0.00     0.019 A 
ATOM     21  C   UNL d   1     -44.831  11.455  23.227  0.00  0.00     0.002 A 
ATOM     22  C   UNL d   1     -44.168  10.976  23.327  0.00  0.00     0.007 A 
ATOM     23  C   UNL d   1     -44.262  10.191  23.561  0.00  0.00     0.035 A 
ATOM     24  C   UNL d   1     -45.020   9.877  23.698  0.00  0.00     0.007 A 
ATOM     25 BR   UNL d   1     -43.567   9.656  23.676  0.00  0.00    -0.049 Br
ATOM     26  C   UNL d   1     -45.673  10.369  23.593  0.00  0.00     0.002 A 
ENDBRANCH   3  20
TORSDOF 5
ENDMDL
MODEL 4
REMARK VINA RESULT:      -2.8      6.103      8.451
REMARK  5 active torsions:
REMARK  status: ('A' for Active; 'I' for Inactive)
REMARK       I    between atoms: C_6  and  N_1 
REMARK    1  A    between atoms: C_7  and  C_3 
REMARK    2  A    between atoms: C_8  and  C_4 
REMARK    3  A    between atoms: C_11  and  C_6 
REMARK    4  A    between atoms: C_9  and  C_17 
REMARK    5  A    between atoms: C_17  and  C_11 
ROOT
ATOM      1  N   UNL d   1     -47.992  13.165  22.827  0.00  0.00    -0.195 N 
ATOM      2  N   UNL d   1     -47.299  12.749  22.730  0.00  0.00    -0.163 NA
ATOM      3  C   UNL d   1     -46.780  13.278  22.434  0.00  0.00     0.103 A 
ATOM      4  C   UNL d   1     -47.902  13.916  22.600  0.00  0.00     0.088 A 
ATOM      5  C   UNL d   1     -47.163  14.020  22.352  0.00  0.00     0.040 A 
ATOM      6  C   UNL d   1     -48.689  12.838  23.123  0.00  0.00     0.281 C 
ATOM      7  O   UNL d   1     -49.368  13.305  23.201  0.00  0.00    -0.265 OA
ENDROOT
BRANCH   4   8
ATOM      8  C   UNL d   1     -48.565  14.433  22.661  0.00  0.00     0.018 A 
ATOM      9  C   UNL d   1     -49.123  14.420  22.044  0.00  0.00     0.002 A 
ATOM     10  C   UNL d   1     -49.753  14.922  22.118  0.00  0.00     0.007 A 
ATOM     11  C   UNL d   1     -49.861  15.415  22.737  0.00  0.00     0.035 A 
ATOM     12  C   UNL d   1     -49.295  15.420  23.350  0.00  0.00     0.007 A 
ATOM     13 BR   UNL d   1     -50.550  15.922  22.756  0.00  0.00    -0.049 Br
ATOM     14  C   UNL d   1     -48.632  14.903  23.289  0.00  0.00     0.002 A 
ENDBRANCH   4   8
BRANCH   6  15
ATOM     15  C   UNL d   1     -48.697  12.006  23.346  0.00  0.00     0.069 C 
BRANCH  15  16
ATOM     16  C   UNL d   1     -49.382  11.690  23.698  0.00  0.00     0.075 C 
BRANCH  16  17
ATOM     17  C   UNL d   1     -49.539  10.885  23.656  0.00  0.00     0.211 C 
ATOM     18  O   UNL d   1     -48.908  10.340  23.698  0.00  0.00    -0.644 OA
ATOM     19  O   UNL d   1     -50.313  10.613  23.573  0.00  0.00    -0.644 OA
ENDBRANCH  16  17
ENDBRANCH  15  16
ENDBRANCH   6  15
BRANCH   3  20
ATOM     20  C   UNL d   1     -45.982  13.203  22.215  0.00  0.00     0.019 A 
ATOM     21  C   UNL d   1     -45.661  12.467  22.064  0.00  0.00     0.002 A 
ATOM     22  C   UNL d   1     -44.870  12.397  21.847  0.00  0.00     0.007 A 
ATOM     23  C   UNL d   1     -44.401  13.073  21.783  0.00  0.00     0.035 A 
ATOM     24  C   UNL d   1     -44.719  13.825  21.936  0.00  0.00     0.007 A 
ATOM     25 BR   UNL d   1     -43.548  13.025  21.552  0.00  0.00    -0.049 Br
ATOM     26  C   UNL d   1     -45.513  13.879  22.151  0.00  0.00     0.002 A 
ENDBRANCH   3  20
TORSDOF 5
ENDMDL
MODEL 5
REMARK VINA RESULT:      -2.8      2.093      3.989
REMARK  5 active torsions:
REMARK  status: ('A' for Active; 'I' for Inactive)
REMARK       I    between atoms: C_6  and  N_1 
REMARK    1  A    between atoms: C_7  and  C_3 
REMARK    2  A    between atoms: C_8  and  C_4 
REMARK    3  A    between atoms: C_11  and  C_6 
REMARK    4  A    between atoms: C_9  and  C_17 
REMARK    5  A    between atoms: C_17  and  C_11 
ROOT
ATOM      1  N   UNL d   1     -40.943  14.242  20.383  0.00  0.00    -0.195 N 
ATOM      2  N   UNL d   1     -41.649  13.849  20.279  0.00  0.00    -0.163 NA
ATOM      3  C   UNL d   1     -41.920  13.710  21.016  0.00  0.00     0.103 A 
ATOM      4  C   UNL d   1     -40.789  14.340  21.151  0.00  0.00     0.088 A 
ATOM      5  C   UNL d   1     -41.373  14.023  21.571  0.00  0.00     0.040 A 
ATOM      6  C   UNL d   1     -40.462  14.498  19.764  0.00  0.00     0.281 C 
ATOM      7  O   UNL d   1     -39.753  14.894  19.924  0.00  0.00    -0.265 OA
ENDROOT
BRANCH   4   8
ATOM      8  C   UNL d   1     -40.077  14.737  21.367  0.00  0.00     0.018 A 
ATOM      9  C   UNL d   1     -39.419  14.269  21.565  0.00  0.00     0.002 A 
ATOM     10  C   UNL d   1     -38.744  14.666  21.770  0.00  0.00     0.007 A 
ATOM     11  C   UNL d   1     -38.683  15.462  21.789  0.00  0.00     0.035 A 
ATOM     12  C   UNL d   1     -39.350  15.922  21.588  0.00  0.00     0.007 A 
ATOM     13 BR   UNL d   1     -37.940  15.822  22.015  0.00  0.00    -0.049 Br
ATOM     14  C   UNL d   1     -40.061  15.524  21.373  0.00  0.00     0.002 A 
ENDBRANCH   4   8
BRANCH   6  15
ATOM     15  C   UNL d   1     -40.710  14.347  18.953  0.00  0.00     0.069 C 
BRANCH  15  16
ATOM     16  C   UNL d   1     -40.272  14.682  18.329  0.00  0.00     0.075 C 
BRANCH  16  17
ATOM     17  C   UNL d   1     -40.409  14.452  17.553  0.00  0.00     0.211 C 
ATOM     18  O   UNL d   1     -40.058  13.753  17.264  0.00  0.00    -0.644 OA
ATOM     19  O   UNL d   1     -40.890  14.906  17.060  0.00  0.00    -0.644 OA
ENDBRANCH  16  17
ENDBRANCH  15  16
ENDBRANCH   6  15
BRANCH   3  20
ATOM     20  C   UNL d   1     -42.608  13.333  21.288  0.00  0.00     0.019 A 
ATOM     21  C   UNL d   1     -42.571  12.580  21.601  0.00  0.00     0.002 A 
ATOM     22  C   UNL d   1     -43.256  12.209  21.870  0.00  0.00     0.007 A 
ATOM     23  C   UNL d   1     -43.980  12.601  21.821  0.00  0.00     0.035 A 
ATOM     24  C   UNL d   1     -44.027  13.368  21.504  0.00  0.00     0.007 A 
ATOM     25 BR   UNL d   1     -44.730  12.225  22.103  0.00  0.00    -0.049 Br
ATOM     26  C   UNL d   1     -43.333  13.725  21.239  0.00  0.00     0.002 A 
ENDBRANCH   3  20
TORSDOF 5
ENDMDL
MODEL 6
REMARK VINA RESULT:      -2.4      6.827      8.294
REMARK  5 active torsions:
REMARK  status: ('A' for Active; 'I' for Inactive)
REMARK       I    between atoms: C_6  and  N_1 
REMARK    1  A    between atoms: C_7  and  C_3 
REMARK    2  A    between atoms: C_8  and  C_4 
REMARK    3  A    between atoms: C_11  and  C_6 
REMARK    4  A    between atoms: C_9  and  C_17 
REMARK    5  A    between atoms: C_17  and  C_11 
ROOT
ATOM      1  N   UNL d   1     -47.353  12.430  23.224  0.00  0.00    -0.195 N 
ATOM      2  N   UNL d   1     -47.000  11.735  23.460  0.00  0.00    -0.163 NA
ATOM      3  C   UNL d   1     -46.231  11.816  23.264  0.00  0.00     0.103 A 
ATOM      4  C   UNL d   1     -46.823  12.916  22.898  0.00  0.00     0.088 A 
ATOM      5  C   UNL d   1     -46.119  12.567  22.906  0.00  0.00     0.040 A 
ATOM      6  C   UNL d   1     -48.156  12.595  23.318  0.00  0.00     0.281 C 
ATOM      7  O   UNL d   1     -48.465  13.318  23.061  0.00  0.00    -0.265 OA
ENDROOT
BRANCH   4   8
ATOM      8  C   UNL d   1     -47.088  13.666  22.619  0.00  0.00     0.018 A 
ATOM      9  C   UNL d   1     -47.315  13.723  21.821  0.00  0.00     0.002 A 
ATOM     10  C   UNL d   1     -47.568  14.450  21.569  0.00  0.00     0.007 A 
ATOM     11  C   UNL d   1     -47.608  15.095  22.038  0.00  0.00     0.035 A 
ATOM     12  C   UNL d   1     -47.378  15.026  22.838  0.00  0.00     0.007 A 
ATOM     13 BR   UNL d   1     -47.884  15.836  21.712  0.00  0.00    -0.049 Br
ATOM     14  C   UNL d   1     -47.112  14.276  23.116  0.00  0.00     0.002 A 
ENDBRANCH   4   8
BRANCH   6  15
ATOM     15  C   UNL d   1     -48.662  12.004  23.687  0.00  0.00     0.069 C 
BRANCH  15  16
ATOM     16  C   UNL d   1     -49.465  11.969  23.468  0.00  0.00     0.075 C 
BRANCH  16  17
ATOM     17  C   UNL d   1     -49.891  11.273  23.558  0.00  0.00     0.211 C 
ATOM     18  O   UNL d   1     -50.724  11.293  23.511  0.00  0.00    -0.644 OA
ATOM     19  O   UNL d   1     -49.503  10.558  23.695  0.00  0.00    -0.644 OA
ENDBRANCH  16  17
ENDBRANCH  15  16
ENDBRANCH   6  15
BRANCH   3  20
ATOM     20  C   UNL d   1     -45.583  11.305  23.355  0.00  0.00     0.019 A 
ATOM     21  C   UNL d   1     -44.823  11.570  23.212  0.00  0.00     0.002 A 
ATOM     22  C   UNL d   1     -44.183  11.061  23.304  0.00  0.00     0.007 A 
ATOM     23  C   UNL d   1     -44.310  10.281  23.542  0.00  0.00     0.035 A 
ATOM     24  C   UNL d   1     -45.079  10.003  23.690  0.00  0.00     0.007 A 
ATOM     25 BR   UNL d   1     -43.639   9.714  23.648  0.00  0.00    -0.049 Br
ATOM     26  C   UNL d   1     -45.710  10.525  23.593  0.00  0.00     0.002 A 
ENDBRANCH   3  20
TORSDOF 5
ENDMDL
