MODEL 1
REMARK VINA RESULT:      38.1      0.000      0.000
REMARK  5 active torsions:
REMARK  status: ('A' for Active; 'I' for Inactive)
REMARK       I    between atoms: N_2  and  C_1 
REMARK    1  A    between atoms: C_4  and  C_1 
REMARK    2  A    between atoms: C_3  and  N_2 
REMARK    3  A    between atoms: N_5  and  C_3 
REMARK    4  A    between atoms: C_7  and  N_5 
REMARK    5  A    between atoms: O_14  and  C_11 
ROOT
ATOM      1  C   UNL d   1      58.394  49.526  50.770  0.00  0.00     0.283 C 
ATOM      2  N   UNL d   1      59.167  49.705  50.550  0.00  0.00    -0.179 NA
ATOM      3  O   UNL d   1      58.236  49.301  51.549  0.00  0.00    -0.265 OA
ENDROOT
BRANCH   2   4
ATOM      4  C   UNL d   1      59.781  49.663  51.091  0.00  0.00     0.224 C 
ATOM      5  S   UNL d   1      59.614  49.707  51.907  0.00  0.00    -0.037 SA
BRANCH   4   6
ATOM      6  N   UNL d   1      60.565  49.579  50.847  0.00  0.00    -0.215 NA
BRANCH   6   7
ATOM      7  C   UNL d   1      60.905  48.833  50.766  0.00  0.00     0.112 A 
ATOM      8  C   UNL d   1      61.370  48.656  50.097  0.00  0.00     0.156 A 
ATOM      9  N   UNL d   1      61.710  47.910  50.017  0.00  0.00    -0.231 NA
ATOM     10 CL   UNL d   1      61.489  49.235  49.513  0.00  0.00    -0.060 Cl
ATOM     11  C   UNL d   1      61.590  47.339  50.598  0.00  0.00     0.100 A 
ATOM     12  C   UNL d   1      61.129  47.514  51.261  0.00  0.00     0.022 A 
ATOM     13  C   UNL d   1      60.785  48.262  51.348  0.00  0.00     0.023 A 
ENDBRANCH   6   7
ENDBRANCH   4   6
ENDBRANCH   2   4
BRANCH   1  14
ATOM     14  C   UNL d   1      57.781  49.571  50.221  0.00  0.00     0.080 A 
ATOM     15  C   UNL d   1      57.004  49.656  50.480  0.00  0.00     0.099 A 
ATOM     16  C   UNL d   1      56.391  49.700  49.931  0.00  0.00     0.024 A 
ATOM     17  C   UNL d   1      56.561  49.658  49.119  0.00  0.00     0.002 A 
ATOM     18  C   UNL d   1      57.345  49.573  48.867  0.00  0.00     0.000 A 
ATOM     19  C   UNL d   1      57.958  49.529  49.416  0.00  0.00     0.007 A 
BRANCH  15  20
ATOM     20  O   UNL d   1      56.840  49.696  51.285  0.00  0.00    -0.328 OA
ATOM     21  C   UNL d   1      56.059  49.696  51.547  0.00  0.00     0.181 C 
ENDBRANCH  15  20
ENDBRANCH   1  14
TORSDOF 5
ENDMDL
