MODEL 1
REMARK VINA RESULT:      -2.9      0.000      0.000
REMARK  8 active torsions:
REMARK  status: ('A' for Active; 'I' for Inactive)
REMARK    1  A    between atoms: N_3  and  C_1 
REMARK       I    between atoms: C_8  and  N_3 
REMARK    2  A    between atoms: O_12  and  C_4 
REMARK    3  A    between atoms: S_20  and  C_5 
REMARK    4  A    between atoms: C_13  and  C_8 
REMARK    5  A    between atoms: C_9  and  O_12 
REMARK    6  A    between atoms: C_14  and  C_9 
REMARK    7  A    between atoms: C_16  and  C_28 
REMARK    8  A    between atoms: C_28  and  S_20 
ROOT
ATOM      1  C   UNL d   1      57.605   0.677  31.470  0.00  0.00     0.167 A 
ATOM      2  C   UNL d   1      58.426   0.680  31.430  0.00  0.00     0.222 A 
ATOM      3  C   UNL d   1      58.779   0.680  30.679  0.00  0.00     0.069 A 
ATOM      4  C   UNL d   1      57.145   0.675  30.787  0.00  0.00     0.151 A 
ATOM      5  C   UNL d   1      58.319   0.678  29.996  0.00  0.00     0.110 A 
ATOM      6  O   UNL d   1      57.500   0.675  30.056  0.00  0.00    -0.302 OA
ATOM      7  O   UNL d   1      58.882   0.682  32.106  0.00  0.00    -0.284 OA
ENDROOT
BRANCH   5   8
ATOM      8  C   UNL d   1      58.678   0.679  29.256  0.00  0.00     0.062 C 
BRANCH   8   9
ATOM      9  S   UNL d   1      59.083   0.008  29.000  0.00  0.00    -0.057 SA
BRANCH   9  10
ATOM     10  C   UNL d   1      59.112  -0.933  28.909  0.00  0.00     0.166 A 
ATOM     11  S   UNL d   1      58.688  -1.603  28.690  0.00  0.00    -0.006 SA
ATOM     12  C   UNL d   1      59.175  -2.263  28.788  0.00  0.00     0.269 A 
ATOM     13  N   UNL d   1      59.906  -1.994  29.070  0.00  0.00    -0.107 NA
ATOM     14  N   UNL d   1      59.867  -1.173  29.145  0.00  0.00    -0.132 NA
BRANCH  12  15
ATOM     15  N   UNL d   1      59.214  -3.082  28.713  0.00  0.00    -0.337 NA
ATOM     16  C   UNL d   1      59.253  -3.903  28.639  0.00  0.00     0.330 C 
ATOM     17  O   UNL d   1      58.430  -3.930  28.600  0.00  0.00    -0.251 OA
BRANCH  16  18
ATOM     18  C   UNL d   1      59.862  -4.462  28.614  0.00  0.00     0.070 A 
ATOM     19  C   UNL d   1      60.121  -5.236  28.728  0.00  0.00     0.006 A 
ATOM     20  C   UNL d   1      60.656  -4.650  28.455  0.00  0.00     0.006 A 
ENDBRANCH  16  18
ENDBRANCH  12  15
ENDBRANCH   9  10
ENDBRANCH   8   9
ENDBRANCH   5   8
BRANCH   1  21
ATOM     21  O   UNL d   1      57.239   0.677  32.215  0.00  0.00    -0.268 OA
BRANCH  21  22
ATOM     22  C   UNL d   1      56.693   0.084  32.405  0.00  0.00     0.300 C 
ATOM     23  O   UNL d   1      56.654  -0.604  31.943  0.00  0.00    -0.259 OA
BRANCH  22  24
ATOM     24  C   UNL d   1      56.183   0.184  33.065  0.00  0.00     0.064 A 
ATOM     25  C   UNL d   1      56.507   0.253  33.820  0.00  0.00     0.005 A 
ATOM     26  C   UNL d   1      56.005   0.354  34.485  0.00  0.00     0.000 A 
ATOM     27  C   UNL d   1      56.335   0.422  35.238  0.00  0.00     0.000 C 
ATOM     28  C   UNL d   1      55.185   0.381  34.367  0.00  0.00     0.000 A 
ATOM     29  C   UNL d   1      54.857   0.311  33.600  0.00  0.00     0.000 A 
ATOM     30  C   UNL d   1      55.362   0.214  32.964  0.00  0.00     0.005 A 
ATOM     31  C   UNL d   1      54.044   0.341  33.509  0.00  0.00     0.000 C 
ENDBRANCH  22  24
ENDBRANCH  21  22
ENDBRANCH   1  21
TORSDOF 8
ENDMDL
MODEL 2
REMARK VINA RESULT:      -1.0      2.409      7.234
REMARK  8 active torsions:
REMARK  status: ('A' for Active; 'I' for Inactive)
REMARK    1  A    between atoms: N_3  and  C_1 
REMARK       I    between atoms: C_8  and  N_3 
REMARK    2  A    between atoms: O_12  and  C_4 
REMARK    3  A    between atoms: S_20  and  C_5 
REMARK    4  A    between atoms: C_13  and  C_8 
REMARK    5  A    between atoms: C_9  and  O_12 
REMARK    6  A    between atoms: C_14  and  C_9 
REMARK    7  A    between atoms: C_16  and  C_28 
REMARK    8  A    between atoms: C_28  and  S_20 
ROOT
ATOM      1  C   UNL d   1      59.219  -5.594  28.461  0.00  0.00     0.167 A 
ATOM      2  C   UNL d   1      59.991  -5.314  28.472  0.00  0.00     0.222 A 
ATOM      3  C   UNL d   1      60.107  -4.492  28.477  0.00  0.00     0.069 A 
ATOM      4  C   UNL d   1      58.577  -5.077  28.456  0.00  0.00     0.151 A 
ATOM      5  C   UNL d   1      59.466  -3.975  28.472  0.00  0.00     0.110 A 
ATOM      6  O   UNL d   1      58.701  -4.274  28.461  0.00  0.00    -0.302 OA
ATOM      7  O   UNL d   1      60.626  -5.826  28.478  0.00  0.00    -0.284 OA
ENDROOT
BRANCH   5   8
ATOM      8  C   UNL d   1      59.592  -3.163  28.477  0.00  0.00     0.062 C 
BRANCH   8   9
ATOM      9  S   UNL d   1      58.965  -2.655  28.646  0.00  0.00    -0.057 SA
BRANCH   9  10
ATOM     10  C   UNL d   1      58.582  -2.007  29.219  0.00  0.00     0.166 A 
ATOM     11  S   UNL d   1      57.942  -1.828  29.705  0.00  0.00    -0.006 SA
ATOM     12  C   UNL d   1      58.060  -1.076  30.024  0.00  0.00     0.269 A 
ATOM     13  N   UNL d   1      58.780  -0.789  29.731  0.00  0.00    -0.107 NA
ATOM     14  N   UNL d   1      59.102  -1.364  29.234  0.00  0.00    -0.132 NA
BRANCH  12  15
ATOM     15  N   UNL d   1      57.739  -0.502  30.520  0.00  0.00    -0.337 NA
ATOM     16  C   UNL d   1      57.417   0.072  31.017  0.00  0.00     0.330 C 
ATOM     17  O   UNL d   1      57.696   0.657  30.507  0.00  0.00    -0.251 OA
BRANCH  16  18
ATOM     18  C   UNL d   1      56.993   0.064  31.727  0.00  0.00     0.070 A 
ATOM     19  C   UNL d   1      56.520   0.455  32.277  0.00  0.00     0.006 A 
ATOM     20  C   UNL d   1      56.736  -0.346  32.403  0.00  0.00     0.006 A 
ENDBRANCH  16  18
ENDBRANCH  12  15
ENDBRANCH   9  10
ENDBRANCH   8   9
ENDBRANCH   5   8
BRANCH   1  21
ATOM     21  O   UNL d   1      59.088  -6.414  28.456  0.00  0.00    -0.268 OA
BRANCH  21  22
ATOM     22  C   UNL d   1      58.317  -6.709  28.513  0.00  0.00     0.300 C 
ATOM     23  O   UNL d   1      57.679  -6.183  28.583  0.00  0.00    -0.259 OA
BRANCH  22  24
ATOM     24  C   UNL d   1      58.186  -7.538  28.498  0.00  0.00     0.064 A 
ATOM     25  C   UNL d   1      58.832  -8.050  28.499  0.00  0.00     0.005 A 
ATOM     26  C   UNL d   1      58.711  -8.880  28.485  0.00  0.00     0.000 A 
ATOM     27  C   UNL d   1      59.363  -9.387  28.486  0.00  0.00     0.000 C 
ATOM     28  C   UNL d   1      57.935  -9.171  28.470  0.00  0.00     0.000 A 
ATOM     29  C   UNL d   1      57.279  -8.651  28.470  0.00  0.00     0.000 A 
ATOM     30  C   UNL d   1      57.417  -7.845  28.484  0.00  0.00     0.005 A 
ATOM     31  C   UNL d   1      56.523  -8.962  28.455  0.00  0.00     0.000 C 
ENDBRANCH  22  24
ENDBRANCH  21  22
ENDBRANCH   1  21
TORSDOF 8
ENDMDL
