MODEL 1
REMARK VINA RESULT:      24.1      0.000      0.000
REMARK  1 active torsions:
REMARK  status: ('A' for Active; 'I' for Inactive)
REMARK       I    between atoms: N_2  and  C_1 
REMARK       I    between atoms: N_3  and  C_1 
REMARK    1  A    between atoms: C_4  and  N_2 
ROOT
ATOM      1  C   UNL d   1     -51.323  24.835  33.322  0.00  0.00     0.086 A 
ATOM      2  C   UNL d   1     -52.042  24.425  33.325  0.00  0.00     0.018 A 
ATOM      3  C   UNL d   1     -52.051  23.601  33.323  0.00  0.00     0.002 A 
ATOM      4  C   UNL d   1     -50.610  24.423  33.317  0.00  0.00     0.019 A 
ATOM      5  C   UNL d   1     -50.619  23.600  33.314  0.00  0.00     0.002 A 
ATOM      6  C   UNL d   1     -52.760  24.845  33.330  0.00  0.00     0.002 A 
ATOM      7  C   UNL d   1     -51.338  23.190  33.317  0.00  0.00     0.000 A 
ATOM      8  C   UNL d   1     -52.776  23.209  33.326  0.00  0.00     0.000 A 
ATOM      9  C   UNL d   1     -53.476  24.437  33.333  0.00  0.00     0.000 A 
ATOM     10  C   UNL d   1     -53.487  23.623  33.331  0.00  0.00     0.000 A 
ENDROOT
BRANCH   1  11
ATOM     11  N   UNL d   1     -51.303  25.665  33.324  0.00  0.00    -0.192 NA
ATOM     12  C   UNL d   1     -50.588  26.074  33.405  0.00  0.00     0.354 C 
ATOM     13  N   UNL d   1     -50.593  26.893  33.405  0.00  0.00    -0.252 N 
ATOM     14  O   UNL d   1     -49.870  25.645  33.486  0.00  0.00    -0.244 OA
ATOM     15  C   UNL d   1     -49.863  27.312  33.487  0.00  0.00     0.111 A 
ATOM     16  C   UNL d   1     -51.311  27.296  33.323  0.00  0.00     0.111 A 
ATOM     17  C   UNL d   1     -49.882  28.147  33.485  0.00  0.00     0.142 A 
ATOM     18  O   UNL d   1     -50.623  28.562  33.401  0.00  0.00    -0.300 OA
ATOM     19  C   UNL d   1     -51.321  28.140  33.322  0.00  0.00     0.142 A 
ENDBRANCH   1  11
TORSDOF 1
ENDMDL
