MODEL 1
REMARK VINA RESULT:      75.3      0.000      0.000
REMARK  3 active torsions:
REMARK  status: ('A' for Active; 'I' for Inactive)
REMARK    1  A    between atoms: C_5  and  C_3 
REMARK       I    between atoms: N_10  and  C_5 
REMARK    2  A    between atoms: C_13  and  N_10 
REMARK    3  A    between atoms: C_15  and  C_13 
ROOT
ATOM      1  N   UNL d   1      58.523  49.443  51.125  0.00  0.00    -0.254 N 
ATOM      2  C   UNL d   1      59.231  49.271  50.727  0.00  0.00     0.272 A 
ATOM      3  C   UNL d   1      59.939  49.196  51.148  0.00  0.00     0.133 A 
ATOM      4  C   UNL d   1      58.534  49.538  51.944  0.00  0.00     0.182 A 
ATOM      5  N   UNL d   1      59.237  49.464  52.365  0.00  0.00    -0.220 NA
ATOM      6  C   UNL d   1      59.942  49.293  51.967  0.00  0.00     0.111 A 
ATOM      7  S   UNL d   1      57.764  49.703  52.191  0.00  0.00    -0.048 SA
ATOM      8  C   UNL d   1      57.755  49.547  50.864  0.00  0.00     0.075 A 
ATOM      9  C   UNL d   1      57.281  49.707  51.513  0.00  0.00     0.056 A 
ATOM     10  O   UNL d   1      59.219  49.175  49.908  0.00  0.00    -0.266 OA
ATOM     11  C   UNL d   1      57.496  49.500  50.086  0.00  0.00     0.020 C 
ENDROOT
BRANCH   3  12
ATOM     12  C   UNL d   1      60.638  49.024  50.737  0.00  0.00     0.285 C 
ATOM     13  N   UNL d   1      60.896  48.243  50.693  0.00  0.00    -0.208 NA
ATOM     14  O   UNL d   1      61.068  49.621  50.380  0.00  0.00    -0.265 OA
BRANCH  13  15
ATOM     15  C   UNL d   1      61.589  48.062  50.288  0.00  0.00     0.085 C 
ATOM     16  C   UNL d   1      62.125  48.648  50.097  0.00  0.00     0.021 C 
BRANCH  15  17
ATOM     17  C   UNL d   1      61.738  47.279  50.076  0.00  0.00     0.018 A 
ATOM     18  C   UNL d   1      62.366  47.119  49.562  0.00  0.00     0.002 A 
ATOM     19  C   UNL d   1      62.516  46.336  49.350  0.00  0.00     0.000 A 
ATOM     20  C   UNL d   1      62.046  45.712  49.645  0.00  0.00     0.000 A 
ATOM     21  C   UNL d   1      61.421  45.886  50.158  0.00  0.00     0.000 A 
ATOM     22  C   UNL d   1      61.262  46.666  50.377  0.00  0.00     0.002 A 
ENDBRANCH  15  17
ENDBRANCH  13  15
ENDBRANCH   3  12
TORSDOF 3
ENDMDL
MODEL 2
REMARK VINA RESULT:      77.5      1.885      3.702
REMARK  3 active torsions:
REMARK  status: ('A' for Active; 'I' for Inactive)
REMARK    1  A    between atoms: C_5  and  C_3 
REMARK       I    between atoms: N_10  and  C_5 
REMARK    2  A    between atoms: C_13  and  N_10 
REMARK    3  A    between atoms: C_15  and  C_13 
ROOT
ATOM      1  N   UNL d   1      60.127  49.371  51.298  0.00  0.00    -0.254 N 
ATOM      2  C   UNL d   1      59.518  49.225  50.753  0.00  0.00     0.272 A 
ATOM      3  C   UNL d   1      58.727  49.286  50.985  0.00  0.00     0.133 A 
ATOM      4  C   UNL d   1      59.933  49.577  52.073  0.00  0.00     0.182 A 
ATOM      5  N   UNL d   1      59.147  49.638  52.306  0.00  0.00    -0.220 NA
ATOM      6  C   UNL d   1      58.541  49.493  51.762  0.00  0.00     0.111 A 
ATOM      7  S   UNL d   1      60.637  49.689  52.490  0.00  0.00    -0.048 SA
ATOM      8  C   UNL d   1      60.942  49.354  51.231  0.00  0.00     0.075 A 
ATOM      9  C   UNL d   1      61.265  49.548  51.960  0.00  0.00     0.056 A 
ATOM     10  O   UNL d   1      59.712  49.019  49.978  0.00  0.00    -0.266 OA
ATOM     11  C   UNL d   1      61.370  49.175  50.554  0.00  0.00     0.020 C 
ENDROOT
BRANCH   3  12
ATOM     12  C   UNL d   1      58.129  49.138  50.430  0.00  0.00     0.285 C 
ATOM     13  N   UNL d   1      57.748  48.408  50.436  0.00  0.00    -0.208 NA
ATOM     14  O   UNL d   1      57.919  49.708  49.884  0.00  0.00    -0.265 OA
BRANCH  13  15
ATOM     15  C   UNL d   1      57.154  48.251  49.890  0.00  0.00     0.085 C 
ATOM     16  C   UNL d   1      56.776  48.860  49.497  0.00  0.00     0.021 C 
BRANCH  15  17
ATOM     17  C   UNL d   1      56.940  47.468  49.741  0.00  0.00     0.018 A 
ATOM     18  C   UNL d   1      56.905  46.938  50.376  0.00  0.00     0.002 A 
ATOM     19  C   UNL d   1      56.692  46.155  50.227  0.00  0.00     0.000 A 
ATOM     20  C   UNL d   1      56.514  45.896  49.453  0.00  0.00     0.000 A 
ATOM     21  C   UNL d   1      56.553  46.436  48.829  0.00  0.00     0.000 A 
ATOM     22  C   UNL d   1      56.765  47.222  48.966  0.00  0.00     0.002 A 
ENDBRANCH  15  17
ENDBRANCH  13  15
ENDBRANCH   3  12
TORSDOF 3
ENDMDL
