MODEL 1
REMARK VINA RESULT:      64.7      0.000      0.000
REMARK  6 active torsions:
REMARK  status: ('A' for Active; 'I' for Inactive)
REMARK    1  A    between atoms: C_9  and  N_1 
REMARK    2  A    between atoms: C_8  and  C_3 
REMARK       I    between atoms: N_12  and  C_8 
REMARK    3  A    between atoms: C_17  and  C_9 
REMARK    4  A    between atoms: C_23  and  N_12 
REMARK    5  A    between atoms: C_13  and  C_23 
REMARK    6  A    between atoms: C_20  and  C_17 
ROOT
ATOM      1  N   UNL d   1      13.981  15.350  -3.996  0.00  0.00    -0.273 N 
ATOM      2  C   UNL d   1      14.194  15.829  -4.626  0.00  0.00     0.177 A 
ATOM      3  C   UNL d   1      14.665  16.443  -4.335  0.00  0.00     0.115 A 
ATOM      4  C   UNL d   1      14.316  15.660  -3.306  0.00  0.00     0.167 A 
ATOM      5  C   UNL d   1      14.740  16.336  -3.516  0.00  0.00     0.123 A 
ATOM      6  N   UNL d   1      14.291  15.416  -2.521  0.00  0.00    -0.225 NA
ATOM      7  N   UNL d   1      15.139  16.769  -2.941  0.00  0.00    -0.241 NA
ATOM      8  C   UNL d   1      14.690  15.849  -1.944  0.00  0.00     0.101 A 
ATOM      9  C   UNL d   1      15.114  16.525  -2.155  0.00  0.00     0.099 A 
ATOM     10  N   UNL d   1      13.976  15.716  -5.414  0.00  0.00    -0.128 N 
ATOM     11  C   UNL d   1      14.665  15.605  -1.158  0.00  0.00     0.021 A 
ATOM     12  C   UNL d   1      15.513  16.958  -1.578  0.00  0.00     0.021 A 
ATOM     13  C   UNL d   1      15.066  16.039  -0.578  0.00  0.00     0.002 A 
ATOM     14  C   UNL d   1      15.489  16.715  -0.788  0.00  0.00     0.002 A 
ENDROOT
BRANCH   1  15
ATOM     15  C   UNL d   1      13.511  14.671  -4.034  0.00  0.00     0.083 C 
BRANCH  15  16
ATOM     16  C   UNL d   1      13.719  14.003  -3.595  0.00  0.00     0.021 C 
BRANCH  16  17
ATOM     17  C   UNL d   1      13.464  13.260  -3.847  0.00  0.00     0.029 A 
ATOM     18  C   UNL d   1      13.658  12.598  -3.406  0.00  0.00     0.140 A 
ATOM     19  F   UNL d   1      14.104  12.860  -2.754  0.00  0.00    -0.204 F 
ATOM     20  C   UNL d   1      13.413  11.859  -3.646  0.00  0.00     0.030 A 
ATOM     21  C   UNL d   1      12.963  11.782  -4.341  0.00  0.00     0.002 A 
ATOM     22  C   UNL d   1      12.772  12.450  -4.777  0.00  0.00     0.000 A 
ATOM     23  C   UNL d   1      13.023  13.187  -4.530  0.00  0.00     0.002 A 
ENDBRANCH  16  17
ENDBRANCH  15  16
ENDBRANCH   1  15
BRANCH   3  24
ATOM     24  C   UNL d   1      15.004  17.055  -4.775  0.00  0.00     0.284 C 
ATOM     25  N   UNL d   1      14.522  17.660  -5.062  0.00  0.00    -0.204 NA
ATOM     26  O   UNL d   1      15.814  17.064  -4.926  0.00  0.00    -0.265 OA
BRANCH  25  27
ATOM     27  C   UNL d   1      14.863  18.281  -5.507  0.00  0.00     0.127 C 
BRANCH  27  28
ATOM     28  C   UNL d   1      14.408  18.924  -5.730  0.00  0.00     0.119 A 
ATOM     29  O   UNL d   1      13.869  18.940  -6.353  0.00  0.00    -0.304 OA
ATOM     30  C   UNL d   1      13.536  19.694  -6.379  0.00  0.00     0.123 A 
ATOM     31  C   UNL d   1      13.880  20.139  -5.763  0.00  0.00     0.029 A 
ATOM     32  C   UNL d   1      14.408  19.667  -5.373  0.00  0.00     0.028 A 
ENDBRANCH  27  28
ENDBRANCH  25  27
ENDBRANCH   3  24
TORSDOF 6
ENDMDL
