MODEL 1
REMARK VINA RESULT:      -3.1      0.000      0.000
REMARK  5 active torsions:
REMARK  status: ('A' for Active; 'I' for Inactive)
REMARK    1  A    between atoms: C_6  and  C_1 
REMARK    2  A    between atoms: C_7  and  C_6 
REMARK    3  A    between atoms: C_10  and  O_14 
REMARK    4  A    between atoms: C_20  and  C_10 
REMARK    5  A    between atoms: O_14  and  C_12 
ROOT
ATOM      1  C   UNL d   1      32.968  18.710 -23.558  0.00  0.00     0.141 A 
ATOM      2  C   UNL d   1      33.122  19.973 -23.166  0.00  0.00     0.064 A 
ATOM      3  C   UNL d   1      33.117  19.476 -23.818  0.00  0.00     0.220 A 
ATOM      4  C   UNL d   1      32.975  19.516 -22.495  0.00  0.00     0.105 A 
ATOM      5  O   UNL d   1      32.879  18.729 -22.734  0.00  0.00    -0.304 OA
ATOM      6  C   UNL d   1      32.948  19.870 -21.759  0.00  0.00     0.050 A 
ATOM      7  C   UNL d   1      33.241  20.785 -23.095  0.00  0.00     0.007 A 
ATOM      8  C   UNL d   1      33.067  20.682 -21.687  0.00  0.00     0.105 A 
ATOM      9  O   UNL d   1      33.240  19.701 -24.606  0.00  0.00    -0.284 OA
ATOM     10  C   UNL d   1      33.213  21.136 -22.355  0.00  0.00     0.025 A 
ENDROOT
BRANCH   1  11
ATOM     11  C   UNL d   1      32.915  18.035 -24.028  0.00  0.00     0.053 C 
BRANCH  11  12
ATOM     12  C   UNL d   1      32.310  17.483 -23.907  0.00  0.00     0.102 A 
ATOM     13  O   UNL d   1      31.517  17.575 -24.099  0.00  0.00    -0.305 OA
ATOM     14  C   UNL d   1      31.116  16.890 -23.880  0.00  0.00     0.123 A 
ATOM     15  C   UNL d   1      31.661  16.365 -23.548  0.00  0.00     0.029 A 
ATOM     16  C   UNL d   1      32.403  16.729 -23.563  0.00  0.00     0.027 A 
ENDBRANCH  11  12
ENDBRANCH   1  11
BRANCH   8  17
ATOM     17  O   UNL d   1      33.040  21.037 -20.946  0.00  0.00    -0.273 OA
BRANCH  17  18
ATOM     18  C   UNL d   1      32.495  21.632 -20.793  0.00  0.00     0.300 C 
ATOM     19  O   UNL d   1      31.688  21.468 -20.829  0.00  0.00    -0.259 OA
BRANCH  18  20
ATOM     20  C   UNL d   1      32.762  22.392 -20.604  0.00  0.00     0.069 C 
ATOM     21  C   UNL d   1      32.497  22.756 -19.910  0.00  0.00     0.006 C 
ENDBRANCH  18  20
ENDBRANCH  17  18
ENDBRANCH   8  17
TORSDOF 5
ENDMDL
MODEL 2
REMARK VINA RESULT:      -2.9      1.526      3.338
REMARK  5 active torsions:
REMARK  status: ('A' for Active; 'I' for Inactive)
REMARK    1  A    between atoms: C_6  and  C_1 
REMARK    2  A    between atoms: C_7  and  C_6 
REMARK    3  A    between atoms: C_10  and  O_14 
REMARK    4  A    between atoms: C_20  and  C_10 
REMARK    5  A    between atoms: O_14  and  C_12 
ROOT
ATOM      1  C   UNL d   1      30.837  16.489 -24.396  0.00  0.00     0.141 A 
ATOM      2  C   UNL d   1      32.097  16.864 -24.186  0.00  0.00     0.064 A 
ATOM      3  C   UNL d   1      31.620  16.238 -24.414  0.00  0.00     0.220 A 
ATOM      4  C   UNL d   1      31.611  17.511 -24.025  0.00  0.00     0.105 A 
ATOM      5  O   UNL d   1      30.826  17.282 -24.155  0.00  0.00    -0.304 OA
ATOM      6  C   UNL d   1      31.941  18.218 -23.784  0.00  0.00     0.050 A 
ATOM      7  C   UNL d   1      32.914  16.931 -24.104  0.00  0.00     0.007 A 
ATOM      8  C   UNL d   1      32.757  18.286 -23.702  0.00  0.00     0.105 A 
ATOM      9  O   UNL d   1      31.877  15.479 -24.627  0.00  0.00    -0.284 OA
ATOM     10  C   UNL d   1      33.241  17.642 -23.862  0.00  0.00     0.025 A 
ENDROOT
BRANCH   1  11
ATOM     11  C   UNL d   1      30.173  16.037 -24.584  0.00  0.00     0.053 C 
BRANCH  11  12
ATOM     12  C   UNL d   1      29.502  16.054 -24.100  0.00  0.00     0.102 A 
ATOM     13  O   UNL d   1      29.428  15.725 -23.352  0.00  0.00    -0.305 OA
ATOM     14  C   UNL d   1      28.667  15.874 -23.077  0.00  0.00     0.123 A 
ATOM     15  C   UNL d   1      28.260  16.300 -23.657  0.00  0.00     0.029 A 
ATOM     16  C   UNL d   1      28.775  16.413 -24.294  0.00  0.00     0.027 A 
ENDBRANCH  11  12
ENDBRANCH   1  11
BRANCH   8  17
ATOM     17  O   UNL d   1      33.088  18.999 -23.459  0.00  0.00    -0.273 OA
BRANCH  17  18
ATOM     18  C   UNL d   1      33.097  19.200 -22.662  0.00  0.00     0.300 C 
ATOM     19  O   UNL d   1      33.240  18.618 -22.095  0.00  0.00    -0.259 OA
BRANCH  18  20
ATOM     20  C   UNL d   1      32.962  19.984 -22.437  0.00  0.00     0.069 C 
ATOM     21  C   UNL d   1      33.046  20.199 -21.642  0.00  0.00     0.006 C 
ENDBRANCH  18  20
ENDBRANCH  17  18
ENDBRANCH   8  17
TORSDOF 5
ENDMDL
MODEL 3
REMARK VINA RESULT:      -2.7      1.535      4.783
REMARK  5 active torsions:
REMARK  status: ('A' for Active; 'I' for Inactive)
REMARK    1  A    between atoms: C_6  and  C_1 
REMARK    2  A    between atoms: C_7  and  C_6 
REMARK    3  A    between atoms: C_10  and  O_14 
REMARK    4  A    between atoms: C_20  and  C_10 
REMARK    5  A    between atoms: O_14  and  C_12 
ROOT
ATOM      1  C   UNL d   1      32.623  18.097 -23.741  0.00  0.00     0.141 A 
ATOM      2  C   UNL d   1      31.661  17.525 -24.461  0.00  0.00     0.064 A 
ATOM      3  C   UNL d   1      32.234  18.111 -24.465  0.00  0.00     0.220 A 
ATOM      4  C   UNL d   1      31.692  17.142 -23.730  0.00  0.00     0.105 A 
ATOM      5  O   UNL d   1      32.290  17.496 -23.279  0.00  0.00    -0.304 OA
ATOM      6  C   UNL d   1      31.179  16.527 -23.569  0.00  0.00     0.050 A 
ATOM      7  C   UNL d   1      31.113  17.287 -25.027  0.00  0.00     0.007 A 
ATOM      8  C   UNL d   1      30.631  16.289 -24.136  0.00  0.00     0.105 A 
ATOM      9  O   UNL d   1      32.397  18.631 -25.090  0.00  0.00    -0.284 OA
ATOM     10  C   UNL d   1      30.600  16.670 -24.863  0.00  0.00     0.025 A 
ENDROOT
BRANCH   1  11
ATOM     11  C   UNL d   1      33.240  18.594 -23.507  0.00  0.00     0.053 C 
BRANCH  11  12
ATOM     12  C   UNL d   1      33.162  19.075 -22.838  0.00  0.00     0.102 A 
ATOM     13  O   UNL d   1      33.217  18.838 -22.055  0.00  0.00    -0.305 OA
ATOM     14  C   UNL d   1      33.104  19.498 -21.575  0.00  0.00     0.123 A 
ATOM     15  C   UNL d   1      32.977  20.154 -22.063  0.00  0.00     0.029 A 
ATOM     16  C   UNL d   1      33.013  19.895 -22.847  0.00  0.00     0.027 A 
ENDBRANCH  11  12
ENDBRANCH   1  11
BRANCH   8  17
ATOM     17  O   UNL d   1      30.114  15.670 -23.973  0.00  0.00    -0.273 OA
BRANCH  17  18
ATOM     18  C   UNL d   1      29.440  15.803 -23.523  0.00  0.00     0.300 C 
ATOM     19  O   UNL d   1      29.506  15.914 -22.708  0.00  0.00    -0.259 OA
BRANCH  18  20
ATOM     20  C   UNL d   1      28.700  15.824 -23.892  0.00  0.00     0.069 C 
ATOM     21  C   UNL d   1      28.046  15.486 -23.512  0.00  0.00     0.006 C 
ENDBRANCH  18  20
ENDBRANCH  17  18
ENDBRANCH   8  17
TORSDOF 5
ENDMDL
MODEL 4
REMARK VINA RESULT:      -2.1      0.935      4.388
REMARK  5 active torsions:
REMARK  status: ('A' for Active; 'I' for Inactive)
REMARK    1  A    between atoms: C_6  and  C_1 
REMARK    2  A    between atoms: C_7  and  C_6 
REMARK    3  A    between atoms: C_10  and  O_14 
REMARK    4  A    between atoms: C_20  and  C_10 
REMARK    5  A    between atoms: O_14  and  C_12 
ROOT
ATOM      1  C   UNL d   1      33.240  21.487 -22.432  0.00  0.00     0.141 A 
ATOM      2  C   UNL d   1      33.240  20.676 -23.487  0.00  0.00     0.064 A 
ATOM      3  C   UNL d   1      33.240  21.461 -23.254  0.00  0.00     0.220 A 
ATOM      4  C   UNL d   1      33.240  20.207 -22.809  0.00  0.00     0.105 A 
ATOM      5  O   UNL d   1      33.240  20.708 -22.149  0.00  0.00    -0.304 OA
ATOM      6  C   UNL d   1      33.241  19.393 -22.875  0.00  0.00     0.050 A 
ATOM      7  C   UNL d   1      33.240  20.323 -24.232  0.00  0.00     0.007 A 
ATOM      8  C   UNL d   1      33.241  19.040 -23.619  0.00  0.00     0.105 A 
ATOM      9  O   UNL d   1      33.239  22.121 -23.756  0.00  0.00    -0.284 OA
ATOM     10  C   UNL d   1      33.240  19.506 -24.295  0.00  0.00     0.025 A 
ENDROOT
BRANCH   1  11
ATOM     11  C   UNL d   1      33.240  22.166 -21.963  0.00  0.00     0.053 C 
BRANCH  11  12
ATOM     12  C   UNL d   1      32.821  22.184 -21.249  0.00  0.00     0.102 A 
ATOM     13  O   UNL d   1      32.007  22.221 -21.159  0.00  0.00    -0.305 OA
ATOM     14  C   UNL d   1      31.834  22.228 -20.354  0.00  0.00     0.123 A 
ATOM     15  C   UNL d   1      32.547  22.195 -19.936  0.00  0.00     0.029 A 
ATOM     16  C   UNL d   1      33.162  22.168 -20.488  0.00  0.00     0.027 A 
ENDBRANCH  11  12
ENDBRANCH   1  11
BRANCH   8  17
ATOM     17  O   UNL d   1      33.241  18.220 -23.684  0.00  0.00    -0.273 OA
BRANCH  17  18
ATOM     18  C   UNL d   1      32.531  17.807 -23.704  0.00  0.00     0.300 C 
ATOM     19  O   UNL d   1      31.995  17.884 -23.082  0.00  0.00    -0.259 OA
BRANCH  18  20
ATOM     20  C   UNL d   1      32.360  17.318 -24.349  0.00  0.00     0.069 C 
ATOM     21  C   UNL d   1      31.816  16.701 -24.259  0.00  0.00     0.006 C 
ENDBRANCH  18  20
ENDBRANCH  17  18
ENDBRANCH   8  17
TORSDOF 5
ENDMDL
MODEL 5
REMARK VINA RESULT:      -1.6      1.783      5.737
REMARK  5 active torsions:
REMARK  status: ('A' for Active; 'I' for Inactive)
REMARK    1  A    between atoms: C_6  and  C_1 
REMARK    2  A    between atoms: C_7  and  C_6 
REMARK    3  A    between atoms: C_10  and  O_14 
REMARK    4  A    between atoms: C_20  and  C_10 
REMARK    5  A    between atoms: O_14  and  C_12 
ROOT
ATOM      1  C   UNL d   1      32.590  23.055 -19.393  0.00  0.00     0.141 A 
ATOM      2  C   UNL d   1      32.288  22.292 -20.441  0.00  0.00     0.064 A 
ATOM      3  C   UNL d   1      32.093  22.982 -20.044  0.00  0.00     0.220 A 
ATOM      4  C   UNL d   1      32.911  21.932 -20.037  0.00  0.00     0.105 A 
ATOM      5  O   UNL d   1      33.102  22.404 -19.384  0.00  0.00    -0.304 OA
ATOM      6  C   UNL d   1      33.223  21.229 -20.311  0.00  0.00     0.050 A 
ATOM      7  C   UNL d   1      31.981  21.943 -21.120  0.00  0.00     0.007 A 
ATOM      8  C   UNL d   1      32.916  20.879 -20.990  0.00  0.00     0.105 A 
ATOM      9  O   UNL d   1      31.497  23.517 -20.257  0.00  0.00    -0.284 OA
ATOM     10  C   UNL d   1      32.296  21.237 -21.393  0.00  0.00     0.025 A 
ENDROOT
BRANCH   1  11
ATOM     11  C   UNL d   1      32.586  23.668 -18.840  0.00  0.00     0.053 C 
BRANCH  11  12
ATOM     12  C   UNL d   1      32.611  23.504 -18.029  0.00  0.00     0.102 A 
ATOM     13  O   UNL d   1      33.241  23.179 -17.615  0.00  0.00    -0.305 OA
ATOM     14  C   UNL d   1      33.024  23.113 -16.823  0.00  0.00     0.123 A 
ATOM     15  C   UNL d   1      32.252  23.399 -16.741  0.00  0.00     0.029 A 
ATOM     16  C   UNL d   1      31.993  23.642 -17.487  0.00  0.00     0.027 A 
ENDBRANCH  11  12
ENDBRANCH   1  11
BRANCH   8  17
ATOM     17  O   UNL d   1      33.230  20.170 -21.266  0.00  0.00    -0.273 OA
BRANCH  17  18
ATOM     18  C   UNL d   1      33.202  19.989 -22.066  0.00  0.00     0.300 C 
ATOM     19  O   UNL d   1      33.241  20.595 -22.625  0.00  0.00    -0.259 OA
BRANCH  18  20
ATOM     20  C   UNL d   1      33.135  19.200 -22.305  0.00  0.00     0.069 C 
ATOM     21  C   UNL d   1      32.531  18.983 -22.827  0.00  0.00     0.006 C 
ENDBRANCH  18  20
ENDBRANCH  17  18
ENDBRANCH   8  17
TORSDOF 5
ENDMDL
