MODEL 1
REMARK VINA RESULT:      14.2      0.000      0.000
REMARK  2 active torsions:
REMARK  status: ('A' for Active; 'I' for Inactive)
REMARK       I    between atoms: C_3  and  N_1 
REMARK    1  A    between atoms: C_7  and  C_3 
REMARK    2  A    between atoms: O_15  and  C_11 
ROOT
ATOM      1  N   UNL d   1      14.205  11.821  -1.326  0.00  0.00    -0.195 N 
ATOM      2  N   UNL d   1      14.983  11.845  -1.623  0.00  0.00    -0.163 NA
ATOM      3  C   UNL d   1      13.502  11.805  -1.753  0.00  0.00     0.280 C 
ATOM      4  C   UNL d   1      14.229  11.816  -0.538  0.00  0.00     0.088 A 
ATOM      5  C   UNL d   1      15.025  11.836  -0.293  0.00  0.00     0.040 A 
ATOM      6  C   UNL d   1      15.483  11.854  -0.967  0.00  0.00     0.103 A 
ATOM      7  O   UNL d   1      12.793  11.783  -1.354  0.00  0.00    -0.265 OA
ATOM      8  C   UNL d   1      13.552  11.793  -0.025  0.00  0.00     0.021 C 
ATOM      9  C   UNL d   1      16.326  11.877  -0.974  0.00  0.00     0.022 C 
ENDROOT
BRANCH   3  10
ATOM     10  C   UNL d   1      13.500  11.811  -2.586  0.00  0.00     0.058 A 
ATOM     11  C   UNL d   1      14.214  11.809  -2.996  0.00  0.00     0.007 A 
ATOM     12  C   UNL d   1      14.225  11.815  -3.817  0.00  0.00     0.024 A 
ATOM     13  C   UNL d   1      13.518  11.823  -4.233  0.00  0.00     0.094 A 
ATOM     14  C   UNL d   1      12.798  11.826  -3.830  0.00  0.00     0.024 A 
ATOM     15  C   UNL d   1      12.778  11.820  -3.011  0.00  0.00     0.007 A 
BRANCH  13  16
ATOM     16  O   UNL d   1      13.543  11.829  -5.067  0.00  0.00    -0.328 OA
ATOM     17  C   UNL d   1      12.832  11.794  -5.507  0.00  0.00     0.181 C 
ENDBRANCH  13  16
ENDBRANCH   3  10
TORSDOF 2
ENDMDL
MODEL 2
REMARK VINA RESULT:      17.2      1.641      1.872
REMARK  2 active torsions:
REMARK  status: ('A' for Active; 'I' for Inactive)
REMARK       I    between atoms: C_3  and  N_1 
REMARK    1  A    between atoms: C_7  and  C_3 
REMARK    2  A    between atoms: O_15  and  C_11 
ROOT
ATOM      1  N   UNL d   1      14.798  13.133  -0.975  0.00  0.00    -0.195 N 
ATOM      2  N   UNL d   1      14.417  13.860  -1.115  0.00  0.00    -0.163 NA
ATOM      3  C   UNL d   1      14.725  12.435  -1.403  0.00  0.00     0.280 C 
ATOM      4  C   UNL d   1      15.264  13.203  -0.342  0.00  0.00     0.088 A 
ATOM      5  C   UNL d   1      15.203  13.979  -0.047  0.00  0.00     0.040 A 
ATOM      6  C   UNL d   1      14.680  14.379  -0.528  0.00  0.00     0.103 A 
ATOM      7  O   UNL d   1      15.150  11.779  -1.172  0.00  0.00    -0.265 OA
ATOM      8  C   UNL d   1      15.748  12.584  -0.017  0.00  0.00     0.021 C 
ATOM      9  C   UNL d   1      14.456  15.185  -0.429  0.00  0.00     0.022 C 
ENDROOT
BRANCH   3  10
ATOM     10  C   UNL d   1      14.227  12.383  -2.069  0.00  0.00     0.058 A 
ATOM     11  C   UNL d   1      14.339  12.898  -2.702  0.00  0.00     0.007 A 
ATOM     12  C   UNL d   1      13.854  12.857  -3.364  0.00  0.00     0.024 A 
ATOM     13  C   UNL d   1      13.254  12.299  -3.395  0.00  0.00     0.094 A 
ATOM     14  C   UNL d   1      13.136  11.779  -2.765  0.00  0.00     0.024 A 
ATOM     15  C   UNL d   1      13.614  11.813  -2.100  0.00  0.00     0.007 A 
BRANCH  13  16
ATOM     16  O   UNL d   1      12.769  12.268  -4.073  0.00  0.00    -0.328 OA
ATOM     17  C   UNL d   1      13.107  12.110  -4.823  0.00  0.00     0.181 C 
ENDBRANCH  13  16
ENDBRANCH   3  10
TORSDOF 2
ENDMDL
