MODEL 1
REMARK VINA RESULT:      -7.8      0.000      0.000
REMARK  2 active torsions:
REMARK  status: ('A' for Active; 'I' for Inactive)
REMARK    1  A    between atoms: C_3  and  C_1 
REMARK       I    between atoms: N_6  and  C_3 
REMARK    2  A    between atoms: C_16  and  N_7 
ROOT
ATOM      1  C   UNL d   1     -40.535  14.280  18.552  0.00  0.00     0.270 C 
ATOM      2  N   UNL d   1     -40.233  14.453  19.301  0.00  0.00    -0.269 N 
ATOM      3  N   UNL d   1     -39.621  14.799  20.788  0.00  0.00    -0.301 N 
ATOM      4  O   UNL d   1     -41.323  14.045  18.472  0.00  0.00    -0.266 OA
ATOM      5  C   UNL d   1     -39.446  14.687  19.376  0.00  0.00     0.102 A 
ATOM      6  C   UNL d   1     -40.710  14.392  19.962  0.00  0.00     0.102 A 
ATOM      7  C   UNL d   1     -40.404  14.566  20.709  0.00  0.00     0.100 A 
ATOM      8  C   UNL d   1     -39.138  14.861  20.119  0.00  0.00     0.100 A 
ENDROOT
BRANCH   1   9
ATOM      9  C   UNL d   1     -40.051  14.342  17.886  0.00  0.00     0.120 A 
ATOM     10  C   UNL d   1     -40.130  14.982  17.372  0.00  0.00     0.305 A 
ATOM     11  O   UNL d   1     -39.640  15.045  16.698  0.00  0.00    -0.273 OA
ATOM     12  O   UNL d   1     -40.697  15.562  17.525  0.00  0.00    -0.259 OA
ATOM     13  C   UNL d   1     -39.071  14.461  16.548  0.00  0.00     0.103 A 
ATOM     14  C   UNL d   1     -38.989  13.820  17.059  0.00  0.00     0.023 A 
ATOM     15  C   UNL d   1     -38.587  14.523  15.882  0.00  0.00     0.025 A 
ATOM     16  C   UNL d   1     -39.477  13.754  17.732  0.00  0.00     0.012 A 
ATOM     17  C   UNL d   1     -38.421  13.240  16.906  0.00  0.00     0.002 A 
ATOM     18  C   UNL d   1     -37.940  13.304  16.242  0.00  0.00     0.000 A 
ATOM     19  C   UNL d   1     -38.022  13.945  15.731  0.00  0.00     0.002 A 
ENDBRANCH   1   9
BRANCH   3  20
ATOM     20  C   UNL d   1     -39.310  14.974  21.530  0.00  0.00     0.064 A 
ATOM     21  C   UNL d   1     -39.314  15.749  21.815  0.00  0.00     0.018 A 
ATOM     22  C   UNL d   1     -39.001  15.920  22.559  0.00  0.00     0.002 A 
ATOM     23  C   UNL d   1     -38.684  15.313  23.017  0.00  0.00     0.000 A 
ATOM     24  C   UNL d   1     -38.679  14.535  22.733  0.00  0.00     0.002 A 
ATOM     25  C   UNL d   1     -38.992  14.369  21.990  0.00  0.00     0.018 A 
ENDBRANCH   3  20
TORSDOF 2
ENDMDL
MODEL 2
REMARK VINA RESULT:      -7.1      9.033     10.747
REMARK  2 active torsions:
REMARK  status: ('A' for Active; 'I' for Inactive)
REMARK    1  A    between atoms: C_3  and  C_1 
REMARK       I    between atoms: N_6  and  C_3 
REMARK    2  A    between atoms: C_16  and  N_7 
ROOT
ATOM      1  C   UNL d   1     -49.588  12.039  23.393  0.00  0.00     0.270 C 
ATOM      2  N   UNL d   1     -48.772  11.905  23.378  0.00  0.00    -0.269 N 
ATOM      3  N   UNL d   1     -47.148  11.648  23.343  0.00  0.00    -0.301 N 
ATOM      4  O   UNL d   1     -50.093  11.461  23.698  0.00  0.00    -0.266 OA
ATOM      5  C   UNL d   1     -48.272  12.485  23.073  0.00  0.00     0.102 A 
ATOM      6  C   UNL d   1     -48.465  11.203  23.663  0.00  0.00     0.102 A 
ATOM      7  C   UNL d   1     -47.650  11.072  23.646  0.00  0.00     0.100 A 
ATOM      8  C   UNL d   1     -47.459  12.358  23.054  0.00  0.00     0.100 A 
ENDROOT
BRANCH   1   9
ATOM      9  C   UNL d   1     -49.895  12.749  23.105  0.00  0.00     0.120 A 
ATOM     10  C   UNL d   1     -50.284  12.771  22.379  0.00  0.00     0.305 A 
ATOM     11  O   UNL d   1     -50.594  13.489  22.087  0.00  0.00    -0.273 OA
ATOM     12  O   UNL d   1     -50.366  12.077  21.939  0.00  0.00    -0.259 OA
ATOM     13  C   UNL d   1     -50.510  14.183  22.531  0.00  0.00     0.103 A 
ATOM     14  C   UNL d   1     -50.122  14.167  23.258  0.00  0.00     0.023 A 
ATOM     15  C   UNL d   1     -50.817  14.893  22.243  0.00  0.00     0.025 A 
ATOM     16  C   UNL d   1     -49.811  13.451  23.552  0.00  0.00     0.012 A 
ATOM     17  C   UNL d   1     -50.040  14.861  23.698  0.00  0.00     0.002 A 
ATOM     18  C   UNL d   1     -50.347  15.567  23.409  0.00  0.00     0.000 A 
ATOM     19  C   UNL d   1     -50.735  15.583  22.683  0.00  0.00     0.002 A 
ENDBRANCH   1   9
BRANCH   3  20
ATOM     20  C   UNL d   1     -46.334  11.524  23.323  0.00  0.00     0.064 A 
ATOM     21  C   UNL d   1     -46.003  10.852  23.671  0.00  0.00     0.018 A 
ATOM     22  C   UNL d   1     -45.188  10.731  23.649  0.00  0.00     0.002 A 
ATOM     23  C   UNL d   1     -44.703  11.285  23.277  0.00  0.00     0.000 A 
ATOM     24  C   UNL d   1     -45.033  11.959  22.927  0.00  0.00     0.002 A 
ATOM     25  C   UNL d   1     -45.848  12.075  22.952  0.00  0.00     0.018 A 
ENDBRANCH   3  20
TORSDOF 2
ENDMDL
MODEL 3
REMARK VINA RESULT:      -7.0      1.357      4.719
REMARK  2 active torsions:
REMARK  status: ('A' for Active; 'I' for Inactive)
REMARK    1  A    between atoms: C_3  and  C_1 
REMARK       I    between atoms: N_6  and  C_3 
REMARK    2  A    between atoms: C_16  and  N_7 
ROOT
ATOM      1  C   UNL d   1     -40.465  14.457  20.437  0.00  0.00     0.270 C 
ATOM      2  N   UNL d   1     -40.113  14.368  19.695  0.00  0.00    -0.269 N 
ATOM      3  N   UNL d   1     -39.402  14.191  18.223  0.00  0.00    -0.301 N 
ATOM      4  O   UNL d   1     -41.289  14.467  20.502  0.00  0.00    -0.266 OA
ATOM      5  C   UNL d   1     -39.291  14.358  19.636  0.00  0.00     0.102 A 
ATOM      6  C   UNL d   1     -40.576  14.290  19.026  0.00  0.00     0.102 A 
ATOM      7  C   UNL d   1     -40.220  14.201  18.286  0.00  0.00     0.100 A 
ATOM      8  C   UNL d   1     -38.933  14.270  18.900  0.00  0.00     0.100 A 
ENDROOT
BRANCH   1   9
ATOM      9  C   UNL d   1     -39.995  14.536  21.111  0.00  0.00     0.120 A 
ATOM     10  C   UNL d   1     -39.922  15.266  21.485  0.00  0.00     0.305 A 
ATOM     11  O   UNL d   1     -39.446  15.346  22.167  0.00  0.00    -0.273 OA
ATOM     12  O   UNL d   1     -40.322  15.922  21.183  0.00  0.00    -0.259 OA
ATOM     13  C   UNL d   1     -39.045  14.686  22.468  0.00  0.00     0.103 A 
ATOM     14  C   UNL d   1     -39.115  13.953  22.097  0.00  0.00     0.023 A 
ATOM     15  C   UNL d   1     -38.575  14.764  23.142  0.00  0.00     0.025 A 
ATOM     16  C   UNL d   1     -39.590  13.870  21.416  0.00  0.00     0.012 A 
ATOM     17  C   UNL d   1     -38.715  13.297  22.399  0.00  0.00     0.002 A 
ATOM     18  C   UNL d   1     -38.247  13.378  23.071  0.00  0.00     0.000 A 
ATOM     19  C   UNL d   1     -38.177  14.110  23.441  0.00  0.00     0.002 A 
ENDBRANCH   1   9
BRANCH   3  20
ATOM     20  C   UNL d   1     -39.041  14.103  17.488  0.00  0.00     0.064 A 
ATOM     21  C   UNL d   1     -39.052  14.719  16.938  0.00  0.00     0.018 A 
ATOM     22  C   UNL d   1     -38.689  14.627  16.203  0.00  0.00     0.002 A 
ATOM     23  C   UNL d   1     -38.315  13.915  16.019  0.00  0.00     0.000 A 
ATOM     24  C   UNL d   1     -38.303  13.296  16.569  0.00  0.00     0.002 A 
ATOM     25  C   UNL d   1     -38.667  13.393  17.302  0.00  0.00     0.018 A 
ENDBRANCH   3  20
TORSDOF 2
ENDMDL
MODEL 4
REMARK VINA RESULT:      -6.9      7.835      9.640
REMARK  2 active torsions:
REMARK  status: ('A' for Active; 'I' for Inactive)
REMARK    1  A    between atoms: C_3  and  C_1 
REMARK       I    between atoms: N_6  and  C_3 
REMARK    2  A    between atoms: C_16  and  N_7 
ROOT
ATOM      1  C   UNL d   1     -47.990  14.344  22.757  0.00  0.00     0.270 C 
ATOM      2  N   UNL d   1     -47.254  13.997  22.617  0.00  0.00    -0.269 N 
ATOM      3  N   UNL d   1     -45.793  13.296  22.336  0.00  0.00    -0.301 N 
ATOM      4  O   UNL d   1     -48.034  15.139  22.978  0.00  0.00    -0.266 OA
ATOM      5  C   UNL d   1     -47.215  13.203  22.397  0.00  0.00     0.102 A 
ATOM      6  C   UNL d   1     -46.569  14.437  22.696  0.00  0.00     0.102 A 
ATOM      7  C   UNL d   1     -45.835  14.086  22.555  0.00  0.00     0.100 A 
ATOM      8  C   UNL d   1     -46.485  12.851  22.255  0.00  0.00     0.100 A 
ENDROOT
BRANCH   1   9
ATOM      9  C   UNL d   1     -48.680  13.897  22.676  0.00  0.00     0.120 A 
ATOM     10  C   UNL d   1     -49.196  14.037  22.049  0.00  0.00     0.305 A 
ATOM     11  O   UNL d   1     -49.893  13.585  21.967  0.00  0.00    -0.273 OA
ATOM     12  O   UNL d   1     -49.021  14.629  21.500  0.00  0.00    -0.259 OA
ATOM     13  C   UNL d   1     -50.066  12.992  22.520  0.00  0.00     0.103 A 
ATOM     14  C   UNL d   1     -49.553  12.848  23.148  0.00  0.00     0.023 A 
ATOM     15  C   UNL d   1     -50.755  12.545  22.439  0.00  0.00     0.025 A 
ATOM     16  C   UNL d   1     -48.855  13.299  23.233  0.00  0.00     0.012 A 
ATOM     17  C   UNL d   1     -49.728  12.257  23.698  0.00  0.00     0.002 A 
ATOM     18  C   UNL d   1     -50.415  11.813  23.615  0.00  0.00     0.000 A 
ATOM     19  C   UNL d   1     -50.928  11.957  22.987  0.00  0.00     0.002 A 
ENDBRANCH   1   9
BRANCH   3  20
ATOM     20  C   UNL d   1     -45.063  12.940  22.194  0.00  0.00     0.064 A 
ATOM     21  C   UNL d   1     -44.543  13.258  21.636  0.00  0.00     0.018 A 
ATOM     22  C   UNL d   1     -43.814  12.899  21.497  0.00  0.00     0.002 A 
ATOM     23  C   UNL d   1     -43.606  12.221  21.918  0.00  0.00     0.000 A 
ATOM     24  C   UNL d   1     -44.126  11.901  22.477  0.00  0.00     0.002 A 
ATOM     25  C   UNL d   1     -44.853  12.263  22.613  0.00  0.00     0.018 A 
ENDBRANCH   3  20
TORSDOF 2
ENDMDL
MODEL 5
REMARK VINA RESULT:      -6.9      8.590     10.381
REMARK  2 active torsions:
REMARK  status: ('A' for Active; 'I' for Inactive)
REMARK    1  A    between atoms: C_3  and  C_1 
REMARK       I    between atoms: N_6  and  C_3 
REMARK    2  A    between atoms: C_16  and  N_7 
ROOT
ATOM      1  C   UNL d   1     -49.043  12.294  23.306  0.00  0.00     0.270 C 
ATOM      2  N   UNL d   1     -48.238  12.339  23.128  0.00  0.00    -0.269 N 
ATOM      3  N   UNL d   1     -46.636  12.438  22.767  0.00  0.00    -0.301 N 
ATOM      4  O   UNL d   1     -49.341  11.628  23.694  0.00  0.00    -0.266 OA
ATOM      5  C   UNL d   1     -47.945  13.005  22.741  0.00  0.00     0.102 A 
ATOM      6  C   UNL d   1     -47.735  11.727  23.333  0.00  0.00     0.102 A 
ATOM      7  C   UNL d   1     -46.931  11.776  23.153  0.00  0.00     0.100 A 
ATOM      8  C   UNL d   1     -47.144  13.057  22.560  0.00  0.00     0.100 A 
ENDROOT
BRANCH   1   9
ATOM      9  C   UNL d   1     -49.548  12.913  23.098  0.00  0.00     0.120 A 
ATOM     10  C   UNL d   1     -50.094  12.818  22.488  0.00  0.00     0.305 A 
ATOM     11  O   UNL d   1     -50.604  13.445  22.277  0.00  0.00    -0.273 OA
ATOM     12  O   UNL d   1     -50.135  12.099  22.085  0.00  0.00    -0.259 OA
ATOM     13  C   UNL d   1     -50.560  14.166  22.684  0.00  0.00     0.103 A 
ATOM     14  C   UNL d   1     -50.016  14.265  23.294  0.00  0.00     0.023 A 
ATOM     15  C   UNL d   1     -51.064  14.785  22.475  0.00  0.00     0.025 A 
ATOM     16  C   UNL d   1     -49.505  13.641  23.507  0.00  0.00     0.012 A 
ATOM     17  C   UNL d   1     -49.974  14.985  23.698  0.00  0.00     0.002 A 
ATOM     18  C   UNL d   1     -50.477  15.600  23.488  0.00  0.00     0.000 A 
ATOM     19  C   UNL d   1     -51.022  15.501  22.878  0.00  0.00     0.002 A 
ENDBRANCH   1   9
BRANCH   3  20
ATOM     20  C   UNL d   1     -45.835  12.492  22.585  0.00  0.00     0.064 A 
ATOM     21  C   UNL d   1     -45.541  13.148  22.178  0.00  0.00     0.018 A 
ATOM     22  C   UNL d   1     -44.738  13.199  21.996  0.00  0.00     0.002 A 
ATOM     23  C   UNL d   1     -44.229  12.592  22.224  0.00  0.00     0.000 A 
ATOM     24  C   UNL d   1     -44.522  11.933  22.632  0.00  0.00     0.002 A 
ATOM     25  C   UNL d   1     -45.325  11.887  22.811  0.00  0.00     0.018 A 
ENDBRANCH   3  20
TORSDOF 2
ENDMDL
MODEL 6
REMARK VINA RESULT:      -6.5      7.890      9.578
REMARK  2 active torsions:
REMARK  status: ('A' for Active; 'I' for Inactive)
REMARK    1  A    between atoms: C_3  and  C_1 
REMARK       I    between atoms: N_6  and  C_3 
REMARK    2  A    between atoms: C_16  and  N_7 
ROOT
ATOM      1  C   UNL d   1     -47.370  14.217  22.442  0.00  0.00     0.270 C 
ATOM      2  N   UNL d   1     -46.882  13.573  22.614  0.00  0.00    -0.269 N 
ATOM      3  N   UNL d   1     -45.918  12.286  22.957  0.00  0.00    -0.301 N 
ATOM      4  O   UNL d   1     -47.035  14.955  22.282  0.00  0.00    -0.266 OA
ATOM      5  C   UNL d   1     -47.221  12.839  22.773  0.00  0.00     0.102 A 
ATOM      6  C   UNL d   1     -46.069  13.664  22.626  0.00  0.00     0.102 A 
ATOM      7  C   UNL d   1     -45.584  13.018  22.798  0.00  0.00     0.100 A 
ATOM      8  C   UNL d   1     -46.740  12.193  22.945  0.00  0.00     0.100 A 
ENDROOT
BRANCH   1   9
ATOM      9  C   UNL d   1     -48.190  14.122  22.430  0.00  0.00     0.120 A 
ATOM     10  C   UNL d   1     -48.653  14.422  23.043  0.00  0.00     0.305 A 
ATOM     11  O   UNL d   1     -49.483  14.326  23.031  0.00  0.00    -0.273 OA
ATOM     12  O   UNL d   1     -48.293  14.820  23.670  0.00  0.00    -0.259 OA
ATOM     13  C   UNL d   1     -49.841  13.926  22.400  0.00  0.00     0.103 A 
ATOM     14  C   UNL d   1     -49.382  13.624  21.785  0.00  0.00     0.023 A 
ATOM     15  C   UNL d   1     -50.661  13.831  22.388  0.00  0.00     0.025 A 
ATOM     16  C   UNL d   1     -48.554  13.719  21.794  0.00  0.00     0.012 A 
ATOM     17  C   UNL d   1     -49.743  13.227  21.158  0.00  0.00     0.002 A 
ATOM     18  C   UNL d   1     -50.560  13.133  21.148  0.00  0.00     0.000 A 
ATOM     19  C   UNL d   1     -51.018  13.435  21.762  0.00  0.00     0.002 A 
ENDBRANCH   1   9
BRANCH   3  20
ATOM     20  C   UNL d   1     -45.440  11.637  23.130  0.00  0.00     0.064 A 
ATOM     21  C   UNL d   1     -44.638  11.644  22.935  0.00  0.00     0.018 A 
ATOM     22  C   UNL d   1     -44.162  10.993  23.109  0.00  0.00     0.002 A 
ATOM     23  C   UNL d   1     -44.492  10.334  23.479  0.00  0.00     0.000 A 
ATOM     24  C   UNL d   1     -45.297  10.326  23.676  0.00  0.00     0.002 A 
ATOM     25  C   UNL d   1     -45.767  10.978  23.499  0.00  0.00     0.018 A 
ENDBRANCH   3  20
TORSDOF 2
ENDMDL
MODEL 7
REMARK VINA RESULT:      -5.7      1.344      2.118
REMARK  2 active torsions:
REMARK  status: ('A' for Active; 'I' for Inactive)
REMARK    1  A    between atoms: C_3  and  C_1 
REMARK       I    between atoms: N_6  and  C_3 
REMARK    2  A    between atoms: C_16  and  N_7 
ROOT
ATOM      1  C   UNL d   1     -38.679  13.744  18.316  0.00  0.00     0.270 C 
ATOM      2  N   UNL d   1     -38.625  13.817  19.137  0.00  0.00    -0.269 N 
ATOM      3  N   UNL d   1     -38.525  13.973  20.771  0.00  0.00    -0.301 N 
ATOM      4  O   UNL d   1     -38.282  13.129  17.933  0.00  0.00    -0.266 OA
ATOM      5  C   UNL d   1     -39.023  14.432  19.515  0.00  0.00     0.102 A 
ATOM      6  C   UNL d   1     -38.181  13.285  19.571  0.00  0.00     0.102 A 
ATOM      7  C   UNL d   1     -38.130  13.362  20.391  0.00  0.00     0.100 A 
ATOM      8  C   UNL d   1     -38.975  14.512  20.333  0.00  0.00     0.100 A 
ENDROOT
BRANCH   1   9
ATOM      9  C   UNL d   1     -39.128  14.283  17.881  0.00  0.00     0.120 A 
ATOM     10  C   UNL d   1     -38.761  14.808  17.362  0.00  0.00     0.305 A 
ATOM     11  O   UNL d   1     -39.215  15.353  16.922  0.00  0.00    -0.273 OA
ATOM     12  O   UNL d   1     -37.940  14.792  17.278  0.00  0.00    -0.259 OA
ATOM     13  C   UNL d   1     -40.039  15.366  17.009  0.00  0.00     0.103 A 
ATOM     14  C   UNL d   1     -40.410  14.844  17.527  0.00  0.00     0.023 A 
ATOM     15  C   UNL d   1     -40.488  15.906  16.574  0.00  0.00     0.025 A 
ATOM     16  C   UNL d   1     -39.959  14.298  17.968  0.00  0.00     0.012 A 
ATOM     17  C   UNL d   1     -41.232  14.860  17.611  0.00  0.00     0.002 A 
ATOM     18  C   UNL d   1     -41.677  15.398  17.177  0.00  0.00     0.000 A 
ATOM     19  C   UNL d   1     -41.306  15.920  16.660  0.00  0.00     0.002 A 
ENDBRANCH   1   9
BRANCH   3  20
ATOM     20  C   UNL d   1     -38.479  14.055  21.590  0.00  0.00     0.064 A 
ATOM     21  C   UNL d   1     -38.179  14.748  21.925  0.00  0.00     0.018 A 
ATOM     22  C   UNL d   1     -38.134  14.827  22.745  0.00  0.00     0.002 A 
ATOM     23  C   UNL d   1     -38.390  14.210  23.229  0.00  0.00     0.000 A 
ATOM     24  C   UNL d   1     -38.691  13.515  22.894  0.00  0.00     0.002 A 
ATOM     25  C   UNL d   1     -38.734  13.441  22.075  0.00  0.00     0.018 A 
ENDBRANCH   3  20
TORSDOF 2
ENDMDL
MODEL 8
REMARK VINA RESULT:      -4.9      8.333      9.893
REMARK  2 active torsions:
REMARK  status: ('A' for Active; 'I' for Inactive)
REMARK    1  A    between atoms: C_3  and  C_1 
REMARK       I    between atoms: N_6  and  C_3 
REMARK    2  A    between atoms: C_16  and  N_7 
ROOT
ATOM      1  C   UNL d   1     -47.999  11.699  22.725  0.00  0.00     0.270 C 
ATOM      2  N   UNL d   1     -48.462  12.369  22.867  0.00  0.00    -0.269 N 
ATOM      3  N   UNL d   1     -49.373  13.709  23.149  0.00  0.00    -0.301 N 
ATOM      4  O   UNL d   1     -48.363  10.981  22.539  0.00  0.00    -0.266 OA
ATOM      5  C   UNL d   1     -48.094  13.083  23.052  0.00  0.00     0.102 A 
ATOM      6  C   UNL d   1     -49.277  12.324  22.822  0.00  0.00     0.102 A 
ATOM      7  C   UNL d   1     -49.736  12.996  22.963  0.00  0.00     0.100 A 
ATOM      8  C   UNL d   1     -48.548  13.755  23.194  0.00  0.00     0.100 A 
ENDROOT
BRANCH   1   9
ATOM      9  C   UNL d   1     -47.176  11.748  22.771  0.00  0.00     0.120 A 
ATOM     10  C   UNL d   1     -46.753  11.218  23.239  0.00  0.00     0.305 A 
ATOM     11  O   UNL d   1     -45.921  11.267  23.286  0.00  0.00    -0.273 OA
ATOM     12  O   UNL d   1     -47.156  10.635  23.664  0.00  0.00    -0.259 OA
ATOM     13  C   UNL d   1     -45.519  11.853  22.858  0.00  0.00     0.103 A 
ATOM     14  C   UNL d   1     -45.939  12.386  22.389  0.00  0.00     0.023 A 
ATOM     15  C   UNL d   1     -44.696  11.902  22.904  0.00  0.00     0.025 A 
ATOM     16  C   UNL d   1     -46.770  12.339  22.341  0.00  0.00     0.012 A 
ATOM     17  C   UNL d   1     -45.536  12.968  21.964  0.00  0.00     0.002 A 
ATOM     18  C   UNL d   1     -44.716  13.015  22.011  0.00  0.00     0.000 A 
ATOM     19  C   UNL d   1     -44.297  12.483  22.480  0.00  0.00     0.002 A 
ENDBRANCH   1   9
BRANCH   3  20
ATOM     20  C   UNL d   1     -49.825  14.383  23.291  0.00  0.00     0.064 A 
ATOM     21  C   UNL d   1     -50.615  14.317  23.522  0.00  0.00     0.018 A 
ATOM     22  C   UNL d   1     -51.064  14.994  23.663  0.00  0.00     0.002 A 
ATOM     23  C   UNL d   1     -50.721  15.738  23.573  0.00  0.00     0.000 A 
ATOM     24  C   UNL d   1     -49.928  15.806  23.342  0.00  0.00     0.002 A 
ATOM     25  C   UNL d   1     -49.484  15.127  23.202  0.00  0.00     0.018 A 
ENDBRANCH   3  20
TORSDOF 2
ENDMDL
