MODEL 1
REMARK VINA RESULT:      51.2      0.000      0.000
REMARK  3 active torsions:
REMARK  status: ('A' for Active; 'I' for Inactive)
REMARK    1  A    between atoms: C_8  and  C_1 
REMARK    2  A    between atoms: C_9  and  C_4 
REMARK    3  A    between atoms: O_20  and  C_8 
ROOT
ATOM      1  C   UNL d   1      57.891  49.608  51.880  0.00  0.00     0.107 A 
ATOM      2  C   UNL d   1      58.567  49.661  52.365  0.00  0.00     0.208 A 
ATOM      3  C   UNL d   1      58.732  49.603  50.708  0.00  0.00     0.062 A 
ATOM      4  C   UNL d   1      57.989  49.580  51.042  0.00  0.00     0.020 A 
ATOM      5  C   UNL d   1      59.408  49.656  51.193  0.00  0.00     0.101 A 
ATOM      6  O   UNL d   1      59.340  49.685  52.011  0.00  0.00    -0.288 OA
ATOM      7  C   UNL d   1      58.813  49.575  49.895  0.00  0.00     0.194 A 
ATOM      8  C   UNL d   1      60.164  49.680  50.864  0.00  0.00     0.002 A 
ATOM      9  C   UNL d   1      60.235  49.651  50.040  0.00  0.00     0.042 A 
ATOM     10  C   UNL d   1      59.559  49.598  49.555  0.00  0.00     0.019 A 
ATOM     11  O   UNL d   1      58.133  49.522  49.407  0.00  0.00    -0.287 OA
ATOM     12  N   UNL d   1      58.483  49.690  53.206  0.00  0.00    -0.121 N 
ATOM     13  C   UNL d   1      60.771  49.653  49.431  0.00  0.00     0.009 C 
ATOM     14  C   UNL d   1      60.993  49.701  50.368  0.00  0.00     0.009 C 
ENDROOT
BRANCH   4  15
ATOM     15  C   UNL d   1      57.336  49.528  50.561  0.00  0.00     0.030 A 
ATOM     16  S   UNL d   1      56.432  49.271  50.694  0.00  0.00    -0.086 SA
ATOM     17  C   UNL d   1      56.195  49.436  49.733  0.00  0.00     0.035 A 
ATOM     18  C   UNL d   1      56.814  49.655  49.459  0.00  0.00     0.007 A 
ATOM     19  C   UNL d   1      57.388  49.700  49.879  0.00  0.00     0.007 A 
ENDBRANCH   4  15
BRANCH   1  20
ATOM     20  C   UNL d   1      57.132  49.585  52.237  0.00  0.00     0.299 C 
ATOM     21  O   UNL d   1      56.436  49.675  51.779  0.00  0.00    -0.259 OA
BRANCH  20  22
ATOM     22  O   UNL d   1      57.048  49.472  53.048  0.00  0.00    -0.296 OA
ATOM     23  C   UNL d   1      56.343  49.706  53.453  0.00  0.00     0.185 C 
ENDBRANCH  20  22
ENDBRANCH   1  20
TORSDOF 3
ENDMDL
MODEL 2
REMARK VINA RESULT:      51.3      1.382      3.184
REMARK  3 active torsions:
REMARK  status: ('A' for Active; 'I' for Inactive)
REMARK    1  A    between atoms: C_8  and  C_1 
REMARK    2  A    between atoms: C_9  and  C_4 
REMARK    3  A    between atoms: O_20  and  C_8 
ROOT
ATOM      1  C   UNL d   1      60.007  49.457  51.563  0.00  0.00     0.107 A 
ATOM      2  C   UNL d   1      59.514  49.583  52.224  0.00  0.00     0.208 A 
ATOM      3  C   UNL d   1      58.851  49.458  50.701  0.00  0.00     0.062 A 
ATOM      4  C   UNL d   1      59.657  49.396  50.798  0.00  0.00     0.020 A 
ATOM      5  C   UNL d   1      58.358  49.584  51.362  0.00  0.00     0.101 A 
ATOM      6  O   UNL d   1      58.673  49.647  52.118  0.00  0.00    -0.288 OA
ATOM      7  C   UNL d   1      58.526  49.397  49.954  0.00  0.00     0.194 A 
ATOM      8  C   UNL d   1      57.541  49.648  51.274  0.00  0.00     0.002 A 
ATOM      9  C   UNL d   1      57.221  49.585  50.513  0.00  0.00     0.042 A 
ATOM     10  C   UNL d   1      57.714  49.459  49.853  0.00  0.00     0.019 A 
ATOM     11  O   UNL d   1      59.021  49.270  49.290  0.00  0.00    -0.287 OA
ATOM     12  N   UNL d   1      59.852  49.646  52.998  0.00  0.00    -0.121 N 
ATOM     13  C   UNL d   1      56.526  49.597  50.094  0.00  0.00     0.009 C 
ATOM     14  C   UNL d   1      56.602  49.706  51.049  0.00  0.00     0.009 C 
ENDROOT
BRANCH   4  15
ATOM     15  C   UNL d   1      60.130  49.273  50.148  0.00  0.00     0.030 A 
ATOM     16  S   UNL d   1      60.794  48.634  49.920  0.00  0.00    -0.086 SA
ATOM     17  C   UNL d   1      60.955  49.052  49.022  0.00  0.00     0.035 A 
ATOM     18  C   UNL d   1      60.498  49.598  49.024  0.00  0.00     0.007 A 
ATOM     19  C   UNL d   1      60.083  49.707  49.593  0.00  0.00     0.007 A 
ENDBRANCH   4  15
BRANCH   1  20
ATOM     20  C   UNL d   1      60.836  49.395  51.677  0.00  0.00     0.299 C 
ATOM     21  O   UNL d   1      61.335  49.104  51.070  0.00  0.00    -0.259 OA
BRANCH  20  22
ATOM     22  O   UNL d   1      61.185  49.619  52.389  0.00  0.00    -0.296 OA
ATOM     23  C   UNL d   1      62.024  49.689  52.463  0.00  0.00     0.185 C 
ENDBRANCH  20  22
ENDBRANCH   1  20
TORSDOF 3
ENDMDL
