MODEL 1
REMARK VINA RESULT:      -3.0      0.000      0.000
REMARK  4 active torsions:
REMARK  status: ('A' for Active; 'I' for Inactive)
REMARK    1  A    between atoms: N_2  and  S_1 
REMARK    2  A    between atoms: C_3  and  S_1 
REMARK    3  A    between atoms: O_15  and  C_13 
REMARK    4  A    between atoms: C_19  and  O_15 
ROOT
ATOM      1  C   UNL d   1      56.812  -0.061  31.933  0.00  0.00     0.105 A 
ATOM      2  C   UNL d   1      57.141   0.185  32.659  0.00  0.00     0.014 A 
ATOM      3  C   UNL d   1      56.657   0.286  33.317  0.00  0.00     0.024 A 
ATOM      4  C   UNL d   1      55.993  -0.199  31.891  0.00  0.00     0.015 A 
ATOM      5  C   UNL d   1      55.849   0.147  33.267  0.00  0.00     0.100 A 
ATOM      6  C   UNL d   1      55.516  -0.096  32.553  0.00  0.00     0.025 A 
ATOM      7  C   UNL d   1      57.953   0.326  32.711  0.00  0.00     0.001 A 
ATOM      8  C   UNL d   1      56.987   0.529  34.029  0.00  0.00     0.002 A 
ATOM      9  C   UNL d   1      58.283   0.568  33.423  0.00  0.00     0.000 A 
ATOM     10  C   UNL d   1      57.797   0.671  34.090  0.00  0.00     0.000 A 
ENDROOT
BRANCH   1  11
ATOM     11  S   UNL d   1      57.290  -0.164  31.271  0.00  0.00     0.286 S 
ATOM     12  O   UNL d   1      57.181   0.630  31.068  0.00  0.00    -0.198 OA
ATOM     13  O   UNL d   1      57.399  -0.963  31.474  0.00  0.00    -0.198 OA
BRANCH  11  14
ATOM     14  N   UNL d   1      57.775  -0.269  30.598  0.00  0.00    -0.150 N 
ATOM     15  N   UNL d   1      57.975  -0.997  30.252  0.00  0.00    -0.155 NA
ATOM     16  C   UNL d   1      58.462  -0.844  29.603  0.00  0.00     0.104 A 
ATOM     17  C   UNL d   1      58.794  -1.410  29.094  0.00  0.00     0.022 C 
ATOM     18  C   UNL d   1      58.563  -0.021  29.547  0.00  0.00     0.042 A 
ATOM     19  C   UNL d   1      58.138   0.329  30.163  0.00  0.00     0.115 A 
ENDBRANCH  11  14
ENDBRANCH   1  11
BRANCH   5  20
ATOM     20  O   UNL d   1      55.371   0.251  33.930  0.00  0.00    -0.305 OA
BRANCH  20  21
ATOM     21  C   UNL d   1      54.652   0.642  33.861  0.00  0.00     0.123 C 
ATOM     22  C   UNL d   1      54.134   0.682  34.499  0.00  0.00     0.029 C 
ENDBRANCH  20  21
ENDBRANCH   5  20
TORSDOF 4
ENDMDL
MODEL 2
REMARK VINA RESULT:      -2.9      1.516      4.530
REMARK  4 active torsions:
REMARK  status: ('A' for Active; 'I' for Inactive)
REMARK    1  A    between atoms: N_2  and  S_1 
REMARK    2  A    between atoms: C_3  and  S_1 
REMARK    3  A    between atoms: O_15  and  C_13 
REMARK    4  A    between atoms: C_19  and  O_15 
ROOT
ATOM      1  C   UNL d   1      58.124  -0.115  30.455  0.00  0.00     0.105 A 
ATOM      2  C   UNL d   1      58.345  -0.797  30.026  0.00  0.00     0.014 A 
ATOM      3  C   UNL d   1      58.901  -0.740  29.422  0.00  0.00     0.024 A 
ATOM      4  C   UNL d   1      58.475   0.612  30.259  0.00  0.00     0.015 A 
ATOM      5  C   UNL d   1      59.244  -0.017  29.234  0.00  0.00     0.100 A 
ATOM      6  C   UNL d   1      59.031   0.661  29.654  0.00  0.00     0.025 A 
ATOM      7  C   UNL d   1      58.001  -1.523  30.213  0.00  0.00     0.001 A 
ATOM      8  C   UNL d   1      59.114  -1.414  29.003  0.00  0.00     0.002 A 
ATOM      9  C   UNL d   1      58.215  -2.198  29.794  0.00  0.00     0.000 A 
ATOM     10  C   UNL d   1      58.776  -2.145  29.184  0.00  0.00     0.000 A 
ENDROOT
BRANCH   1  11
ATOM     11  S   UNL d   1      57.569  -0.164  31.060  0.00  0.00     0.286 S 
ATOM     12  O   UNL d   1      56.962  -0.024  30.515  0.00  0.00    -0.198 OA
ATOM     13  O   UNL d   1      58.178  -0.305  31.608  0.00  0.00    -0.198 OA
BRANCH  11  14
ATOM     14  N   UNL d   1      57.004  -0.213  31.675  0.00  0.00    -0.150 N 
ATOM     15  N   UNL d   1      56.632  -0.908  31.938  0.00  0.00    -0.155 NA
ATOM     16  C   UNL d   1      56.118  -0.703  32.552  0.00  0.00     0.104 A 
ATOM     17  C   UNL d   1      55.631  -1.223  32.978  0.00  0.00     0.022 C 
ATOM     18  C   UNL d   1      56.173   0.118  32.668  0.00  0.00     0.042 A 
ATOM     19  C   UNL d   1      56.721   0.415  32.126  0.00  0.00     0.115 A 
ENDBRANCH  11  14
ENDBRANCH   1  11
BRANCH   5  20
ATOM     20  O   UNL d   1      59.799   0.031  28.629  0.00  0.00    -0.305 OA
BRANCH  20  21
ATOM     21  C   UNL d   1      60.319   0.667  28.598  0.00  0.00     0.123 C 
ATOM     22  C   UNL d   1      61.128   0.542  28.513  0.00  0.00     0.029 C 
ENDBRANCH  20  21
ENDBRANCH   5  20
TORSDOF 4
ENDMDL
MODEL 3
REMARK VINA RESULT:      -1.8      1.463      4.383
REMARK  4 active torsions:
REMARK  status: ('A' for Active; 'I' for Inactive)
REMARK    1  A    between atoms: N_2  and  S_1 
REMARK    2  A    between atoms: C_3  and  S_1 
REMARK    3  A    between atoms: O_15  and  C_13 
REMARK    4  A    between atoms: C_19  and  O_15 
ROOT
ATOM      1  C   UNL d   1      57.941  -0.824  30.470  0.00  0.00     0.105 A 
ATOM      2  C   UNL d   1      58.641  -0.429  30.244  0.00  0.00     0.014 A 
ATOM      3  C   UNL d   1      59.129  -0.755  29.667  0.00  0.00     0.024 A 
ATOM      4  C   UNL d   1      57.752  -1.546  30.103  0.00  0.00     0.015 A 
ATOM      5  C   UNL d   1      58.936  -1.469  29.309  0.00  0.00     0.100 A 
ATOM      6  C   UNL d   1      58.246  -1.865  29.527  0.00  0.00     0.025 A 
ATOM      7  C   UNL d   1      58.836   0.288  30.602  0.00  0.00     0.001 A 
ATOM      8  C   UNL d   1      59.817  -0.361  29.449  0.00  0.00     0.002 A 
ATOM      9  C   UNL d   1      59.524   0.682  30.384  0.00  0.00     0.000 A 
ATOM     10  C   UNL d   1      60.020   0.356  29.802  0.00  0.00     0.000 A 
ENDROOT
BRANCH   1  11
ATOM     11  S   UNL d   1      57.447  -0.504  31.045  0.00  0.00     0.286 S 
ATOM     12  O   UNL d   1      57.199   0.076  30.510  0.00  0.00    -0.198 OA
ATOM     13  O   UNL d   1      57.697  -1.087  31.584  0.00  0.00    -0.198 OA
BRANCH  11  14
ATOM     14  N   UNL d   1      56.946  -0.179  31.630  0.00  0.00    -0.150 N 
ATOM     15  N   UNL d   1      56.620  -0.590  32.274  0.00  0.00    -0.155 NA
ATOM     16  C   UNL d   1      56.162  -0.059  32.709  0.00  0.00     0.104 A 
ATOM     17  C   UNL d   1      55.734  -0.230  33.400  0.00  0.00     0.022 C 
ATOM     18  C   UNL d   1      56.204   0.681  32.334  0.00  0.00     0.042 A 
ATOM     19  C   UNL d   1      56.688   0.602  31.669  0.00  0.00     0.115 A 
ENDBRANCH  11  14
ENDBRANCH   1  11
BRANCH   5  20
ATOM     20  O   UNL d   1      59.429  -1.789  28.734  0.00  0.00    -0.305 OA
BRANCH  20  21
ATOM     21  C   UNL d   1      59.306  -2.555  28.466  0.00  0.00     0.123 C 
ATOM     22  C   UNL d   1      59.924  -3.099  28.455  0.00  0.00     0.029 C 
ENDBRANCH  20  21
ENDBRANCH   5  20
TORSDOF 4
ENDMDL
MODEL 4
REMARK VINA RESULT:      -0.6      1.377      4.037
REMARK  4 active torsions:
REMARK  status: ('A' for Active; 'I' for Inactive)
REMARK    1  A    between atoms: N_2  and  S_1 
REMARK    2  A    between atoms: C_3  and  S_1 
REMARK    3  A    between atoms: O_15  and  C_13 
REMARK    4  A    between atoms: C_19  and  O_15 
ROOT
ATOM      1  C   UNL d   1      57.353  -0.363  31.434  0.00  0.00     0.105 A 
ATOM      2  C   UNL d   1      58.136  -0.098  31.321  0.00  0.00     0.014 A 
ATOM      3  C   UNL d   1      58.566  -0.351  30.666  0.00  0.00     0.024 A 
ATOM      4  C   UNL d   1      57.022  -0.882  30.876  0.00  0.00     0.015 A 
ATOM      5  C   UNL d   1      58.231  -0.865  30.119  0.00  0.00     0.100 A 
ATOM      6  C   UNL d   1      57.457  -1.131  30.223  0.00  0.00     0.025 A 
ATOM      7  C   UNL d   1      58.474   0.418  31.870  0.00  0.00     0.001 A 
ATOM      8  C   UNL d   1      59.337  -0.087  30.560  0.00  0.00     0.002 A 
ATOM      9  C   UNL d   1      59.245   0.682  31.764  0.00  0.00     0.000 A 
ATOM     10  C   UNL d   1      59.682   0.428  31.104  0.00  0.00     0.000 A 
ENDROOT
BRANCH   1  11
ATOM     11  S   UNL d   1      56.917  -0.114  32.086  0.00  0.00     0.286 S 
ATOM     12  O   UNL d   1      57.079  -0.830  32.467  0.00  0.00    -0.198 OA
ATOM     13  O   UNL d   1      56.754   0.606  31.703  0.00  0.00    -0.198 OA
BRANCH  11  14
ATOM     14  N   UNL d   1      56.475   0.139  32.749  0.00  0.00    -0.150 N 
ATOM     15  N   UNL d   1      55.649   0.223  32.778  0.00  0.00    -0.155 NA
ATOM     16  C   UNL d   1      55.447   0.484  33.535  0.00  0.00     0.104 A 
ATOM     17  C   UNL d   1      54.680   0.643  33.812  0.00  0.00     0.022 C 
ATOM     18  C   UNL d   1      56.148   0.561  33.974  0.00  0.00     0.042 A 
ATOM     19  C   UNL d   1      56.779   0.347  33.485  0.00  0.00     0.115 A 
ENDBRANCH  11  14
ENDBRANCH   1  11
BRANCH   5  20
ATOM     20  O   UNL d   1      58.667  -1.114  29.466  0.00  0.00    -0.305 OA
BRANCH  20  21
ATOM     21  C   UNL d   1      58.595  -1.885  29.194  0.00  0.00     0.123 C 
ATOM     22  C   UNL d   1      58.928  -2.108  28.475  0.00  0.00     0.029 C 
ENDBRANCH  20  21
ENDBRANCH   5  20
TORSDOF 4
ENDMDL
