MODEL 1
REMARK VINA RESULT:      -8.5      0.000      0.000
REMARK  3 active torsions:
REMARK  status: ('A' for Active; 'I' for Inactive)
REMARK    1  A    between atoms: C_7  and  C_1 
REMARK       I    between atoms: C_6  and  N_9 
REMARK       I    between atoms: N_8  and  C_6 
REMARK    2  A    between atoms: N_9  and  C_7 
REMARK    3  A    between atoms: C_11  and  N_8 
ROOT
ATOM      1  C   UNL d   1      53.020  31.780  53.064  0.00  0.00     0.369 C 
ATOM      2  N   UNL d   1      53.675  31.597  53.541  0.00  0.00    -0.191 NA
ATOM      3  N   UNL d   1      52.716  32.542  53.051  0.00  0.00    -0.189 NA
ATOM      4  O   UNL d   1      52.672  31.191  52.598  0.00  0.00    -0.242 OA
ENDROOT
BRANCH   3   5
ATOM      5  C   UNL d   1      52.068  32.719  52.577  0.00  0.00     0.107 C 
BRANCH   5   6
ATOM      6  C   UNL d   1      51.605  33.392  52.744  0.00  0.00     0.058 A 
ATOM      7  C   UNL d   1      51.659  34.124  52.362  0.00  0.00     0.104 A 
ATOM      8  N   UNL d   1      51.099  34.633  52.700  0.00  0.00    -0.165 NA
ATOM      9  C   UNL d   1      52.181  34.314  51.752  0.00  0.00     0.023 C 
ATOM     10  N   UNL d   1      50.700  34.212  53.290  0.00  0.00    -0.225 N 
ATOM     11  C   UNL d   1      51.011  33.449  53.318  0.00  0.00     0.104 A 
ATOM     12  C   UNL d   1      50.101  34.504  53.764  0.00  0.00     0.121 C 
ENDBRANCH   5   6
ENDBRANCH   3   5
BRANCH   2  13
ATOM     13  C   UNL d   1      54.012  32.186  53.997  0.00  0.00     0.086 A 
ATOM     14  C   UNL d   1      53.770  32.305  54.777  0.00  0.00     0.020 A 
ATOM     15  C   UNL d   1      54.123  32.906  55.223  0.00  0.00     0.013 A 
ATOM     16  C   UNL d   1      54.706  33.380  54.902  0.00  0.00     0.058 A 
ATOM     17  C   UNL d   1      54.941  33.255  54.129  0.00  0.00     0.013 A 
ATOM     18 CL   UNL d   1      55.057  33.979  55.350  0.00  0.00    -0.082 Cl
ATOM     19  C   UNL d   1      54.606  32.668  53.670  0.00  0.00     0.020 A 
ENDBRANCH   2  13
TORSDOF 3
ENDMDL
MODEL 2
REMARK VINA RESULT:      -7.6      2.000      3.873
REMARK  3 active torsions:
REMARK  status: ('A' for Active; 'I' for Inactive)
REMARK    1  A    between atoms: C_7  and  C_1 
REMARK       I    between atoms: C_6  and  N_9 
REMARK       I    between atoms: N_8  and  C_6 
REMARK    2  A    between atoms: N_9  and  C_7 
REMARK    3  A    between atoms: C_11  and  N_8 
ROOT
ATOM      1  C   UNL d   1      53.098  34.336  54.508  0.00  0.00     0.369 C 
ATOM      2  N   UNL d   1      52.540  34.881  54.223  0.00  0.00    -0.191 NA
ATOM      3  N   UNL d   1      53.198  33.611  54.136  0.00  0.00    -0.189 NA
ATOM      4  O   UNL d   1      53.556  34.523  55.171  0.00  0.00    -0.242 OA
ENDROOT
BRANCH   3   5
ATOM      5  C   UNL d   1      53.751  33.074  54.422  0.00  0.00     0.107 C 
BRANCH   5   6
ATOM      6  C   UNL d   1      53.833  32.329  54.055  0.00  0.00     0.058 A 
ATOM      7  C   UNL d   1      54.439  32.108  53.538  0.00  0.00     0.104 A 
ATOM      8  N   UNL d   1      54.306  31.323  53.306  0.00  0.00    -0.165 NA
ATOM      9  C   UNL d   1      55.067  32.585  53.296  0.00  0.00     0.023 C 
ATOM     10  N   UNL d   1      53.616  31.063  53.682  0.00  0.00    -0.225 N 
ATOM     11  C   UNL d   1      53.324  31.681  54.143  0.00  0.00     0.104 A 
ATOM     12  C   UNL d   1      53.281  30.320  53.608  0.00  0.00     0.121 C 
ENDBRANCH   5   6
ENDBRANCH   3   5
BRANCH   2  13
ATOM     13  C   UNL d   1      52.092  34.686  53.567  0.00  0.00     0.086 A 
ATOM     14  C   UNL d   1      52.386  34.806  52.806  0.00  0.00     0.020 A 
ATOM     15  C   UNL d   1      51.918  34.603  52.155  0.00  0.00     0.013 A 
ATOM     16  C   UNL d   1      51.171  34.286  52.256  0.00  0.00     0.058 A 
ATOM     17  C   UNL d   1      50.887  34.171  53.015  0.00  0.00     0.013 A 
ATOM     18 CL   UNL d   1      50.706  34.085  51.604  0.00  0.00    -0.082 Cl
ATOM     19  C   UNL d   1      51.332  34.364  53.672  0.00  0.00     0.020 A 
ENDBRANCH   2  13
TORSDOF 3
ENDMDL
MODEL 3
REMARK VINA RESULT:      -7.6      1.536      3.497
REMARK  3 active torsions:
REMARK  status: ('A' for Active; 'I' for Inactive)
REMARK    1  A    between atoms: C_7  and  C_1 
REMARK       I    between atoms: C_6  and  N_9 
REMARK       I    between atoms: N_8  and  C_6 
REMARK    2  A    between atoms: N_9  and  C_7 
REMARK    3  A    between atoms: C_11  and  N_8 
ROOT
ATOM      1  C   UNL d   1      52.678  31.802  52.871  0.00  0.00     0.369 C 
ATOM      2  N   UNL d   1      51.936  32.018  52.568  0.00  0.00    -0.191 NA
ATOM      3  N   UNL d   1      53.110  32.331  53.326  0.00  0.00    -0.189 NA
ATOM      4  O   UNL d   1      52.985  31.050  52.713  0.00  0.00    -0.242 OA
ENDROOT
BRANCH   3   5
ATOM      5  C   UNL d   1      53.846  32.113  53.624  0.00  0.00     0.107 C 
BRANCH   5   6
ATOM      6  C   UNL d   1      54.246  32.622  54.149  0.00  0.00     0.058 A 
ATOM      7  C   UNL d   1      54.916  33.073  53.970  0.00  0.00     0.104 A 
ATOM      8  N   UNL d   1      55.132  33.496  54.650  0.00  0.00    -0.165 NA
ATOM      9  C   UNL d   1      55.302  33.097  53.242  0.00  0.00     0.023 C 
ATOM     10  N   UNL d   1      54.592  33.303  55.247  0.00  0.00    -0.225 N 
ATOM     11  C   UNL d   1      54.047  32.766  54.940  0.00  0.00     0.104 A 
ATOM     12  C   UNL d   1      54.599  33.596  56.011  0.00  0.00     0.121 C 
ENDBRANCH   5   6
ENDBRANCH   3   5
BRANCH   2  13
ATOM     13  C   UNL d   1      51.641  32.763  52.730  0.00  0.00     0.086 A 
ATOM     14  C   UNL d   1      51.869  33.414  52.277  0.00  0.00     0.020 A 
ATOM     15  C   UNL d   1      51.560  34.160  52.456  0.00  0.00     0.013 A 
ATOM     16  C   UNL d   1      51.033  34.261  53.073  0.00  0.00     0.058 A 
ATOM     17  C   UNL d   1      50.813  33.610  53.517  0.00  0.00     0.013 A 
ATOM     18 CL   UNL d   1      50.727  35.007  53.249  0.00  0.00    -0.082 Cl
ATOM     19  C   UNL d   1      51.105  32.864  53.359  0.00  0.00     0.020 A 
ENDBRANCH   2  13
TORSDOF 3
ENDMDL
MODEL 4
REMARK VINA RESULT:      -7.6      1.996      3.220
REMARK  3 active torsions:
REMARK  status: ('A' for Active; 'I' for Inactive)
REMARK    1  A    between atoms: C_7  and  C_1 
REMARK       I    between atoms: C_6  and  N_9 
REMARK       I    between atoms: N_8  and  C_6 
REMARK    2  A    between atoms: N_9  and  C_7 
REMARK    3  A    between atoms: C_11  and  N_8 
ROOT
ATOM      1  C   UNL d   1      52.571  32.346  52.596  0.00  0.00     0.369 C 
ATOM      2  N   UNL d   1      52.443  31.544  52.420  0.00  0.00    -0.191 NA
ATOM      3  N   UNL d   1      52.976  32.562  53.276  0.00  0.00    -0.189 NA
ATOM      4  O   UNL d   1      52.290  32.930  52.082  0.00  0.00    -0.242 OA
ENDROOT
BRANCH   3   5
ATOM      5  C   UNL d   1      53.101  33.357  53.446  0.00  0.00     0.107 C 
BRANCH   5   6
ATOM      6  C   UNL d   1      53.578  33.572  54.095  0.00  0.00     0.058 A 
ATOM      7  C   UNL d   1      53.369  34.099  54.696  0.00  0.00     0.104 A 
ATOM      8  N   UNL d   1      54.004  34.151  55.227  0.00  0.00    -0.165 NA
ATOM      9  C   UNL d   1      52.653  34.504  54.757  0.00  0.00     0.023 C 
ATOM     10  N   UNL d   1      54.604  33.653  54.950  0.00  0.00    -0.225 N 
ATOM     11  C   UNL d   1      54.343  33.296  54.254  0.00  0.00     0.104 A 
ATOM     12  C   UNL d   1      55.331  33.535  55.306  0.00  0.00     0.121 C 
ENDBRANCH   5   6
ENDBRANCH   3   5
BRANCH   2  13
ATOM     13  C   UNL d   1      52.725  30.974  52.934  0.00  0.00     0.086 A 
ATOM     14  C   UNL d   1      53.502  30.701  52.875  0.00  0.00     0.020 A 
ATOM     15  C   UNL d   1      53.769  30.124  53.403  0.00  0.00     0.013 A 
ATOM     16  C   UNL d   1      53.276  29.821  53.982  0.00  0.00     0.058 A 
ATOM     17  C   UNL d   1      52.508  30.098  54.033  0.00  0.00     0.013 A 
ATOM     18 CL   UNL d   1      53.546  29.245  54.508  0.00  0.00    -0.082 Cl
ATOM     19  C   UNL d   1      52.223  30.667  53.522  0.00  0.00     0.020 A 
ENDBRANCH   2  13
TORSDOF 3
ENDMDL
MODEL 5
REMARK VINA RESULT:      -7.5      1.507      3.166
REMARK  3 active torsions:
REMARK  status: ('A' for Active; 'I' for Inactive)
REMARK    1  A    between atoms: C_7  and  C_1 
REMARK       I    between atoms: C_6  and  N_9 
REMARK       I    between atoms: N_8  and  C_6 
REMARK    2  A    between atoms: N_9  and  C_7 
REMARK    3  A    between atoms: C_11  and  N_8 
ROOT
ATOM      1  C   UNL d   1      52.587  32.643  52.922  0.00  0.00     0.369 C 
ATOM      2  N   UNL d   1      52.907  33.376  53.145  0.00  0.00    -0.191 NA
ATOM      3  N   UNL d   1      52.846  31.951  53.279  0.00  0.00    -0.189 NA
ATOM      4  O   UNL d   1      52.004  32.610  52.336  0.00  0.00    -0.242 OA
ENDROOT
BRANCH   3   5
ATOM      5  C   UNL d   1      52.526  31.227  53.055  0.00  0.00     0.107 C 
BRANCH   5   6
ATOM      6  C   UNL d   1      52.798  30.526  53.414  0.00  0.00     0.058 A 
ATOM      7  C   UNL d   1      53.082  29.858  53.017  0.00  0.00     0.104 A 
ATOM      8  N   UNL d   1      53.292  29.291  53.584  0.00  0.00    -0.165 NA
ATOM      9  C   UNL d   1      53.146  29.772  52.199  0.00  0.00     0.023 C 
ATOM     10  N   UNL d   1      53.135  29.613  54.331  0.00  0.00    -0.225 N 
ATOM     11  C   UNL d   1      52.831  30.372  54.226  0.00  0.00     0.104 A 
ATOM     12  C   UNL d   1      53.261  29.240  55.048  0.00  0.00     0.121 C 
ENDBRANCH   5   6
ENDBRANCH   3   5
BRANCH   2  13
ATOM     13  C   UNL d   1      53.483  33.399  53.726  0.00  0.00     0.086 A 
ATOM     14  C   UNL d   1      54.272  33.244  53.542  0.00  0.00     0.020 A 
ATOM     15  C   UNL d   1      54.841  33.272  54.143  0.00  0.00     0.013 A 
ATOM     16  C   UNL d   1      54.631  33.450  54.913  0.00  0.00     0.058 A 
ATOM     17  C   UNL d   1      53.846  33.602  55.086  0.00  0.00     0.013 A 
ATOM     18 CL   UNL d   1      55.200  33.477  55.510  0.00  0.00    -0.082 Cl
ATOM     19  C   UNL d   1      53.268  33.580  54.509  0.00  0.00     0.020 A 
ENDBRANCH   2  13
TORSDOF 3
ENDMDL
MODEL 6
REMARK VINA RESULT:      -7.4      1.757      2.142
REMARK  3 active torsions:
REMARK  status: ('A' for Active; 'I' for Inactive)
REMARK    1  A    between atoms: C_7  and  C_1 
REMARK       I    between atoms: C_6  and  N_9 
REMARK       I    between atoms: N_8  and  C_6 
REMARK    2  A    between atoms: N_9  and  C_7 
REMARK    3  A    between atoms: C_11  and  N_8 
ROOT
ATOM      1  C   UNL d   1      53.731  33.815  54.608  0.00  0.00     0.369 C 
ATOM      2  N   UNL d   1      54.165  33.139  54.820  0.00  0.00    -0.191 NA
ATOM      3  N   UNL d   1      53.160  33.775  54.021  0.00  0.00    -0.189 NA
ATOM      4  O   UNL d   1      53.876  34.534  54.992  0.00  0.00    -0.242 OA
ENDROOT
BRANCH   3   5
ATOM      5  C   UNL d   1      52.733  34.447  53.815  0.00  0.00     0.107 C 
BRANCH   5   6
ATOM      6  C   UNL d   1      52.059  34.376  53.329  0.00  0.00     0.058 A 
ATOM      7  C   UNL d   1      52.036  34.498  52.511  0.00  0.00     0.104 A 
ATOM      8  N   UNL d   1      51.259  34.370  52.253  0.00  0.00    -0.165 NA
ATOM      9  C   UNL d   1      52.676  34.710  52.036  0.00  0.00     0.023 C 
ATOM     10  N   UNL d   1      50.804  34.169  52.915  0.00  0.00    -0.225 N 
ATOM     11  C   UNL d   1      51.295  34.173  53.577  0.00  0.00     0.104 A 
ATOM     12  C   UNL d   1      50.004  33.997  52.912  0.00  0.00     0.121 C 
ENDBRANCH   5   6
ENDBRANCH   3   5
BRANCH   2  13
ATOM     13  C   UNL d   1      54.015  32.433  54.435  0.00  0.00     0.086 A 
ATOM     14  C   UNL d   1      54.372  32.264  53.710  0.00  0.00     0.020 A 
ATOM     15  C   UNL d   1      54.208  31.545  53.336  0.00  0.00     0.013 A 
ATOM     16  C   UNL d   1      53.698  31.002  53.673  0.00  0.00     0.058 A 
ATOM     17  C   UNL d   1      53.348  31.178  54.391  0.00  0.00     0.013 A 
ATOM     18 CL   UNL d   1      53.536  30.285  53.297  0.00  0.00    -0.082 Cl
ATOM     19  C   UNL d   1      53.496  31.882  54.779  0.00  0.00     0.020 A 
ENDBRANCH   2  13
TORSDOF 3
ENDMDL
