MODEL 1
REMARK VINA RESULT:       1.0      0.000      0.000
REMARK  5 active torsions:
REMARK  status: ('A' for Active; 'I' for Inactive)
REMARK    1  A    between atoms: S_2  and  C_12 
REMARK    2  A    between atoms: N_7  and  S_2 
REMARK    3  A    between atoms: C_5  and  N_7 
REMARK    4  A    between atoms: O_26  and  C_22 
REMARK    5  A    between atoms: C_27  and  O_26 
ROOT
ATOM      1  S   UNL d   1     -41.447-122.177 -51.020  0.00  0.00     0.287 S 
ATOM      2  O   UNL d   1     -41.123-122.912 -51.233  0.00  0.00    -0.198 OA
ATOM      3  O   UNL d   1     -41.776-121.437 -50.802  0.00  0.00    -0.198 OA
ENDROOT
BRANCH   1   4
ATOM      4  C   UNL d   1     -41.773-122.521 -50.331  0.00  0.00     0.107 A 
ATOM      5  C   UNL d   1     -42.588-122.664 -50.283  0.00  0.00     0.032 A 
ATOM      6  C   UNL d   1     -42.908-123.002 -49.606  0.00  0.00     0.085 A 
ATOM      7  N   UNL d   1     -43.680-123.207 -49.399  0.00  0.00    -0.256 N 
ATOM      8  C   UNL d   1     -42.416-123.202 -48.968  0.00  0.00     0.085 A 
ATOM      9  C   UNL d   1     -43.659-123.531 -48.637  0.00  0.00     0.339 A 
ATOM     10  C   UNL d   1     -44.351-123.110 -49.860  0.00  0.00     0.104 C 
ATOM     11  N   UNL d   1     -42.892-123.528 -48.375  0.00  0.00    -0.256 N 
ATOM     12  O   UNL d   1     -44.308-123.813 -48.207  0.00  0.00    -0.245 OA
ATOM     13  C   UNL d   1     -42.627-123.801 -47.647  0.00  0.00     0.104 C 
ATOM     14  C   UNL d   1     -41.603-123.057 -49.024  0.00  0.00     0.020 A 
ATOM     15  C   UNL d   1     -41.283-122.718 -49.702  0.00  0.00     0.015 A 
ENDBRANCH   1   4
BRANCH   1  16
ATOM     16  N   UNL d   1     -41.126-121.827 -51.704  0.00  0.00    -0.132 NA
BRANCH  16  17
ATOM     17  C   UNL d   1     -41.391-122.053 -52.451  0.00  0.00     0.206 A 
ATOM     18  N   UNL d   1     -41.184-122.786 -52.762  0.00  0.00    -0.220 NA
ATOM     19  C   UNL d   1     -41.531-122.851 -53.512  0.00  0.00     0.090 A 
ATOM     20  C   UNL d   1     -41.523-123.446 -54.082  0.00  0.00     0.022 A 
ATOM     21  C   UNL d   1     -41.949-122.151 -53.653  0.00  0.00     0.052 A 
ATOM     22  C   UNL d   1     -41.927-123.348 -54.784  0.00  0.00     0.026 A 
ATOM     23  C   UNL d   1     -42.345-122.654 -54.931  0.00  0.00     0.101 A 
ATOM     24  C   UNL d   1     -42.355-122.054 -54.363  0.00  0.00     0.033 A 
ATOM     25  S   UNL d   1     -41.872-121.658 -53.015  0.00  0.00    -0.046 SA
BRANCH  23  26
ATOM     26  O   UNL d   1     -42.755-122.550 -55.642  0.00  0.00    -0.305 OA
BRANCH  26  27
ATOM     27  C   UNL d   1     -42.548-121.917 -56.139  0.00  0.00     0.123 C 
ATOM     28  C   UNL d   1     -42.986-121.768 -56.822  0.00  0.00     0.029 C 
ENDBRANCH  26  27
ENDBRANCH  23  26
ENDBRANCH  16  17
ENDBRANCH   1  16
TORSDOF 5
ENDMDL
