MODEL 1
REMARK VINA RESULT:      -3.4      0.000      0.000
REMARK  2 active torsions:
REMARK  status: ('A' for Active; 'I' for Inactive)
REMARK    1  A    between atoms: O_3  and  C_1 
REMARK    2  A    between atoms: C_2  and  O_3 
REMARK       I    between atoms: N_7  and  C_2 
ROOT
ATOM      1  C   UNL d   1     -41.227-122.453 -52.429  0.00  0.00     0.129 A 
ATOM      2  C   UNL d   1     -41.192-121.940 -51.784  0.00  0.00     0.105 A 
ATOM      3  C   UNL d   1     -41.165-122.225 -51.019  0.00  0.00     0.026 A 
ATOM      4  C   UNL d   1     -41.233-123.274 -52.280  0.00  0.00     0.059 A 
ATOM      5  C   UNL d   1     -41.172-123.031 -50.881  0.00  0.00     0.037 A 
ATOM      6  C   UNL d   1     -41.206-123.555 -51.525  0.00  0.00     0.015 A 
ATOM      7  N   UNL d   1     -41.185-121.121 -51.927  0.00  0.00    -0.242 NA
ATOM      8 BR   UNL d   1     -41.267-123.817 -52.894  0.00  0.00    -0.047 Br
ATOM      9 BR   UNL d   1     -41.144-123.325 -50.094  0.00  0.00    -0.049 Br
ATOM     10  C   UNL d   1     -41.131-121.705 -50.388  0.00  0.00     0.004 A 
ATOM     11  C   UNL d   1     -41.151-120.595 -51.292  0.00  0.00     0.099 A 
ATOM     12  C   UNL d   1     -41.124-120.884 -50.520  0.00  0.00     0.021 A 
ENDROOT
BRANCH   1  13
ATOM     13  O   UNL d   1     -41.254-122.164 -53.204  0.00  0.00    -0.257 OA
BRANCH  13  14
ATOM     14  C   UNL d   1     -41.948-122.160 -53.587  0.00  0.00     0.378 C 
ATOM     15  N   UNL d   1     -41.951-122.061 -54.443  0.00  0.00    -0.252 N 
ATOM     16  C   UNL d   1     -41.260-121.975 -54.849  0.00  0.00     0.085 A 
ATOM     17  C   UNL d   1     -42.681-122.056 -54.853  0.00  0.00     0.085 A 
ATOM     18  C   UNL d   1     -41.262-121.880 -55.676  0.00  0.00     0.019 A 
ATOM     19  C   UNL d   1     -41.956-121.871 -56.095  0.00  0.00     0.003 A 
ATOM     20  C   UNL d   1     -42.684-121.963 -55.662  0.00  0.00     0.019 A 
ATOM     21  O   UNL d   1     -42.643-122.246 -53.186  0.00  0.00    -0.237 OA
ENDBRANCH  13  14
ENDBRANCH   1  13
TORSDOF 2
ENDMDL
MODEL 2
REMARK VINA RESULT:      -1.0      1.983      4.184
REMARK  2 active torsions:
REMARK  status: ('A' for Active; 'I' for Inactive)
REMARK    1  A    between atoms: O_3  and  C_1 
REMARK    2  A    between atoms: C_2  and  O_3 
REMARK       I    between atoms: N_7  and  C_2 
ROOT
ATOM      1  C   UNL d   1     -41.144-122.417 -51.169  0.00  0.00     0.129 A 
ATOM      2  C   UNL d   1     -41.143-121.635 -51.432  0.00  0.00     0.105 A 
ATOM      3  C   UNL d   1     -41.144-121.458 -52.230  0.00  0.00     0.026 A 
ATOM      4  C   UNL d   1     -41.146-123.025 -51.740  0.00  0.00     0.059 A 
ATOM      5  C   UNL d   1     -41.146-122.060 -52.783  0.00  0.00     0.037 A 
ATOM      6  C   UNL d   1     -41.147-122.851 -52.527  0.00  0.00     0.015 A 
ATOM      7  N   UNL d   1     -41.141-121.026 -50.867  0.00  0.00    -0.242 NA
ATOM      8 BR   UNL d   1     -41.147-123.816 -51.520  0.00  0.00    -0.047 Br
ATOM      9 BR   UNL d   1     -41.147-121.878 -53.604  0.00  0.00    -0.049 Br
ATOM     10  C   UNL d   1     -41.143-120.678 -52.477  0.00  0.00     0.004 A 
ATOM     11  C   UNL d   1     -41.140-120.239 -51.115  0.00  0.00     0.099 A 
ATOM     12  C   UNL d   1     -41.141-120.060 -51.920  0.00  0.00     0.021 A 
ENDROOT
BRANCH   1  13
ATOM     13  O   UNL d   1     -41.143-122.596 -50.362  0.00  0.00    -0.257 OA
BRANCH  13  14
ATOM     14  C   UNL d   1     -41.812-122.856 -50.025  0.00  0.00     0.378 C 
ATOM     15  N   UNL d   1     -41.809-123.048 -49.186  0.00  0.00    -0.252 N 
ATOM     16  C   UNL d   1     -41.137-122.966 -48.748  0.00  0.00     0.085 A 
ATOM     17  C   UNL d   1     -42.514-123.324 -48.825  0.00  0.00     0.085 A 
ATOM     18  C   UNL d   1     -41.135-123.152 -47.936  0.00  0.00     0.019 A 
ATOM     19  C   UNL d   1     -41.804-123.420 -47.565  0.00  0.00     0.003 A 
ATOM     20  C   UNL d   1     -42.511-123.505 -48.032  0.00  0.00     0.019 A 
ATOM     21  O   UNL d   1     -42.487-122.940 -50.459  0.00  0.00    -0.237 OA
ENDBRANCH  13  14
ENDBRANCH   1  13
TORSDOF 2
ENDMDL
MODEL 3
REMARK VINA RESULT:      -0.7      1.081      1.663
REMARK  2 active torsions:
REMARK  status: ('A' for Active; 'I' for Inactive)
REMARK    1  A    between atoms: O_3  and  C_1 
REMARK    2  A    between atoms: C_2  and  O_3 
REMARK       I    between atoms: N_7  and  C_2 
ROOT
ATOM      1  C   UNL d   1     -41.153-121.745 -52.145  0.00  0.00     0.129 A 
ATOM      2  C   UNL d   1     -41.164-122.395 -51.636  0.00  0.00     0.105 A 
ATOM      3  C   UNL d   1     -41.155-122.296 -50.826  0.00  0.00     0.026 A 
ATOM      4  C   UNL d   1     -41.134-120.982 -51.809  0.00  0.00     0.059 A 
ATOM      5  C   UNL d   1     -41.136-121.545 -50.504  0.00  0.00     0.037 A 
ATOM      6  C   UNL d   1     -41.125-120.885 -51.009  0.00  0.00     0.015 A 
ATOM      7  N   UNL d   1     -41.183-123.158 -51.966  0.00  0.00    -0.242 NA
ATOM      8 BR   UNL d   1     -41.123-120.310 -52.280  0.00  0.00    -0.047 Br
ATOM      9 BR   UNL d   1     -41.127-121.443 -49.670  0.00  0.00    -0.049 Br
ATOM     10  C   UNL d   1     -41.165-122.949 -50.333  0.00  0.00     0.004 A 
ATOM     11  C   UNL d   1     -41.193-123.817 -51.471  0.00  0.00     0.099 A 
ATOM     12  C   UNL d   1     -41.185-123.718 -50.652  0.00  0.00     0.021 A 
ENDROOT
BRANCH   1  13
ATOM     13  O   UNL d   1     -41.162-121.846 -52.966  0.00  0.00    -0.257 OA
BRANCH  13  14
ATOM     14  C   UNL d   1     -41.854-121.798 -53.351  0.00  0.00     0.378 C 
ATOM     15  N   UNL d   1     -41.865-121.916 -54.204  0.00  0.00    -0.252 N 
ATOM     16  C   UNL d   1     -41.183-122.072 -54.606  0.00  0.00     0.085 A 
ATOM     17  C   UNL d   1     -42.592-121.867 -54.616  0.00  0.00     0.085 A 
ATOM     18  C   UNL d   1     -41.194-122.186 -55.431  0.00  0.00     0.019 A 
ATOM     19  C   UNL d   1     -41.886-122.144 -55.851  0.00  0.00     0.003 A 
ATOM     20  C   UNL d   1     -42.603-121.978 -55.423  0.00  0.00     0.019 A 
ATOM     21  O   UNL d   1     -42.538-121.642 -52.954  0.00  0.00    -0.237 OA
ENDBRANCH  13  14
ENDBRANCH   1  13
TORSDOF 2
ENDMDL
