MODEL 1
REMARK VINA RESULT:      55.8      0.000      0.000
REMARK  4 active torsions:
REMARK  status: ('A' for Active; 'I' for Inactive)
REMARK    1  A    between atoms: N_6  and  C_1 
REMARK    2  A    between atoms: C_10  and  C_2 
REMARK       I    between atoms: C_9  and  N_6 
REMARK    3  A    between atoms: C_11  and  C_9 
REMARK    4  A    between atoms: O_20  and  C_10 
ROOT
ATOM      1  C   UNL d   1      14.205  14.328  -2.798  0.00  0.00     0.119 A 
ATOM      2  C   UNL d   1      14.408  15.126  -2.817  0.00  0.00     0.087 A 
ATOM      3  C   UNL d   1      14.693  15.328  -2.075  0.00  0.00     0.008 A 
ATOM      4  C   UNL d   1      14.669  14.669  -1.598  0.00  0.00     0.028 A 
ATOM      5  S   UNL d   1      14.366  14.040  -2.041  0.00  0.00    -0.070 SA
ATOM      6  C   UNL d   1      14.926  14.708  -0.810  0.00  0.00     0.104 A 
ATOM      7  N   UNL d   1      15.207  15.421  -0.509  0.00  0.00    -0.294 NA
ATOM      8  C   UNL d   1      15.231  16.090  -0.994  0.00  0.00     0.099 A 
ATOM      9  C   UNL d   1      14.974  16.048  -1.779  0.00  0.00    -0.004 A 
ATOM     10  C   UNL d   1      15.131  14.553  -0.025  0.00  0.00     0.029 C 
ATOM     11  C   UNL d   1      14.689  13.926  -0.913  0.00  0.00     0.029 C 
ATOM     12  C   UNL d   1      15.255  16.760  -1.478  0.00  0.00     0.029 C 
ATOM     13  C   UNL d   1      15.488  16.140  -0.214  0.00  0.00     0.029 C 
ENDROOT
BRANCH   1  14
ATOM     14  N   UNL d   1      13.894  13.886  -3.424  0.00  0.00    -0.200 NA
ATOM     15  C   UNL d   1      13.817  13.068  -3.354  0.00  0.00     0.302 C 
ATOM     16  O   UNL d   1      14.052  12.690  -2.659  0.00  0.00    -0.263 OA
BRANCH  15  17
ATOM     17  C   UNL d   1      13.507  12.628  -3.977  0.00  0.00     0.158 A 
ATOM     18  O   UNL d   1      12.891  12.089  -3.935  0.00  0.00    -0.300 OA
ATOM     19  C   UNL d   1      12.770  11.779  -4.705  0.00  0.00     0.123 A 
ATOM     20  C   UNL d   1      13.309  12.131  -5.204  0.00  0.00     0.029 A 
ATOM     21  C   UNL d   1      13.779  12.663  -4.771  0.00  0.00     0.032 A 
ENDBRANCH  15  17
ENDBRANCH   1  14
BRANCH   2  22
ATOM     22  C   UNL d   1      14.333  15.617  -3.468  0.00  0.00     0.298 C 
ATOM     23  O   UNL d   1      13.586  15.722  -3.807  0.00  0.00    -0.259 OA
BRANCH  22  24
ATOM     24  O   UNL d   1      14.999  16.004  -3.785  0.00  0.00    -0.296 OA
ATOM     25  C   UNL d   1      14.920  16.475  -4.455  0.00  0.00     0.185 C 
ENDBRANCH  22  24
ENDBRANCH   2  22
TORSDOF 4
ENDMDL
MODEL 2
REMARK VINA RESULT:      56.1      1.716      3.640
REMARK  4 active torsions:
REMARK  status: ('A' for Active; 'I' for Inactive)
REMARK    1  A    between atoms: N_6  and  C_1 
REMARK    2  A    between atoms: C_10  and  C_2 
REMARK       I    between atoms: C_9  and  N_6 
REMARK    3  A    between atoms: C_11  and  C_9 
REMARK    4  A    between atoms: O_20  and  C_10 
ROOT
ATOM      1  C   UNL d   1      13.878  13.654  -2.848  0.00  0.00     0.119 A 
ATOM      2  C   UNL d   1      13.559  13.500  -3.592  0.00  0.00     0.087 A 
ATOM      3  C   UNL d   1      13.652  14.177  -4.046  0.00  0.00     0.008 A 
ATOM      4  C   UNL d   1      14.022  14.745  -3.596  0.00  0.00     0.028 A 
ATOM      5  S   UNL d   1      14.166  14.428  -2.846  0.00  0.00    -0.070 SA
ATOM      6  C   UNL d   1      14.189  15.493  -3.913  0.00  0.00     0.104 A 
ATOM      7  N   UNL d   1      13.979  15.661  -4.691  0.00  0.00    -0.294 NA
ATOM      8  C   UNL d   1      13.603  15.084  -5.149  0.00  0.00     0.099 A 
ATOM      9  C   UNL d   1      13.438  14.339  -4.829  0.00  0.00    -0.004 A 
ATOM     10  C   UNL d   1      14.432  16.272  -4.047  0.00  0.00     0.029 C 
ATOM     11  C   UNL d   1      14.473  15.527  -3.140  0.00  0.00     0.029 C 
ATOM     12  C   UNL d   1      13.228  14.506  -5.607  0.00  0.00     0.029 C 
ATOM     13  C   UNL d   1      13.765  15.822  -5.474  0.00  0.00     0.029 C 
ENDROOT
BRANCH   1  14
ATOM     14  N   UNL d   1      13.906  13.129  -2.209  0.00  0.00    -0.200 NA
ATOM     15  C   UNL d   1      14.523  13.175  -1.664  0.00  0.00     0.302 C 
ATOM     16  O   UNL d   1      15.113  13.745  -1.757  0.00  0.00    -0.263 OA
BRANCH  15  17
ATOM     17  C   UNL d   1      14.552  12.653  -1.029  0.00  0.00     0.158 A 
ATOM     18  O   UNL d   1      13.919  12.242  -0.706  0.00  0.00    -0.300 OA
ATOM     19  C   UNL d   1      14.214  11.780  -0.071  0.00  0.00     0.123 A 
ATOM     20  C   UNL d   1      15.015  11.913  -0.014  0.00  0.00     0.029 A 
ATOM     21  C   UNL d   1      15.247  12.454  -0.602  0.00  0.00     0.032 A 
ENDBRANCH  15  17
ENDBRANCH   1  14
BRANCH   2  22
ATOM     22  C   UNL d   1      13.215  12.794  -3.822  0.00  0.00     0.298 C 
ATOM     23  O   UNL d   1      12.886  12.302  -3.245  0.00  0.00    -0.259 OA
BRANCH  22  24
ATOM     24  O   UNL d   1      13.197  12.573  -4.625  0.00  0.00    -0.296 OA
ATOM     25  C   UNL d   1      13.147  11.779  -4.832  0.00  0.00     0.185 C 
ENDBRANCH  22  24
ENDBRANCH   2  22
TORSDOF 4
ENDMDL
MODEL 3
REMARK VINA RESULT:      58.0      1.588      3.774
REMARK  4 active torsions:
REMARK  status: ('A' for Active; 'I' for Inactive)
REMARK    1  A    between atoms: N_6  and  C_1 
REMARK    2  A    between atoms: C_10  and  C_2 
REMARK       I    between atoms: C_9  and  N_6 
REMARK    3  A    between atoms: C_11  and  C_9 
REMARK    4  A    between atoms: O_20  and  C_10 
ROOT
ATOM      1  C   UNL d   1      13.774  13.358  -3.029  0.00  0.00     0.119 A 
ATOM      2  C   UNL d   1      13.737  14.119  -3.344  0.00  0.00     0.087 A 
ATOM      3  C   UNL d   1      13.466  14.055  -4.115  0.00  0.00     0.008 A 
ATOM      4  C   UNL d   1      13.335  13.269  -4.282  0.00  0.00     0.028 A 
ATOM      5  S   UNL d   1      13.525  12.827  -3.610  0.00  0.00    -0.070 SA
ATOM      6  C   UNL d   1      13.057  13.036  -5.027  0.00  0.00     0.104 A 
ATOM      7  N   UNL d   1      12.912  13.606  -5.603  0.00  0.00    -0.294 NA
ATOM      8  C   UNL d   1      13.045  14.404  -5.434  0.00  0.00     0.099 A 
ATOM      9  C   UNL d   1      13.323  14.633  -4.689  0.00  0.00    -0.004 A 
ATOM     10  C   UNL d   1      12.790  12.620  -5.690  0.00  0.00     0.029 C 
ATOM     11  C   UNL d   1      13.136  12.333  -4.606  0.00  0.00     0.029 C 
ATOM     12  C   UNL d   1      13.178  15.203  -5.265  0.00  0.00     0.029 C 
ATOM     13  C   UNL d   1      12.769  14.184  -6.177  0.00  0.00     0.029 C 
ENDROOT
BRANCH   1  14
ATOM     14  N   UNL d   1      14.018  13.155  -2.265  0.00  0.00    -0.200 NA
ATOM     15  C   UNL d   1      14.220  12.375  -2.089  0.00  0.00     0.302 C 
ATOM     16  O   UNL d   1      14.178  11.797  -2.676  0.00  0.00    -0.263 OA
BRANCH  15  17
ATOM     17  C   UNL d   1      14.462  12.174  -1.329  0.00  0.00     0.158 A 
ATOM     18  O   UNL d   1      13.979  11.952  -0.705  0.00  0.00    -0.300 OA
ATOM     19  C   UNL d   1      14.471  11.800  -0.042  0.00  0.00     0.123 A 
ATOM     20  C   UNL d   1      15.242  11.929  -0.269  0.00  0.00     0.029 A 
ATOM     21  C   UNL d   1      15.260  12.163  -1.067  0.00  0.00     0.032 A 
ENDBRANCH  15  17
ENDBRANCH   1  14
BRANCH   2  22
ATOM     22  C   UNL d   1      13.939  14.805  -2.945  0.00  0.00     0.298 C 
ATOM     23  O   UNL d   1      13.339  15.331  -2.725  0.00  0.00    -0.259 OA
BRANCH  22  24
ATOM     24  O   UNL d   1      14.734  14.972  -2.765  0.00  0.00    -0.296 OA
ATOM     25  C   UNL d   1      14.925  15.648  -2.336  0.00  0.00     0.185 C 
ENDBRANCH  22  24
ENDBRANCH   2  22
TORSDOF 4
ENDMDL
