MODEL 1
REMARK VINA RESULT:      97.0      0.000      0.000
REMARK  9 active torsions:
REMARK  status: ('A' for Active; 'I' for Inactive)
REMARK    1  A    between atoms: C_7  and  C_1 
REMARK    2  A    between atoms: C_9  and  N_2 
REMARK    3  A    between atoms: C_14  and  C_7 
REMARK    4  A    between atoms: C_8  and  C_9 
REMARK       I    between atoms: N_11  and  C_8 
REMARK    5  A    between atoms: C_10  and  N_11 
REMARK    6  A    between atoms: O_30  and  C_19 
REMARK    7  A    between atoms: O_31  and  C_20 
REMARK    8  A    between atoms: C_32  and  C_25 
REMARK    9  A    between atoms: C_33  and  C_29 
ROOT
ATOM      1  C   UNL d   1      59.178  49.646  52.732  0.00  0.00     0.095 A 
ATOM      2  N   UNL d   1      59.559  49.636  51.358  0.00  0.00    -0.300 N 
ATOM      3  C   UNL d   1      58.365  49.598  52.490  0.00  0.00     0.202 A 
ATOM      4  C   UNL d   1      59.775  49.665  52.166  0.00  0.00     0.087 A 
ATOM      5  C   UNL d   1      58.177  49.571  51.674  0.00  0.00     0.055 A 
ATOM      6  C   UNL d   1      58.765  49.589  51.098  0.00  0.00     0.067 A 
ATOM      7  C   UNL d   1      58.558  49.561  50.299  0.00  0.00     0.018 A 
ATOM      8  C   UNL d   1      57.373  49.523  51.423  0.00  0.00     0.005 A 
ATOM      9  O   UNL d   1      57.777  49.579  53.048  0.00  0.00    -0.286 OA
ATOM     10  C   UNL d   1      57.181  49.496  50.621  0.00  0.00     0.000 A 
ATOM     11  C   UNL d   1      57.768  49.515  50.064  0.00  0.00     0.002 A 
ENDROOT
BRANCH   2  12
ATOM     12  C   UNL d   1      60.156  49.655  50.791  0.00  0.00     0.144 C 
BRANCH  12  13
ATOM     13  C   UNL d   1      60.569  48.970  50.606  0.00  0.00     0.297 C 
ATOM     14  N   UNL d   1      60.212  48.235  50.707  0.00  0.00    -0.207 NA
ATOM     15  O   UNL d   1      61.336  49.018  50.319  0.00  0.00    -0.264 OA
BRANCH  14  16
ATOM     16  C   UNL d   1      60.631  47.545  50.519  0.00  0.00     0.089 A 
ATOM     17  C   UNL d   1      60.434  46.842  50.879  0.00  0.00     0.043 A 
ATOM     18  C   UNL d   1      60.843  46.159  50.698  0.00  0.00     0.098 A 
ATOM     19  C   UNL d   1      61.465  46.180  50.141  0.00  0.00     0.049 A 
ATOM     20  C   UNL d   1      61.660  46.892  49.780  0.00  0.00     0.098 A 
ATOM     21  C   UNL d   1      61.242  47.582  49.968  0.00  0.00     0.043 A 
BRANCH  18  22
ATOM     22  O   UNL d   1      60.647  45.451  51.058  0.00  0.00    -0.328 OA
ATOM     23  C   UNL d   1      61.194  45.077  51.546  0.00  0.00     0.181 C 
ENDBRANCH  18  22
BRANCH  20  24
ATOM     24  O   UNL d   1      62.262  46.921  49.239  0.00  0.00    -0.328 OA
ATOM     25  C   UNL d   1      62.962  46.514  49.379  0.00  0.00     0.181 C 
ENDBRANCH  20  24
ENDBRANCH  14  16
ENDBRANCH  12  13
ENDBRANCH   2  12
BRANCH   1  26
ATOM     26  C   UNL d   1      59.373  49.674  53.537  0.00  0.00     0.200 C 
ATOM     27  O   UNL d   1      60.162  49.707  53.766  0.00  0.00    -0.286 OA
BRANCH  26  28
ATOM     28  C   UNL d   1      58.778  49.667  54.109  0.00  0.00     0.039 A 
ATOM     29  C   UNL d   1      57.978  49.706  53.884  0.00  0.00     0.003 A 
ATOM     30  C   UNL d   1      57.374  49.700  54.458  0.00  0.00     0.000 A 
ATOM     31  C   UNL d   1      57.571  49.655  55.256  0.00  0.00     0.000 A 
ATOM     32  C   UNL d   1      58.381  49.617  55.465  0.00  0.00     0.000 A 
ATOM     33  C   UNL d   1      58.985  49.623  54.891  0.00  0.00     0.003 A 
BRANCH  31  34
ATOM     34  C   UNL d   1      56.965  49.650  55.817  0.00  0.00     0.000 C 
ATOM     35  C   UNL d   1      56.238  49.335  55.597  0.00  0.00     0.000 C 
ENDBRANCH  31  34
ENDBRANCH  26  28
ENDBRANCH   1  26
BRANCH  10  36
ATOM     36  C   UNL d   1      56.391  49.449  50.392  0.00  0.00     0.000 C 
ATOM     37  C   UNL d   1      56.163  49.699  49.633  0.00  0.00     0.000 C 
ENDBRANCH  10  36
TORSDOF 9
ENDMDL
