MODEL 1
REMARK VINA RESULT:      -3.7      0.000      0.000
REMARK  3 active torsions:
REMARK  status: ('A' for Active; 'I' for Inactive)
REMARK    1  A    between atoms: C_8  and  C_2 
REMARK    2  A    between atoms: N_9  and  C_8 
REMARK    3  A    between atoms: C_20  and  C_13 
ROOT
ATOM      1  C   UNL d   1      31.142  16.819 -23.974  0.00  0.00     0.108 A 
ATOM      2  C   UNL d   1      31.966  16.874 -23.944  0.00  0.00     0.079 A 
ATOM      3  O   UNL d   1      30.694  17.427 -24.272  0.00  0.00    -0.273 OA
ATOM      4  C   UNL d   1      29.866  17.374 -24.303  0.00  0.00     0.300 A 
ATOM      5  C   UNL d   1      29.956  16.060 -23.717  0.00  0.00     0.007 A 
ATOM      6  C   UNL d   1      30.773  16.136 -23.697  0.00  0.00     0.023 A 
ATOM      7  C   UNL d   1      29.494  16.683 -24.023  0.00  0.00     0.064 A 
ATOM      8  C   UNL d   1      31.220  15.510 -23.391  0.00  0.00     0.005 A 
ATOM      9  C   UNL d   1      32.420  16.263 -23.644  0.00  0.00     0.199 A 
ATOM     10  O   UNL d   1      29.404  17.988 -24.605  0.00  0.00    -0.259 OA
ATOM     11  C   UNL d   1      32.051  15.579 -23.366  0.00  0.00     0.042 A 
ATOM     12  C   UNL d   1      29.451  15.457 -23.485  0.00  0.00     0.000 A 
ATOM     13  C   UNL d   1      28.699  16.453 -23.974  0.00  0.00     0.005 A 
ATOM     14  O   UNL d   1      33.241  16.320 -23.614  0.00  0.00    -0.286 OA
ATOM     15  C   UNL d   1      28.665  15.700 -23.644  0.00  0.00     0.000 A 
ENDROOT
BRANCH   2  16
ATOM     16  C   UNL d   1      32.330  17.568 -24.226  0.00  0.00     0.085 C 
BRANCH  16  17
ATOM     17  N   UNL d   1      32.625  18.131 -23.703  0.00  0.00    -0.304 N 
ATOM     18  C   UNL d   1      32.946  18.808 -23.994  0.00  0.00     0.064 A 
ATOM     19  C   UNL d   1      33.241  19.371 -23.471  0.00  0.00     0.018 A 
ATOM     20  C   UNL d   1      33.205  19.236 -22.655  0.00  0.00     0.003 A 
ATOM     21  C   UNL d   1      32.882  18.555 -22.375  0.00  0.00     0.019 A 
ATOM     22  C   UNL d   1      32.587  17.992 -22.899  0.00  0.00     0.080 A 
BRANCH  18  23
ATOM     23  C   UNL d   1      32.983  18.946 -24.802  0.00  0.00     0.018 C 
ATOM     24  C   UNL d   1      33.161  19.691 -25.096  0.00  0.00     0.002 C 
ENDBRANCH  18  23
ENDBRANCH  16  17
ENDBRANCH   2  16
TORSDOF 3
ENDMDL
MODEL 2
REMARK VINA RESULT:      -2.7      1.657      4.428
REMARK  3 active torsions:
REMARK  status: ('A' for Active; 'I' for Inactive)
REMARK    1  A    between atoms: C_8  and  C_2 
REMARK    2  A    between atoms: N_9  and  C_8 
REMARK    3  A    between atoms: C_20  and  C_13 
ROOT
ATOM      1  C   UNL d   1      33.179  19.396 -23.058  0.00  0.00     0.108 A 
ATOM      2  C   UNL d   1      33.180  18.866 -23.691  0.00  0.00     0.079 A 
ATOM      3  O   UNL d   1      33.149  19.130 -22.291  0.00  0.00    -0.273 OA
ATOM      4  C   UNL d   1      33.148  19.661 -21.654  0.00  0.00     0.300 A 
ATOM      5  C   UNL d   1      33.209  20.751 -22.595  0.00  0.00     0.007 A 
ATOM      6  C   UNL d   1      33.209  20.207 -23.210  0.00  0.00     0.023 A 
ATOM      7  C   UNL d   1      33.178  20.479 -21.807  0.00  0.00     0.064 A 
ATOM      8  C   UNL d   1      33.240  20.489 -23.987  0.00  0.00     0.005 A 
ATOM      9  C   UNL d   1      33.210  19.131 -24.465  0.00  0.00     0.199 A 
ATOM     10  O   UNL d   1      33.118  19.398 -20.871  0.00  0.00    -0.259 OA
ATOM     11  C   UNL d   1      33.240  19.942 -24.617  0.00  0.00     0.042 A 
ATOM     12  C   UNL d   1      33.235  21.570 -22.583  0.00  0.00     0.000 A 
ATOM     13  C   UNL d   1      33.186  21.145 -21.313  0.00  0.00     0.005 A 
ATOM     14  O   UNL d   1      33.210  18.602 -25.095  0.00  0.00    -0.286 OA
ATOM     15  C   UNL d   1      33.221  21.819 -21.783  0.00  0.00     0.000 A 
ENDROOT
BRANCH   2  16
ATOM     16  C   UNL d   1      33.149  18.050 -23.529  0.00  0.00     0.085 C 
BRANCH  16  17
ATOM     17  N   UNL d   1      32.463  17.618 -23.671  0.00  0.00    -0.304 N 
ATOM     18  C   UNL d   1      32.474  16.820 -23.576  0.00  0.00     0.064 A 
ATOM     19  C   UNL d   1      31.787  16.388 -23.718  0.00  0.00     0.018 A 
ATOM     20  C   UNL d   1      31.097  16.777 -23.956  0.00  0.00     0.003 A 
ATOM     21  C   UNL d   1      31.097  17.575 -24.049  0.00  0.00     0.019 A 
ATOM     22  C   UNL d   1      31.785  18.007 -23.906  0.00  0.00     0.080 A 
BRANCH  18  23
ATOM     23  C   UNL d   1      33.156  16.431 -23.340  0.00  0.00     0.018 C 
ATOM     24  C   UNL d   1      33.133  15.652 -23.085  0.00  0.00     0.002 C 
ENDBRANCH  18  23
ENDBRANCH  16  17
ENDBRANCH   2  16
TORSDOF 3
ENDMDL
MODEL 3
REMARK VINA RESULT:      -0.9      3.761      5.702
REMARK  3 active torsions:
REMARK  status: ('A' for Active; 'I' for Inactive)
REMARK    1  A    between atoms: C_8  and  C_2 
REMARK    2  A    between atoms: N_9  and  C_8 
REMARK    3  A    between atoms: C_20  and  C_13 
ROOT
ATOM      1  C   UNL d   1      33.141  21.291 -22.107  0.00  0.00     0.108 A 
ATOM      2  C   UNL d   1      33.190  22.116 -22.100  0.00  0.00     0.079 A 
ATOM      3  O   UNL d   1      33.141  20.868 -21.415  0.00  0.00    -0.273 OA
ATOM      4  C   UNL d   1      33.092  20.039 -21.420  0.00  0.00     0.300 A 
ATOM      5  C   UNL d   1      33.043  20.078 -22.860  0.00  0.00     0.007 A 
ATOM      6  C   UNL d   1      33.092  20.896 -22.830  0.00  0.00     0.023 A 
ATOM      7  C   UNL d   1      33.043  19.641 -22.150  0.00  0.00     0.064 A 
ATOM      8  C   UNL d   1      33.092  21.318 -23.541  0.00  0.00     0.005 A 
ATOM      9  C   UNL d   1      33.190  22.546 -22.797  0.00  0.00     0.199 A 
ATOM     10  O   UNL d   1      33.091  19.601 -20.719  0.00  0.00    -0.259 OA
ATOM     11  C   UNL d   1      33.141  22.151 -23.519  0.00  0.00     0.042 A 
ATOM     12  C   UNL d   1      32.990  19.550 -23.486  0.00  0.00     0.000 A 
ATOM     13  C   UNL d   1      32.989  18.838 -22.350  0.00  0.00     0.005 A 
ATOM     14  O   UNL d   1      33.239  23.368 -22.788  0.00  0.00    -0.286 OA
ATOM     15  C   UNL d   1      32.956  18.775 -23.169  0.00  0.00     0.000 A 
ENDROOT
BRANCH   2  16
ATOM     16  C   UNL d   1      33.239  22.507 -21.366  0.00  0.00     0.085 C 
BRANCH  16  17
ATOM     17  N   UNL d   1      32.589  22.908 -21.059  0.00  0.00    -0.304 N 
ATOM     18  C   UNL d   1      32.551  23.048 -20.268  0.00  0.00     0.064 A 
ATOM     19  C   UNL d   1      31.901  23.449 -19.961  0.00  0.00     0.018 A 
ATOM     20  C   UNL d   1      31.296  23.702 -20.465  0.00  0.00     0.003 A 
ATOM     21  C   UNL d   1      31.344  23.556 -21.254  0.00  0.00     0.019 A 
ATOM     22  C   UNL d   1      31.995  23.155 -21.561  0.00  0.00     0.080 A 
BRANCH  18  23
ATOM     23  C   UNL d   1      33.150  22.798 -19.765  0.00  0.00     0.018 C 
ATOM     24  C   UNL d   1      33.127  22.968 -18.963  0.00  0.00     0.002 C 
ENDBRANCH  18  23
ENDBRANCH  16  17
ENDBRANCH   2  16
TORSDOF 3
ENDMDL
