MODEL 1
REMARK VINA RESULT:      -7.4      0.000      0.000
REMARK  4 active torsions:
REMARK  status: ('A' for Active; 'I' for Inactive)
REMARK    1  A    between atoms: S_9  and  C_2 
REMARK    2  A    between atoms: C_11  and  C_3 
REMARK    3  A    between atoms: C_7  and  C_10 
REMARK       I    between atoms: N_8  and  C_7 
REMARK    4  A    between atoms: C_10  and  S_9 
ROOT
ATOM      1  N   UNL d   1     -48.009  12.908  23.122  0.00  0.00    -0.220 NA
ATOM      2  C   UNL d   1     -47.451  13.489  22.916  0.00  0.00     0.114 A 
ATOM      3  C   UNL d   1     -48.810  13.083  23.084  0.00  0.00     0.163 A 
ATOM      4  N   UNL d   1     -49.062  13.831  22.842  0.00  0.00    -0.227 NA
ATOM      5  C   UNL d   1     -47.703  14.236  22.674  0.00  0.00     0.042 A 
ATOM      6  C   UNL d   1     -48.513  14.403  22.639  0.00  0.00     0.085 A 
ATOM      7  C   UNL d   1     -47.158  14.802  22.473  0.00  0.00     0.004 A 
ATOM      8  C   UNL d   1     -48.765  15.138  22.401  0.00  0.00     0.019 A 
ATOM      9  C   UNL d   1     -47.410  15.550  22.232  0.00  0.00     0.000 A 
ATOM     10  C   UNL d   1     -48.220  15.715  22.196  0.00  0.00     0.002 A 
ENDROOT
BRANCH   2  11
ATOM     11  S   UNL d   1     -46.647  13.321  22.952  0.00  0.00    -0.062 SA
BRANCH  11  12
ATOM     12  C   UNL d   1     -46.389  12.555  23.060  0.00  0.00     0.098 C 
BRANCH  12  13
ATOM     13  C   UNL d   1     -45.591  12.360  22.964  0.00  0.00     0.271 C 
ATOM     14  N   UNL d   1     -45.313  11.616  23.176  0.00  0.00    -0.272 N 
ATOM     15  C   UNL d   1     -44.523  11.429  23.078  0.00  0.00     0.083 A 
ATOM     16  C   UNL d   1     -45.842  11.063  23.487  0.00  0.00     0.083 A 
ATOM     17  C   UNL d   1     -44.241  10.687  23.288  0.00  0.00     0.019 A 
ATOM     18  C   UNL d   1     -44.757  10.124  23.601  0.00  0.00     0.003 A 
ATOM     19  C   UNL d   1     -45.555  10.317  23.697  0.00  0.00     0.019 A 
ATOM     20  O   UNL d   1     -45.070  12.920  22.652  0.00  0.00    -0.266 OA
ENDBRANCH  12  13
ENDBRANCH  11  12
ENDBRANCH   2  11
BRANCH   3  21
ATOM     21  C   UNL d   1     -49.365  12.514  23.286  0.00  0.00     0.036 A 
ATOM     22  C   UNL d   1     -50.139  12.742  23.456  0.00  0.00     0.003 A 
ATOM     23  C   UNL d   1     -50.701  12.167  23.661  0.00  0.00     0.000 A 
ATOM     24  C   UNL d   1     -50.480  11.374  23.692  0.00  0.00     0.000 A 
ATOM     25  C   UNL d   1     -49.705  11.146  23.521  0.00  0.00     0.000 A 
ATOM     26  C   UNL d   1     -49.152  11.711  23.320  0.00  0.00     0.003 A 
ENDBRANCH   3  21
TORSDOF 4
ENDMDL
MODEL 2
REMARK VINA RESULT:      -6.7      1.048      2.926
REMARK  4 active torsions:
REMARK  status: ('A' for Active; 'I' for Inactive)
REMARK    1  A    between atoms: S_9  and  C_2 
REMARK    2  A    between atoms: C_11  and  C_3 
REMARK    3  A    between atoms: C_7  and  C_10 
REMARK       I    between atoms: N_8  and  C_7 
REMARK    4  A    between atoms: C_10  and  S_9 
ROOT
ATOM      1  N   UNL d   1     -48.084  13.206  23.134  0.00  0.00    -0.220 NA
ATOM      2  C   UNL d   1     -48.004  12.399  23.319  0.00  0.00     0.114 A 
ATOM      3  C   UNL d   1     -48.833  13.530  23.052  0.00  0.00     0.163 A 
ATOM      4  N   UNL d   1     -49.504  13.061  23.151  0.00  0.00    -0.227 NA
ATOM      5  C   UNL d   1     -48.674  11.929  23.418  0.00  0.00     0.042 A 
ATOM      6  C   UNL d   1     -49.426  12.266  23.333  0.00  0.00     0.085 A 
ATOM      7  C   UNL d   1     -48.595  11.143  23.599  0.00  0.00     0.004 A 
ATOM      8  C   UNL d   1     -50.089  11.807  23.430  0.00  0.00     0.019 A 
ATOM      9  C   UNL d   1     -49.266  10.673  23.698  0.00  0.00     0.000 A 
ATOM     10  C   UNL d   1     -50.016  11.011  23.612  0.00  0.00     0.002 A 
ENDROOT
BRANCH   2  11
ATOM     11  S   UNL d   1     -47.257  12.067  23.403  0.00  0.00    -0.062 SA
BRANCH  11  12
ATOM     12  C   UNL d   1     -46.603  12.433  23.082  0.00  0.00     0.098 C 
BRANCH  12  13
ATOM     13  C   UNL d   1     -45.855  12.082  23.131  0.00  0.00     0.271 C 
ATOM     14  N   UNL d   1     -45.240  12.338  22.648  0.00  0.00    -0.272 N 
ATOM     15  C   UNL d   1     -44.504  11.987  22.700  0.00  0.00     0.083 A 
ATOM     16  C   UNL d   1     -45.378  12.950  22.112  0.00  0.00     0.083 A 
ATOM     17  C   UNL d   1     -43.887  12.239  22.220  0.00  0.00     0.019 A 
ATOM     18  C   UNL d   1     -44.009  12.850  21.680  0.00  0.00     0.003 A 
ATOM     19  C   UNL d   1     -44.756  13.202  21.630  0.00  0.00     0.019 A 
ATOM     20  O   UNL d   1     -45.727  11.470  23.670  0.00  0.00    -0.266 OA
ENDBRANCH  12  13
ENDBRANCH  11  12
ENDBRANCH   2  11
BRANCH   3  21
ATOM     21  C   UNL d   1     -48.919  14.326  22.870  0.00  0.00     0.036 A 
ATOM     22  C   UNL d   1     -49.401  14.802  23.340  0.00  0.00     0.003 A 
ATOM     23  C   UNL d   1     -49.487  15.606  23.157  0.00  0.00     0.000 A 
ATOM     24  C   UNL d   1     -49.091  15.921  22.507  0.00  0.00     0.000 A 
ATOM     25  C   UNL d   1     -48.609  15.444  22.036  0.00  0.00     0.000 A 
ATOM     26  C   UNL d   1     -48.523  14.653  22.216  0.00  0.00     0.003 A 
ENDBRANCH   3  21
TORSDOF 4
ENDMDL
MODEL 3
REMARK VINA RESULT:      -6.2      9.134     10.331
REMARK  4 active torsions:
REMARK  status: ('A' for Active; 'I' for Inactive)
REMARK    1  A    between atoms: S_9  and  C_2 
REMARK    2  A    between atoms: C_11  and  C_3 
REMARK    3  A    between atoms: C_7  and  C_10 
REMARK       I    between atoms: N_8  and  C_7 
REMARK    4  A    between atoms: C_10  and  S_9 
ROOT
ATOM      1  N   UNL d   1     -38.851  14.087  18.479  0.00  0.00    -0.220 NA
ATOM      2  C   UNL d   1     -38.507  13.439  18.871  0.00  0.00     0.114 A 
ATOM      3  C   UNL d   1     -39.073  14.012  17.692  0.00  0.00     0.163 A 
ATOM      4  N   UNL d   1     -38.957  13.301  17.291  0.00  0.00    -0.227 NA
ATOM      5  C   UNL d   1     -38.391  12.727  18.471  0.00  0.00     0.042 A 
ATOM      6  C   UNL d   1     -38.619  12.663  17.677  0.00  0.00     0.085 A 
ATOM      7  C   UNL d   1     -38.056  12.097  18.855  0.00  0.00     0.004 A 
ATOM      8  C   UNL d   1     -38.506  11.964  17.279  0.00  0.00     0.019 A 
ATOM      9  C   UNL d   1     -37.940  11.385  18.454  0.00  0.00     0.000 A 
ATOM     10  C   UNL d   1     -38.168  11.321  17.661  0.00  0.00     0.002 A 
ENDROOT
BRANCH   2  11
ATOM     11  S   UNL d   1     -38.282  13.506  19.658  0.00  0.00    -0.062 SA
BRANCH  11  12
ATOM     12  C   UNL d   1     -38.664  14.028  20.155  0.00  0.00     0.098 C 
BRANCH  12  13
ATOM     13  C   UNL d   1     -38.455  14.082  20.954  0.00  0.00     0.271 C 
ATOM     14  N   UNL d   1     -38.745  14.693  21.422  0.00  0.00    -0.272 N 
ATOM     15  C   UNL d   1     -38.535  14.741  22.211  0.00  0.00     0.083 A 
ATOM     16  C   UNL d   1     -39.249  15.253  21.085  0.00  0.00     0.083 A 
ATOM     17  C   UNL d   1     -38.822  15.349  22.682  0.00  0.00     0.019 A 
ATOM     18  C   UNL d   1     -39.327  15.916  22.360  0.00  0.00     0.003 A 
ATOM     19  C   UNL d   1     -39.536  15.864  21.562  0.00  0.00     0.019 A 
ATOM     20  O   UNL d   1     -37.950  13.517  21.282  0.00  0.00    -0.266 OA
ENDBRANCH  12  13
ENDBRANCH  11  12
ENDBRANCH   2  11
BRANCH   3  21
ATOM     21  C   UNL d   1     -39.413  14.648  17.299  0.00  0.00     0.036 A 
ATOM     22  C   UNL d   1     -40.220  14.796  17.386  0.00  0.00     0.003 A 
ATOM     23  C   UNL d   1     -40.564  15.438  16.990  0.00  0.00     0.000 A 
ATOM     24  C   UNL d   1     -40.096  15.921  16.513  0.00  0.00     0.000 A 
ATOM     25  C   UNL d   1     -39.289  15.772  16.427  0.00  0.00     0.000 A 
ATOM     26  C   UNL d   1     -38.950  15.141  16.816  0.00  0.00     0.003 A 
ENDBRANCH   3  21
TORSDOF 4
ENDMDL
MODEL 4
REMARK VINA RESULT:      -5.3      7.986      9.573
REMARK  4 active torsions:
REMARK  status: ('A' for Active; 'I' for Inactive)
REMARK    1  A    between atoms: S_9  and  C_2 
REMARK    2  A    between atoms: C_11  and  C_3 
REMARK    3  A    between atoms: C_7  and  C_10 
REMARK       I    between atoms: N_8  and  C_7 
REMARK    4  A    between atoms: C_10  and  S_9 
ROOT
ATOM      1  N   UNL d   1     -38.929  14.717  20.327  0.00  0.00    -0.220 NA
ATOM      2  C   UNL d   1     -39.370  14.978  19.672  0.00  0.00     0.114 A 
ATOM      3  C   UNL d   1     -39.249  14.776  21.080  0.00  0.00     0.163 A 
ATOM      4  N   UNL d   1     -40.002  15.093  21.190  0.00  0.00    -0.227 NA
ATOM      5  C   UNL d   1     -40.123  15.295  19.781  0.00  0.00     0.042 A 
ATOM      6  C   UNL d   1     -40.437  15.351  20.545  0.00  0.00     0.085 A 
ATOM      7  C   UNL d   1     -40.552  15.550  19.142  0.00  0.00     0.004 A 
ATOM      8  C   UNL d   1     -41.179  15.662  20.658  0.00  0.00     0.019 A 
ATOM      9  C   UNL d   1     -41.306  15.867  19.251  0.00  0.00     0.000 A 
ATOM     10  C   UNL d   1     -41.618  15.922  20.015  0.00  0.00     0.002 A 
ENDROOT
BRANCH   2  11
ATOM     11  S   UNL d   1     -39.056  14.922  18.914  0.00  0.00    -0.062 SA
BRANCH  11  12
ATOM     12  C   UNL d   1     -38.530  14.328  18.727  0.00  0.00     0.098 C 
BRANCH  12  13
ATOM     13  C   UNL d   1     -38.400  14.110  17.940  0.00  0.00     0.271 C 
ATOM     14  N   UNL d   1     -38.247  13.327  17.742  0.00  0.00    -0.272 N 
ATOM     15  C   UNL d   1     -38.119  13.118  16.962  0.00  0.00     0.083 A 
ATOM     16  C   UNL d   1     -38.224  12.759  18.340  0.00  0.00     0.083 A 
ATOM     17  C   UNL d   1     -37.966  12.337  16.759  0.00  0.00     0.019 A 
ATOM     18  C   UNL d   1     -37.940  11.757  17.345  0.00  0.00     0.003 A 
ATOM     19  C   UNL d   1     -38.070  11.973  18.133  0.00  0.00     0.019 A 
ATOM     20  O   UNL d   1     -38.424  14.687  17.349  0.00  0.00    -0.266 OA
ENDBRANCH  12  13
ENDBRANCH  11  12
ENDBRANCH   2  11
BRANCH   3  21
ATOM     21  C   UNL d   1     -38.818  14.520  21.731  0.00  0.00     0.036 A 
ATOM     22  C   UNL d   1     -38.704  13.712  21.850  0.00  0.00     0.003 A 
ATOM     23  C   UNL d   1     -38.269  13.452  22.507  0.00  0.00     0.000 A 
ATOM     24  C   UNL d   1     -37.956  14.003  23.033  0.00  0.00     0.000 A 
ATOM     25  C   UNL d   1     -38.071  14.812  22.913  0.00  0.00     0.000 A 
ATOM     26  C   UNL d   1     -38.499  15.068  22.267  0.00  0.00     0.003 A 
ENDBRANCH   3  21
TORSDOF 4
ENDMDL
MODEL 5
REMARK VINA RESULT:      -5.2      1.863      4.986
REMARK  4 active torsions:
REMARK  status: ('A' for Active; 'I' for Inactive)
REMARK    1  A    between atoms: S_9  and  C_2 
REMARK    2  A    between atoms: C_11  and  C_3 
REMARK    3  A    between atoms: C_7  and  C_10 
REMARK       I    between atoms: N_8  and  C_7 
REMARK    4  A    between atoms: C_10  and  S_9 
ROOT
ATOM      1  N   UNL d   1     -47.071  13.157  22.069  0.00  0.00    -0.220 NA
ATOM      2  C   UNL d   1     -47.814  12.835  22.262  0.00  0.00     0.114 A 
ATOM      3  C   UNL d   1     -46.389  12.804  22.359  0.00  0.00     0.163 A 
ATOM      4  N   UNL d   1     -46.437  12.135  22.839  0.00  0.00    -0.227 NA
ATOM      5  C   UNL d   1     -47.862  12.166  22.743  0.00  0.00     0.042 A 
ATOM      6  C   UNL d   1     -47.168  11.818  23.030  0.00  0.00     0.085 A 
ATOM      7  C   UNL d   1     -48.586  11.854  22.930  0.00  0.00     0.004 A 
ATOM      8  C   UNL d   1     -47.211  11.159  23.503  0.00  0.00     0.019 A 
ATOM      9  C   UNL d   1     -48.635  11.185  23.411  0.00  0.00     0.000 A 
ATOM     10  C   UNL d   1     -47.940  10.838  23.697  0.00  0.00     0.002 A 
ENDROOT
BRANCH   2  11
ATOM     11  S   UNL d   1     -48.501  13.182  21.976  0.00  0.00    -0.062 SA
BRANCH  11  12
ATOM     12  C   UNL d   1     -48.733  13.919  22.238  0.00  0.00     0.098 C 
BRANCH  12  13
ATOM     13  C   UNL d   1     -49.489  14.210  22.069  0.00  0.00     0.271 C 
ATOM     14  N   UNL d   1     -49.838  14.775  22.553  0.00  0.00    -0.272 N 
ATOM     15  C   UNL d   1     -50.585  15.059  22.381  0.00  0.00     0.083 A 
ATOM     16  C   UNL d   1     -49.424  15.050  23.212  0.00  0.00     0.083 A 
ATOM     17  C   UNL d   1     -50.938  15.623  22.862  0.00  0.00     0.019 A 
ATOM     18  C   UNL d   1     -50.537  15.908  23.524  0.00  0.00     0.003 A 
ATOM     19  C   UNL d   1     -49.781  15.619  23.695  0.00  0.00     0.019 A 
ATOM     20  O   UNL d   1     -49.895  13.928  21.407  0.00  0.00    -0.266 OA
ENDBRANCH  12  13
ENDBRANCH  11  12
ENDBRANCH   2  11
BRANCH   3  21
ATOM     21  C   UNL d   1     -45.654  13.116  22.172  0.00  0.00     0.036 A 
ATOM     22  C   UNL d   1     -45.510  13.920  22.290  0.00  0.00     0.003 A 
ATOM     23  C   UNL d   1     -44.768  14.237  22.101  0.00  0.00     0.000 A 
ATOM     24  C   UNL d   1     -44.181  13.745  21.797  0.00  0.00     0.000 A 
ATOM     25  C   UNL d   1     -44.324  12.941  21.679  0.00  0.00     0.000 A 
ATOM     26  C   UNL d   1     -45.055  12.629  21.865  0.00  0.00     0.003 A 
ENDBRANCH   3  21
TORSDOF 4
ENDMDL
MODEL 6
REMARK VINA RESULT:      -4.6      8.079      9.397
REMARK  4 active torsions:
REMARK  status: ('A' for Active; 'I' for Inactive)
REMARK    1  A    between atoms: S_9  and  C_2 
REMARK    2  A    between atoms: C_11  and  C_3 
REMARK    3  A    between atoms: C_7  and  C_10 
REMARK       I    between atoms: N_8  and  C_7 
REMARK    4  A    between atoms: C_10  and  S_9 
ROOT
ATOM      1  N   UNL d   1     -39.800  14.947  18.676  0.00  0.00    -0.220 NA
ATOM      2  C   UNL d   1     -39.781  15.002  17.846  0.00  0.00     0.114 A 
ATOM      3  C   UNL d   1     -40.467  15.200  19.084  0.00  0.00     0.163 A 
ATOM      4  N   UNL d   1     -41.114  15.507  18.675  0.00  0.00    -0.227 NA
ATOM      5  C   UNL d   1     -40.429  15.309  17.438  0.00  0.00     0.042 A 
ATOM      6  C   UNL d   1     -41.096  15.561  17.858  0.00  0.00     0.085 A 
ATOM      7  C   UNL d   1     -40.409  15.363  16.629  0.00  0.00     0.004 A 
ATOM      8  C   UNL d   1     -41.735  15.865  17.460  0.00  0.00     0.019 A 
ATOM      9  C   UNL d   1     -41.056  15.670  16.220  0.00  0.00     0.000 A 
ATOM     10  C   UNL d   1     -41.722  15.922  16.641  0.00  0.00     0.002 A 
ENDROOT
BRANCH   2  11
ATOM     11  S   UNL d   1     -39.118  14.751  17.431  0.00  0.00    -0.062 SA
BRANCH  11  12
ATOM     12  C   UNL d   1     -38.690  14.105  17.686  0.00  0.00     0.098 C 
BRANCH  12  13
ATOM     13  C   UNL d   1     -38.469  13.509  17.157  0.00  0.00     0.271 C 
ATOM     14  N   UNL d   1     -38.314  12.747  17.426  0.00  0.00    -0.272 N 
ATOM     15  C   UNL d   1     -38.096  12.162  16.899  0.00  0.00     0.083 A 
ATOM     16  C   UNL d   1     -38.381  12.585  18.233  0.00  0.00     0.083 A 
ATOM     17  C   UNL d   1     -37.940  11.400  17.163  0.00  0.00     0.019 A 
ATOM     18  C   UNL d   1     -38.003  11.222  17.966  0.00  0.00     0.003 A 
ATOM     19  C   UNL d   1     -38.223  11.817  18.496  0.00  0.00     0.019 A 
ATOM     20  O   UNL d   1     -38.405  13.682  16.352  0.00  0.00    -0.266 OA
ENDBRANCH  12  13
ENDBRANCH  11  12
ENDBRANCH   2  11
BRANCH   3  21
ATOM     21  C   UNL d   1     -40.492  15.147  19.902  0.00  0.00     0.036 A 
ATOM     22  C   UNL d   1     -40.384  15.827  20.357  0.00  0.00     0.003 A 
ATOM     23  C   UNL d   1     -40.409  15.775  21.185  0.00  0.00     0.000 A 
ATOM     24  C   UNL d   1     -40.541  15.046  21.543  0.00  0.00     0.000 A 
ATOM     25  C   UNL d   1     -40.649  14.365  21.088  0.00  0.00     0.000 A 
ATOM     26  C   UNL d   1     -40.624  14.416  20.274  0.00  0.00     0.003 A 
ENDBRANCH   3  21
TORSDOF 4
ENDMDL
