MODEL 1
REMARK VINA RESULT:      -1.1      0.000      0.000
REMARK  5 active torsions:
REMARK  status: ('A' for Active; 'I' for Inactive)
REMARK    1  A    between atoms: C_2  and  S_1 
REMARK    2  A    between atoms: N_4  and  S_1 
REMARK    3  A    between atoms: C_11  and  N_4 
REMARK    4  A    between atoms: O_13  and  C_5 
REMARK    5  A    between atoms: O_14  and  C_6 
ROOT
ATOM      1  C   UNL d   1      32.576  18.132 -23.595  0.00  0.00     0.141 A 
ATOM      2  C   UNL d   1      32.960  17.423 -23.418  0.00  0.00     0.040 A 
ATOM      3  C   UNL d   1      32.086  18.177 -24.242  0.00  0.00     0.107 A 
ATOM      4  C   UNL d   1      32.849  16.764 -23.889  0.00  0.00     0.095 A 
ATOM      5  C   UNL d   1      31.967  17.522 -24.722  0.00  0.00     0.027 A 
ATOM      6  C   UNL d   1      32.351  16.812 -24.545  0.00  0.00     0.024 A 
ATOM      7  C   UNL d   1      32.233  16.146 -25.029  0.00  0.00     0.002 C 
ENDROOT
BRANCH   1   8
ATOM      8  S   UNL d   1      32.695  18.788 -23.114  0.00  0.00     0.329 S 
ATOM      9  O   UNL d   1      33.241  19.083 -23.653  0.00  0.00    -0.186 OA
ATOM     10  O   UNL d   1      32.154  18.504 -22.572  0.00  0.00    -0.186 OA
BRANCH   8  11
ATOM     11  N   UNL d   1      32.820  19.449 -22.638  0.00  0.00    -0.316 NA
BRANCH  11  12
ATOM     12  C   UNL d   1      32.941  20.113 -22.155  0.00  0.00     0.165 A 
ATOM     13  C   UNL d   1      32.902  20.863 -22.479  0.00  0.00     0.132 A 
ATOM     14  N   UNL d   1      33.022  21.526 -21.996  0.00  0.00    -0.240 NA
ATOM     15  C   UNL d   1      33.181  21.434 -21.191  0.00  0.00     0.099 A 
ATOM     16  C   UNL d   1      33.219  20.672 -20.871  0.00  0.00     0.023 A 
ATOM     17  C   UNL d   1      33.100  20.009 -21.344  0.00  0.00     0.036 A 
ENDBRANCH  11  12
ENDBRANCH   8  11
ENDBRANCH   1   8
BRANCH   3  18
ATOM     18  O   UNL d   1      31.702  18.888 -24.420  0.00  0.00    -0.327 OA
ATOM     19  C   UNL d   1      31.213  18.937 -25.091  0.00  0.00     0.181 C 
ENDBRANCH   3  18
BRANCH   4  20
ATOM     20  O   UNL d   1      33.233  16.054 -23.712  0.00  0.00    -0.328 OA
ATOM     21  C   UNL d   1      33.233  15.766 -22.938  0.00  0.00     0.181 C 
ENDBRANCH   4  20
TORSDOF 5
ENDMDL
MODEL 2
REMARK VINA RESULT:      -0.3      2.394      3.161
REMARK  5 active torsions:
REMARK  status: ('A' for Active; 'I' for Inactive)
REMARK    1  A    between atoms: C_2  and  S_1 
REMARK    2  A    between atoms: N_4  and  S_1 
REMARK    3  A    between atoms: C_11  and  N_4 
REMARK    4  A    between atoms: O_13  and  C_5 
REMARK    5  A    between atoms: O_14  and  C_6 
ROOT
ATOM      1  C   UNL d   1      30.326  17.138 -24.340  0.00  0.00     0.141 A 
ATOM      2  C   UNL d   1      29.563  17.274 -24.056  0.00  0.00     0.040 A 
ATOM      3  C   UNL d   1      30.492  16.452 -24.744  0.00  0.00     0.107 A 
ATOM      4  C   UNL d   1      28.971  16.723 -24.179  0.00  0.00     0.095 A 
ATOM      5  C   UNL d   1      29.907  15.892 -24.873  0.00  0.00     0.027 A 
ATOM      6  C   UNL d   1      29.143  16.028 -24.589  0.00  0.00     0.024 A 
ATOM      7  C   UNL d   1      28.546  15.462 -24.718  0.00  0.00     0.002 C 
ENDROOT
BRANCH   1   8
ATOM      8  S   UNL d   1      30.912  17.700 -24.211  0.00  0.00     0.329 S 
ATOM      9  O   UNL d   1      30.515  18.225 -24.701  0.00  0.00    -0.186 OA
ATOM     10  O   UNL d   1      31.315  17.184 -23.721  0.00  0.00    -0.186 OA
BRANCH   8  11
ATOM     11  N   UNL d   1      31.496  18.268 -24.086  0.00  0.00    -0.316 NA
BRANCH  11  12
ATOM     12  C   UNL d   1      32.079  18.844 -23.957  0.00  0.00     0.165 A 
ATOM     13  C   UNL d   1      32.433  19.214 -24.596  0.00  0.00     0.132 A 
ATOM     14  N   UNL d   1      33.015  19.789 -24.466  0.00  0.00    -0.240 NA
ATOM     15  C   UNL d   1      33.241  19.990 -23.698  0.00  0.00     0.099 A 
ATOM     16  C   UNL d   1      32.879  19.612 -23.058  0.00  0.00     0.023 A 
ATOM     17  C   UNL d   1      32.299  19.040 -23.178  0.00  0.00     0.036 A 
ENDBRANCH  11  12
ENDBRANCH   8  11
ENDBRANCH   1   8
BRANCH   3  18
ATOM     18  O   UNL d   1      31.257  16.316 -25.028  0.00  0.00    -0.327 OA
ATOM     19  C   UNL d   1      31.544  15.537 -25.086  0.00  0.00     0.181 C 
ENDBRANCH   3  18
BRANCH   4  20
ATOM     20  O   UNL d   1      28.208  16.859 -23.895  0.00  0.00    -0.328 OA
ATOM     21  C   UNL d   1      27.975  16.548 -23.167  0.00  0.00     0.181 C 
ENDBRANCH   4  20
TORSDOF 5
ENDMDL
MODEL 3
REMARK VINA RESULT:       0.5      3.323      4.627
REMARK  5 active torsions:
REMARK  status: ('A' for Active; 'I' for Inactive)
REMARK    1  A    between atoms: C_2  and  S_1 
REMARK    2  A    between atoms: N_4  and  S_1 
REMARK    3  A    between atoms: C_11  and  N_4 
REMARK    4  A    between atoms: O_13  and  C_5 
REMARK    5  A    between atoms: O_14  and  C_6 
ROOT
ATOM      1  C   UNL d   1      30.787  16.617 -24.462  0.00  0.00     0.141 A 
ATOM      2  C   UNL d   1      31.409  16.075 -24.416  0.00  0.00     0.040 A 
ATOM      3  C   UNL d   1      30.932  17.380 -24.704  0.00  0.00     0.107 A 
ATOM      4  C   UNL d   1      32.170  16.301 -24.613  0.00  0.00     0.095 A 
ATOM      5  C   UNL d   1      31.692  17.617 -24.904  0.00  0.00     0.027 A 
ATOM      6  C   UNL d   1      32.313  17.075 -24.858  0.00  0.00     0.024 A 
ATOM      7  C   UNL d   1      33.085  17.313 -25.060  0.00  0.00     0.002 C 
ENDROOT
BRANCH   1   8
ATOM      8  S   UNL d   1      30.026  16.379 -24.262  0.00  0.00     0.329 S 
ATOM      9  O   UNL d   1      30.099  16.760 -23.538  0.00  0.00    -0.186 OA
ATOM     10  O   UNL d   1      29.944  15.997 -24.980  0.00  0.00    -0.186 OA
BRANCH   8  11
ATOM     11  N   UNL d   1      29.264  16.144 -24.054  0.00  0.00    -0.316 NA
BRANCH  11  12
ATOM     12  C   UNL d   1      28.495  15.913 -23.847  0.00  0.00     0.165 A 
ATOM     13  C   UNL d   1      27.967  15.691 -24.431  0.00  0.00     0.132 A 
ATOM     14  N   UNL d   1      27.198  15.461 -24.224  0.00  0.00    -0.240 NA
ATOM     15  C   UNL d   1      26.963  15.453 -23.433  0.00  0.00     0.099 A 
ATOM     16  C   UNL d   1      27.502  15.678 -22.848  0.00  0.00     0.023 A 
ATOM     17  C   UNL d   1      28.268  15.909 -23.045  0.00  0.00     0.036 A 
ENDBRANCH  11  12
ENDBRANCH   8  11
ENDBRANCH   1   8
BRANCH   3  18
ATOM     18  O   UNL d   1      30.309  17.923 -24.751  0.00  0.00    -0.327 OA
ATOM     19  C   UNL d   1      30.470  18.722 -24.915  0.00  0.00     0.181 C 
ENDBRANCH   3  18
BRANCH   4  20
ATOM     20  O   UNL d   1      32.791  15.759 -24.567  0.00  0.00    -0.328 OA
ATOM     21  C   UNL d   1      33.178  15.632 -23.849  0.00  0.00     0.181 C 
ENDBRANCH   4  20
TORSDOF 5
ENDMDL
MODEL 4
REMARK VINA RESULT:       0.5      3.172      4.135
REMARK  5 active torsions:
REMARK  status: ('A' for Active; 'I' for Inactive)
REMARK    1  A    between atoms: C_2  and  S_1 
REMARK    2  A    between atoms: N_4  and  S_1 
REMARK    3  A    between atoms: C_11  and  N_4 
REMARK    4  A    between atoms: O_13  and  C_5 
REMARK    5  A    between atoms: O_14  and  C_6 
ROOT
ATOM      1  C   UNL d   1      29.402  16.891 -23.991  0.00  0.00     0.141 A 
ATOM      2  C   UNL d   1      29.288  16.279 -23.447  0.00  0.00     0.040 A 
ATOM      3  C   UNL d   1      28.760  17.285 -24.296  0.00  0.00     0.107 A 
ATOM      4  C   UNL d   1      28.534  16.067 -23.214  0.00  0.00     0.095 A 
ATOM      5  C   UNL d   1      27.998  17.082 -24.070  0.00  0.00     0.027 A 
ATOM      6  C   UNL d   1      27.884  16.470 -23.526  0.00  0.00     0.024 A 
ATOM      7  C   UNL d   1      27.113  16.261 -23.294  0.00  0.00     0.002 C 
ENDROOT
BRANCH   1   8
ATOM      8  S   UNL d   1      30.165  17.094 -24.217  0.00  0.00     0.329 S 
ATOM      9  O   UNL d   1      30.109  17.787 -23.779  0.00  0.00    -0.186 OA
ATOM     10  O   UNL d   1      30.231  16.408 -24.656  0.00  0.00    -0.186 OA
BRANCH   8  11
ATOM     11  N   UNL d   1      30.930  17.306 -24.440  0.00  0.00    -0.316 NA
BRANCH  11  12
ATOM     12  C   UNL d   1      31.702  17.516 -24.659  0.00  0.00     0.165 A 
ATOM     13  C   UNL d   1      31.898  18.305 -24.748  0.00  0.00     0.132 A 
ATOM     14  N   UNL d   1      32.670  18.514 -24.967  0.00  0.00    -0.240 NA
ATOM     15  C   UNL d   1      33.241  17.932 -25.095  0.00  0.00     0.099 A 
ATOM     16  C   UNL d   1      33.035  17.137 -25.002  0.00  0.00     0.023 A 
ATOM     17  C   UNL d   1      32.271  16.921 -24.785  0.00  0.00     0.036 A 
ENDBRANCH  11  12
ENDBRANCH   8  11
ENDBRANCH   1   8
BRANCH   3  18
ATOM     18  O   UNL d   1      28.874  17.898 -24.841  0.00  0.00    -0.327 OA
ATOM     19  C   UNL d   1      28.232  18.377 -25.064  0.00  0.00     0.181 C 
ENDBRANCH   3  18
BRANCH   4  20
ATOM     20  O   UNL d   1      28.420  15.456 -22.671  0.00  0.00    -0.328 OA
ATOM     21  C   UNL d   1      28.757  15.502 -21.919  0.00  0.00     0.181 C 
ENDBRANCH   4  20
TORSDOF 5
ENDMDL
MODEL 5
REMARK VINA RESULT:       1.0      1.802      4.684
REMARK  5 active torsions:
REMARK  status: ('A' for Active; 'I' for Inactive)
REMARK    1  A    between atoms: C_2  and  S_1 
REMARK    2  A    between atoms: N_4  and  S_1 
REMARK    3  A    between atoms: C_11  and  N_4 
REMARK    4  A    between atoms: O_13  and  C_5 
REMARK    5  A    between atoms: O_14  and  C_6 
ROOT
ATOM      1  C   UNL d   1      33.211  21.276 -22.122  0.00  0.00     0.141 A 
ATOM      2  C   UNL d   1      33.198  21.346 -21.299  0.00  0.00     0.040 A 
ATOM      3  C   UNL d   1      33.229  21.945 -22.584  0.00  0.00     0.107 A 
ATOM      4  C   UNL d   1      33.204  22.083 -20.945  0.00  0.00     0.095 A 
ATOM      5  C   UNL d   1      33.235  22.690 -22.241  0.00  0.00     0.027 A 
ATOM      6  C   UNL d   1      33.222  22.760 -21.418  0.00  0.00     0.024 A 
ATOM      7  C   UNL d   1      33.229  23.514 -21.066  0.00  0.00     0.002 C 
ENDROOT
BRANCH   1   8
ATOM      8  S   UNL d   1      33.204  20.530 -22.465  0.00  0.00     0.329 S 
ATOM      9  O   UNL d   1      33.175  20.188 -21.719  0.00  0.00    -0.186 OA
ATOM     10  O   UNL d   1      33.233  20.860 -23.212  0.00  0.00    -0.186 OA
BRANCH   8  11
ATOM     11  N   UNL d   1      33.198  19.777 -22.802  0.00  0.00    -0.316 NA
BRANCH  11  12
ATOM     12  C   UNL d   1      33.185  19.021 -23.142  0.00  0.00     0.165 A 
ATOM     13  C   UNL d   1      33.194  18.360 -22.661  0.00  0.00     0.132 A 
ATOM     14  N   UNL d   1      33.182  17.604 -23.002  0.00  0.00    -0.240 NA
ATOM     15  C   UNL d   1      33.160  17.515 -23.822  0.00  0.00     0.099 A 
ATOM     16  C   UNL d   1      33.151  18.189 -24.302  0.00  0.00     0.023 A 
ATOM     17  C   UNL d   1      33.163  18.943 -23.971  0.00  0.00     0.036 A 
ENDBRANCH  11  12
ENDBRANCH   8  11
ENDBRANCH   1   8
BRANCH   3  18
ATOM     18  O   UNL d   1      33.241  21.875 -23.408  0.00  0.00    -0.327 OA
ATOM     19  C   UNL d   1      33.147  22.553 -23.881  0.00  0.00     0.181 C 
ENDBRANCH   3  18
BRANCH   4  20
ATOM     20  O   UNL d   1      33.192  22.153 -20.122  0.00  0.00    -0.328 OA
ATOM     21  C   UNL d   1      32.474  22.130 -19.716  0.00  0.00     0.181 C 
ENDBRANCH   4  20
TORSDOF 5
ENDMDL
MODEL 6
REMARK VINA RESULT:       1.1      1.495      2.220
REMARK  5 active torsions:
REMARK  status: ('A' for Active; 'I' for Inactive)
REMARK    1  A    between atoms: C_2  and  S_1 
REMARK    2  A    between atoms: N_4  and  S_1 
REMARK    3  A    between atoms: C_11  and  N_4 
REMARK    4  A    between atoms: O_13  and  C_5 
REMARK    5  A    between atoms: O_14  and  C_6 
ROOT
ATOM      1  C   UNL d   1      32.959  19.920 -22.630  0.00  0.00     0.141 A 
ATOM      2  C   UNL d   1      32.878  19.120 -22.440  0.00  0.00     0.040 A 
ATOM      3  C   UNL d   1      33.110  20.141 -23.397  0.00  0.00     0.107 A 
ATOM      4  C   UNL d   1      32.950  18.548 -23.019  0.00  0.00     0.095 A 
ATOM      5  C   UNL d   1      33.185  19.575 -23.987  0.00  0.00     0.027 A 
ATOM      6  C   UNL d   1      33.104  18.775 -23.797  0.00  0.00     0.024 A 
ATOM      7  C   UNL d   1      33.179  18.199 -24.393  0.00  0.00     0.002 C 
ENDROOT
BRANCH   1   8
ATOM      8  S   UNL d   1      32.884  20.486 -22.039  0.00  0.00     0.329 S 
ATOM      9  O   UNL d   1      33.241  19.974 -21.505  0.00  0.00    -0.186 OA
ATOM     10  O   UNL d   1      32.529  21.003 -22.562  0.00  0.00    -0.186 OA
BRANCH   8  11
ATOM     11  N   UNL d   1      32.813  21.049 -21.440  0.00  0.00    -0.316 NA
BRANCH  11  12
ATOM     12  C   UNL d   1      32.749  21.614 -20.837  0.00  0.00     0.165 A 
ATOM     13  C   UNL d   1      32.717  22.409 -21.028  0.00  0.00     0.132 A 
ATOM     14  N   UNL d   1      32.653  22.974 -20.425  0.00  0.00    -0.240 NA
ATOM     15  C   UNL d   1      32.619  22.741 -19.634  0.00  0.00     0.099 A 
ATOM     16  C   UNL d   1      32.651  21.935 -19.449  0.00  0.00     0.023 A 
ATOM     17  C   UNL d   1      32.716  21.367 -20.042  0.00  0.00     0.036 A 
ENDBRANCH  11  12
ENDBRANCH   8  11
ENDBRANCH   1   8
BRANCH   3  18
ATOM     18  O   UNL d   1      33.191  20.942 -23.587  0.00  0.00    -0.327 OA
ATOM     19  C   UNL d   1      33.241  21.174 -24.385  0.00  0.00     0.181 C 
ENDBRANCH   3  18
BRANCH   4  20
ATOM     20  O   UNL d   1      32.870  17.748 -22.829  0.00  0.00    -0.328 OA
ATOM     21  C   UNL d   1      32.283  17.294 -23.190  0.00  0.00     0.181 C 
ENDBRANCH   4  20
TORSDOF 5
ENDMDL
MODEL 7
REMARK VINA RESULT:       1.3      2.517      3.836
REMARK  5 active torsions:
REMARK  status: ('A' for Active; 'I' for Inactive)
REMARK    1  A    between atoms: C_2  and  S_1 
REMARK    2  A    between atoms: N_4  and  S_1 
REMARK    3  A    between atoms: C_11  and  N_4 
REMARK    4  A    between atoms: O_13  and  C_5 
REMARK    5  A    between atoms: O_14  and  C_6 
ROOT
ATOM      1  C   UNL d   1      32.898  21.167 -21.359  0.00  0.00     0.141 A 
ATOM      2  C   UNL d   1      32.996  20.354 -21.252  0.00  0.00     0.040 A 
ATOM      3  C   UNL d   1      32.871  21.477 -22.110  0.00  0.00     0.107 A 
ATOM      4  C   UNL d   1      33.066  19.857 -21.898  0.00  0.00     0.095 A 
ATOM      5  C   UNL d   1      32.941  20.988 -22.766  0.00  0.00     0.027 A 
ATOM      6  C   UNL d   1      33.039  20.175 -22.659  0.00  0.00     0.024 A 
ATOM      7  C   UNL d   1      33.110  19.676 -23.322  0.00  0.00     0.002 C 
ENDROOT
BRANCH   1   8
ATOM      8  S   UNL d   1      32.828  21.656 -20.702  0.00  0.00     0.329 S 
ATOM      9  O   UNL d   1      33.241  22.245 -21.098  0.00  0.00    -0.186 OA
ATOM     10  O   UNL d   1      32.417  21.076 -20.299  0.00  0.00    -0.186 OA
BRANCH   8  11
ATOM     11  N   UNL d   1      32.762  22.153 -20.047  0.00  0.00    -0.316 NA
BRANCH  11  12
ATOM     12  C   UNL d   1      32.691  22.650 -19.387  0.00  0.00     0.165 A 
ATOM     13  C   UNL d   1      32.090  23.205 -19.360  0.00  0.00     0.132 A 
ATOM     14  N   UNL d   1      32.019  23.701 -18.700  0.00  0.00    -0.240 NA
ATOM     15  C   UNL d   1      32.550  23.640 -18.071  0.00  0.00     0.099 A 
ATOM     16  C   UNL d   1      33.154  23.076 -18.106  0.00  0.00     0.023 A 
ATOM     17  C   UNL d   1      33.232  22.579 -18.758  0.00  0.00     0.036 A 
ENDBRANCH  11  12
ENDBRANCH   8  11
ENDBRANCH   1   8
BRANCH   3  18
ATOM     18  O   UNL d   1      32.773  22.291 -22.217  0.00  0.00    -0.327 OA
ATOM     19  C   UNL d   1      32.784  22.611 -22.984  0.00  0.00     0.181 C 
ENDBRANCH   3  18
BRANCH   4  20
ATOM     20  O   UNL d   1      33.164  19.044 -21.791  0.00  0.00    -0.328 OA
ATOM     21  C   UNL d   1      33.224  18.545 -22.446  0.00  0.00     0.181 C 
ENDBRANCH   4  20
TORSDOF 5
ENDMDL
