MODEL 1
REMARK VINA RESULT:     126.0      0.000      0.000
REMARK  5 active torsions:
REMARK  status: ('A' for Active; 'I' for Inactive)
REMARK    1  A    between atoms: N_2  and  S_1 
REMARK    2  A    between atoms: C_10  and  S_1 
REMARK    3  A    between atoms: C_4  and  N_12 
REMARK    4  A    between atoms: C_8  and  C_17 
REMARK       I    between atoms: N_11  and  C_8 
REMARK    5  A    between atoms: N_12  and  N_11 
ROOT
ATOM      1  C   UNL d   1     -54.952-101.136 -40.587  0.00  0.00     0.104 A 
ATOM      2  C   UNL d   1     -55.011-101.452 -38.973  0.00  0.00     0.059 A 
ATOM      3  C   UNL d   1     -54.777-100.538 -40.045  0.00  0.00     0.013 A 
ATOM      4  C   UNL d   1     -55.155-101.890 -40.320  0.00  0.00     0.013 A 
ATOM      5  C   UNL d   1     -54.810-100.704 -39.246  0.00  0.00     0.006 A 
ATOM      6  C   UNL d   1     -55.184-102.044 -39.510  0.00  0.00     0.006 A 
ENDROOT
BRANCH   2   7
ATOM      7  C   UNL d   1     -55.042-101.612 -38.168  0.00  0.00     0.297 C 
ATOM      8  N   UNL d   1     -55.341-102.352 -37.986  0.00  0.00    -0.104 NA
ATOM      9  O   UNL d   1     -54.758-100.982 -37.704  0.00  0.00    -0.264 OA
BRANCH   8  10
ATOM     10  N   UNL d   1     -55.577-102.854 -38.590  0.00  0.00    -0.118 NA
BRANCH  10  11
ATOM     11  C   UNL d   1     -56.351-102.811 -38.893  0.00  0.00     0.215 A 
ATOM     12  N   UNL d   1     -56.562-102.845 -39.685  0.00  0.00    -0.219 NA
ATOM     13  C   UNL d   1     -57.377-102.784 -39.746  0.00  0.00     0.090 A 
ATOM     14  C   UNL d   1     -57.890-102.784 -40.385  0.00  0.00     0.018 A 
ATOM     15  C   UNL d   1     -57.676-102.711 -38.973  0.00  0.00     0.050 A 
ATOM     16  C   UNL d   1     -58.703-102.711 -40.262  0.00  0.00     0.002 A 
ATOM     17  C   UNL d   1     -57.590-102.857 -41.155  0.00  0.00     0.002 C 
ATOM     18  C   UNL d   1     -58.996-102.639 -39.497  0.00  0.00     0.001 A 
ATOM     19  C   UNL d   1     -58.487-102.637 -38.839  0.00  0.00     0.008 A 
ATOM     20  S   UNL d   1     -57.040-102.728 -38.452  0.00  0.00    -0.045 SA
ENDBRANCH  10  11
ENDBRANCH   8  10
ENDBRANCH   2   7
BRANCH   1  21
ATOM     21  S   UNL d   1     -54.924-100.984 -41.394  0.00  0.00     0.271 S 
ATOM     22  O   UNL d   1     -54.711-101.766 -41.539  0.00  0.00    -0.200 OA
ATOM     23  O   UNL d   1     -55.137-100.200 -41.251  0.00  0.00    -0.200 OA
BRANCH  21  24
ATOM     24  N   UNL d   1     -54.897-100.829 -42.204  0.00  0.00    -0.229 N 
ATOM     25  C   UNL d   1     -54.972-101.448 -42.744  0.00  0.00     0.092 A 
ATOM     26  C   UNL d   1     -54.944-101.293 -43.553  0.00  0.00     0.018 A 
ATOM     27  C   UNL d   1     -55.019-101.912 -44.093  0.00  0.00     0.002 A 
ATOM     28  C   UNL d   1     -54.842-100.521 -43.831  0.00  0.00     0.003 A 
ATOM     29  C   UNL d   1     -54.992-101.757 -44.902  0.00  0.00     0.000 A 
ATOM     30  C   UNL d   1     -54.890-100.982 -45.172  0.00  0.00     0.000 A 
ATOM     31  C   UNL d   1     -54.815-100.367 -44.632  0.00  0.00     0.000 A 
ATOM     32  C   UNL d   1     -54.767 -99.899 -43.284  0.00  0.00     0.020 A 
ATOM     33  C   UNL d   1     -54.795-100.054 -42.474  0.00  0.00     0.092 A 
ENDBRANCH  21  24
ENDBRANCH   1  21
TORSDOF 5
ENDMDL
