MODEL 1
REMARK VINA RESULT:      74.5      0.000      0.000
REMARK  4 active torsions:
REMARK  status: ('A' for Active; 'I' for Inactive)
REMARK    1  A    between atoms: N_2  and  C_9 
REMARK    2  A    between atoms: C_11  and  C_5 
REMARK    3  A    between atoms: C_6  and  C_7 
REMARK       I    between atoms: C_7  and  N_10 
REMARK    4  A    between atoms: N_10  and  C_21 
ROOT
ATOM      1  C   UNL d   1     -50.586  26.439  33.442  0.00  0.00     0.019 A 
ATOM      2  C   UNL d   1     -50.984  27.146  33.606  0.00  0.00     0.003 A 
ATOM      3  C   UNL d   1     -49.773  26.437  33.306  0.00  0.00     0.003 A 
ATOM      4  C   UNL d   1     -49.746  27.854  33.495  0.00  0.00     0.085 A 
ATOM      5  C   UNL d   1     -49.357  27.147  33.333  0.00  0.00     0.019 A 
ATOM      6  C   UNL d   1     -50.560  27.852  33.632  0.00  0.00     0.019 A 
ENDROOT
BRANCH   4   7
ATOM      7  N   UNL d   1     -49.327  28.567  33.523  0.00  0.00    -0.208 NA
ATOM      8  C   UNL d   1     -48.993  28.823  34.236  0.00  0.00     0.281 C 
ATOM      9  O   UNL d   1     -48.575  29.536  34.258  0.00  0.00    -0.265 OA
BRANCH   8  10
ATOM     10  C   UNL d   1     -49.080  28.367  34.919  0.00  0.00     0.080 A 
ATOM     11  C   UNL d   1     -48.579  28.496  35.558  0.00  0.00     0.131 A 
ATOM     12  C   UNL d   1     -48.668  28.039  36.239  0.00  0.00     0.024 A 
ATOM     13  C   UNL d   1     -49.249  27.462  36.277  0.00  0.00     0.002 A 
ATOM     14  C   UNL d   1     -49.750  27.335  35.634  0.00  0.00     0.000 A 
ATOM     15  C   UNL d   1     -49.663  27.791  34.952  0.00  0.00     0.006 A 
BRANCH  11  16
ATOM     16  N   UNL d   1     -47.990  29.081  35.516  0.00  0.00    -0.114 N 
ATOM     17  O   UNL d   1     -48.123  29.827  35.840  0.00  0.00    -0.532 OA
ATOM     18  O   UNL d   1     -47.270  28.917  35.150  0.00  0.00    -0.532 OA
ENDBRANCH  11  16
ENDBRANCH   8  10
ENDBRANCH   4   7
BRANCH   1  19
ATOM     19  C   UNL d   1     -51.006  25.726  33.415  0.00  0.00     0.101 A 
ATOM     20  N   UNL d   1     -51.820  25.640  33.365  0.00  0.00    -0.227 NA
ATOM     21  C   UNL d   1     -51.993  24.839  33.352  0.00  0.00     0.148 A 
ATOM     22  N   UNL d   1     -51.282  24.427  33.395  0.00  0.00    -0.288 N 
ATOM     23  C   UNL d   1     -52.707  24.427  33.308  0.00  0.00     0.037 A 
ATOM     24  C   UNL d   1     -51.283  23.604  33.394  0.00  0.00     0.082 A 
ATOM     25  C   UNL d   1     -50.675  24.974  33.434  0.00  0.00     0.101 A 
ATOM     26  C   UNL d   1     -51.997  23.192  33.349  0.00  0.00     0.019 A 
ATOM     27  C   UNL d   1     -52.709  23.603  33.306  0.00  0.00     0.005 A 
ENDBRANCH   1  19
TORSDOF 4
ENDMDL
