MODEL 1
REMARK VINA RESULT:     -14.4      0.000      0.000
REMARK  1 active torsions:
REMARK  status: ('A' for Active; 'I' for Inactive)
REMARK    1  A    between atoms: C_2  and  C_1 
REMARK       I    between atoms: N_3  and  C_2 
ROOT
ATOM      1  C   UNL d   1      53.616  31.833  53.724  0.00  0.00     0.248 C 
ATOM      2  N   UNL d   1      52.974  32.197  53.344  0.00  0.00    -0.278 N 
ATOM      3  C   UNL d   1      52.479  31.754  53.006  0.00  0.00     0.067 A 
ATOM      4  C   UNL d   1      52.935  32.907  53.365  0.00  0.00     0.067 A 
ATOM      5  C   UNL d   1      52.292  33.232  52.982  0.00  0.00     0.018 A 
ATOM      6  C   UNL d   1      51.893  32.050  52.657  0.00  0.00     0.019 A 
ATOM      7  O   UNL d   1      53.557  31.004  53.634  0.00  0.00    -0.271 OA
ATOM      8  C   UNL d   1      52.579  31.016  53.022  0.00  0.00     0.019 C 
ATOM      9  C   UNL d   1      53.485  33.393  53.740  0.00  0.00     0.018 A 
ATOM     10  C   UNL d   1      52.188  34.045  52.968  0.00  0.00     0.002 A 
ATOM     11  C   UNL d   1      53.383  34.212  53.728  0.00  0.00     0.002 A 
ATOM     12  C   UNL d   1      52.732  34.536  53.340  0.00  0.00     0.000 A 
ENDROOT
BRANCH   1  13
ATOM     13  C   UNL d   1      54.080  32.407  54.051  0.00  0.00     0.112 A 
ATOM     14  C   UNL d   1      55.013  33.467  54.218  0.00  0.00     0.025 A 
ATOM     15  C   UNL d   1      54.480  32.957  54.619  0.00  0.00     0.074 A 
ATOM     16  C   UNL d   1      55.110  33.415  53.389  0.00  0.00     0.002 C 
ATOM     17  C   UNL d   1      55.338  33.941  54.819  0.00  0.00     0.002 C 
ATOM     18  C   UNL d   1      54.811  33.437  55.219  0.00  0.00     0.012 C 
ATOM     19  C   UNL d   1      54.285  32.602  53.888  0.00  0.00    -0.023 A 
ATOM     20  C   UNL d   1      54.383  33.007  55.435  0.00  0.00     0.172 A 
ATOM     21  C   UNL d   1      53.848  32.035  53.447  0.00  0.00    -0.018 A 
ATOM     22  C   UNL d   1      53.947  32.442  54.995  0.00  0.00     0.024 A 
ATOM     23  O   UNL d   1      54.582  33.367  56.165  0.00  0.00    -0.291 OA
ENDBRANCH   1  13
TORSDOF 1
ENDMDL
MODEL 2
REMARK VINA RESULT:     -13.4      1.294      2.627
REMARK  1 active torsions:
REMARK  status: ('A' for Active; 'I' for Inactive)
REMARK    1  A    between atoms: C_2  and  C_1 
REMARK       I    between atoms: N_3  and  C_2 
ROOT
ATOM      1  C   UNL d   1      52.611  32.078  52.932  0.00  0.00     0.248 C 
ATOM      2  N   UNL d   1      53.179  32.015  53.534  0.00  0.00    -0.278 N 
ATOM      3  C   UNL d   1      53.526  31.361  53.611  0.00  0.00     0.067 A 
ATOM      4  C   UNL d   1      53.298  32.588  53.939  0.00  0.00     0.067 A 
ATOM      5  C   UNL d   1      53.862  32.491  54.521  0.00  0.00     0.018 A 
ATOM      6  C   UNL d   1      54.040  31.273  54.141  0.00  0.00     0.019 A 
ATOM      7  O   UNL d   1      52.556  31.350  52.525  0.00  0.00    -0.271 OA
ATOM      8  C   UNL d   1      53.353  30.800  53.152  0.00  0.00     0.019 C 
ATOM      9  C   UNL d   1      52.911  33.310  53.851  0.00  0.00     0.018 A 
ATOM     10  C   UNL d   1      54.048  33.113  55.023  0.00  0.00     0.002 A 
ATOM     11  C   UNL d   1      53.095  33.938  54.354  0.00  0.00     0.002 A 
ATOM     12  C   UNL d   1      53.665  33.836  54.940  0.00  0.00     0.000 A 
ENDROOT
BRANCH   1  13
ATOM     13  C   UNL d   1      52.305  32.825  52.945  0.00  0.00     0.112 A 
ATOM     14  C   UNL d   1      52.157  34.235  52.825  0.00  0.00     0.025 A 
ATOM     15  C   UNL d   1      51.768  33.524  53.041  0.00  0.00     0.074 A 
ATOM     16  C   UNL d   1      52.950  34.222  52.560  0.00  0.00     0.002 C 
ATOM     17  C   UNL d   1      51.588  34.828  52.945  0.00  0.00     0.002 C 
ATOM     18  C   UNL d   1      51.199  34.125  53.160  0.00  0.00     0.012 C 
ATOM     19  C   UNL d   1      52.463  33.097  52.859  0.00  0.00    -0.023 A 
ATOM     20  C   UNL d   1      50.987  33.535  53.302  0.00  0.00     0.172 A 
ATOM     21  C   UNL d   1      52.878  32.369  52.807  0.00  0.00    -0.018 A 
ATOM     22  C   UNL d   1      51.401  32.807  53.251  0.00  0.00     0.024 A 
ATOM     23  O   UNL d   1      50.292  33.966  53.484  0.00  0.00    -0.291 OA
ENDBRANCH   1  13
TORSDOF 1
ENDMDL
MODEL 3
REMARK VINA RESULT:     -13.3      1.288      2.694
REMARK  1 active torsions:
REMARK  status: ('A' for Active; 'I' for Inactive)
REMARK    1  A    between atoms: C_2  and  C_1 
REMARK       I    between atoms: N_3  and  C_2 
ROOT
ATOM      1  C   UNL d   1      52.563  33.183  52.906  0.00  0.00     0.248 C 
ATOM      2  N   UNL d   1      52.783  33.683  53.531  0.00  0.00    -0.278 N 
ATOM      3  C   UNL d   1      52.525  34.381  53.520  0.00  0.00     0.067 A 
ATOM      4  C   UNL d   1      53.204  33.414  54.038  0.00  0.00     0.067 A 
ATOM      5  C   UNL d   1      53.401  33.931  54.637  0.00  0.00     0.018 A 
ATOM      6  C   UNL d   1      52.704  34.852  54.066  0.00  0.00     0.019 A 
ATOM      7  O   UNL d   1      52.073  33.604  52.375  0.00  0.00    -0.271 OA
ATOM      8  C   UNL d   1      52.087  34.599  52.958  0.00  0.00     0.019 C 
ATOM      9  C   UNL d   1      53.489  32.640  54.046  0.00  0.00     0.018 A 
ATOM     10  C   UNL d   1      53.884  33.686  55.253  0.00  0.00     0.002 A 
ATOM     11  C   UNL d   1      53.974  32.389  54.665  0.00  0.00     0.002 A 
ATOM     12  C   UNL d   1      54.171  32.915  55.268  0.00  0.00     0.000 A 
ENDROOT
BRANCH   1  13
ATOM     13  C   UNL d   1      52.900  32.459  53.025  0.00  0.00     0.112 A 
ATOM     14  C   UNL d   1      53.851  31.412  53.175  0.00  0.00     0.025 A 
ATOM     15  C   UNL d   1      53.032  31.596  53.179  0.00  0.00     0.074 A 
ATOM     16  C   UNL d   1      54.421  32.008  53.039  0.00  0.00     0.002 C 
ATOM     17  C   UNL d   1      53.880  30.595  53.326  0.00  0.00     0.002 C 
ATOM     18  C   UNL d   1      53.068  30.775  53.329  0.00  0.00     0.012 C 
ATOM     19  C   UNL d   1      53.220  32.395  53.022  0.00  0.00    -0.023 A 
ATOM     20  C   UNL d   1      52.469  31.011  53.313  0.00  0.00     0.172 A 
ATOM     21  C   UNL d   1      52.977  33.188  52.886  0.00  0.00    -0.018 A 
ATOM     22  C   UNL d   1      52.226  31.802  53.177  0.00  0.00     0.024 A 
ATOM     23  O   UNL d   1      52.285  30.208  53.470  0.00  0.00    -0.291 OA
ENDBRANCH   1  13
TORSDOF 1
ENDMDL
MODEL 4
REMARK VINA RESULT:     -13.2      1.400      3.290
REMARK  1 active torsions:
REMARK  status: ('A' for Active; 'I' for Inactive)
REMARK    1  A    between atoms: C_2  and  C_1 
REMARK       I    between atoms: N_3  and  C_2 
ROOT
ATOM      1  C   UNL d   1      52.957  34.455  54.239  0.00  0.00     0.248 C 
ATOM      2  N   UNL d   1      53.367  33.741  54.342  0.00  0.00    -0.278 N 
ATOM      3  C   UNL d   1      53.867  33.708  54.893  0.00  0.00     0.067 A 
ATOM      4  C   UNL d   1      53.216  33.205  53.899  0.00  0.00     0.067 A 
ATOM      5  C   UNL d   1      53.637  32.518  54.028  0.00  0.00     0.018 A 
ATOM      6  C   UNL d   1      54.250  33.082  55.011  0.00  0.00     0.019 A 
ATOM      7  O   UNL d   1      53.214  35.007  54.811  0.00  0.00    -0.271 OA
ATOM      8  C   UNL d   1      53.977  34.308  55.322  0.00  0.00     0.019 C 
ATOM      9  C   UNL d   1      52.662  33.245  53.290  0.00  0.00     0.018 A 
ATOM     10  C   UNL d   1      53.511  31.861  53.553  0.00  0.00     0.002 A 
ATOM     11  C   UNL d   1      52.533  32.586  52.810  0.00  0.00     0.002 A 
ATOM     12  C   UNL d   1      52.960  31.895  52.944  0.00  0.00     0.000 A 
ENDROOT
BRANCH   1  13
ATOM     13  C   UNL d   1      52.447  34.371  53.619  0.00  0.00     0.112 A 
ATOM     14  C   UNL d   1      51.915  34.258  52.304  0.00  0.00     0.025 A 
ATOM     15  C   UNL d   1      51.721  34.268  53.120  0.00  0.00     0.074 A 
ATOM     16  C   UNL d   1      52.709  34.339  52.054  0.00  0.00     0.002 C 
ATOM     17  C   UNL d   1      51.185  34.158  51.919  0.00  0.00     0.002 C 
ATOM     18  C   UNL d   1      50.990  34.168  52.728  0.00  0.00     0.012 C 
ATOM     19  C   UNL d   1      52.531  34.368  53.303  0.00  0.00    -0.023 A 
ATOM     20  C   UNL d   1      50.940  34.187  53.369  0.00  0.00     0.172 A 
ATOM     21  C   UNL d   1      53.143  34.462  53.870  0.00  0.00    -0.018 A 
ATOM     22  C   UNL d   1      51.552  34.281  53.935  0.00  0.00     0.024 A 
ATOM     23  O   UNL d   1      50.130  34.086  53.181  0.00  0.00    -0.291 OA
ENDBRANCH   1  13
TORSDOF 1
ENDMDL
