MODEL 1
REMARK VINA RESULT:      66.2      0.000      0.000
REMARK  7 active torsions:
REMARK  status: ('A' for Active; 'I' for Inactive)
REMARK    1  A    between atoms: N_3  and  C_1 
REMARK       I    between atoms: C_8  and  N_3 
REMARK    2  A    between atoms: C_12  and  N_3 
REMARK    3  A    between atoms: S_5  and  C_11 
REMARK    4  A    between atoms: C_16  and  S_5 
REMARK    5  A    between atoms: C_9  and  C_8 
REMARK    6  A    between atoms: C_11  and  C_9 
REMARK    7  A    between atoms: C_21  and  C_12 
ROOT
ATOM      1  N   UNL d   1      13.814  13.907  -3.450  0.00  0.00    -0.253 N 
ATOM      2  C   UNL d   1      14.268  14.596  -3.597  0.00  0.00     0.267 C 
ATOM      3  O   UNL d   1      14.876  14.798  -3.082  0.00  0.00    -0.267 OA
ENDROOT
BRANCH   1   4
ATOM      4  C   UNL d   1      13.983  13.441  -2.791  0.00  0.00     0.182 A 
ATOM      5  N   UNL d   1      14.719  13.373  -2.413  0.00  0.00    -0.222 NA
ATOM      6  C   UNL d   1      14.644  12.846  -1.774  0.00  0.00     0.089 A 
ATOM      7  C   UNL d   1      15.179  12.582  -1.227  0.00  0.00     0.020 A 
ATOM      8  C   UNL d   1      13.858  12.589  -1.761  0.00  0.00     0.050 A 
ATOM      9  C   UNL d   1      14.943  12.059  -0.657  0.00  0.00     0.002 A 
ATOM     10  C   UNL d   1      15.491  11.787  -0.095  0.00  0.00     0.000 C 
ATOM     11  C   UNL d   1      14.163  11.797  -0.635  0.00  0.00     0.001 A 
ATOM     12  C   UNL d   1      13.620  12.061  -1.185  0.00  0.00     0.007 A 
ATOM     13  C   UNL d   1      12.840  11.807  -1.174  0.00  0.00     0.001 C 
ATOM     14  S   UNL d   1      13.453  12.952  -2.382  0.00  0.00    -0.048 SA
ENDBRANCH   1   4
BRANCH   1  15
ATOM     15  C   UNL d   1      13.203  13.698  -3.961  0.00  0.00     0.086 C 
BRANCH  15  16
ATOM     16  C   UNL d   1      13.296  13.061  -4.477  0.00  0.00     0.037 A 
ATOM     17  C   UNL d   1      13.903  13.065  -5.033  0.00  0.00     0.100 A 
ATOM     18  N   UNL d   1      13.996  12.428  -5.549  0.00  0.00    -0.242 NA
ATOM     19  C   UNL d   1      13.482  11.787  -5.508  0.00  0.00     0.099 A 
ATOM     20  C   UNL d   1      12.871  11.780  -4.951  0.00  0.00     0.021 A 
ATOM     21  C   UNL d   1      12.778  12.417  -4.435  0.00  0.00     0.005 A 
ENDBRANCH  15  16
ENDBRANCH   1  15
BRANCH   2  22
ATOM     22  C   UNL d   1      14.098  15.058  -4.252  0.00  0.00     0.073 C 
BRANCH  22  23
ATOM     23  C   UNL d   1      14.549  15.739  -4.400  0.00  0.00     0.104 C 
BRANCH  23  24
ATOM     24  S   UNL d   1      14.252  16.331  -4.896  0.00  0.00     0.211 S 
ATOM     25  O   UNL d   1      14.411  15.853  -5.566  0.00  0.00    -0.217 OA
ATOM     26  O   UNL d   1      14.093  16.806  -4.231  0.00  0.00    -0.217 OA
BRANCH  24  27
ATOM     27  C   UNL d   1      13.954  16.923  -5.396  0.00  0.00     0.088 A 
ATOM     28  C   UNL d   1      14.370  17.631  -5.485  0.00  0.00     0.011 A 
ATOM     29  C   UNL d   1      14.079  18.221  -5.979  0.00  0.00     0.001 A 
ATOM     30  C   UNL d   1      13.372  18.104  -6.385  0.00  0.00     0.000 A 
ATOM     31  C   UNL d   1      12.958  17.406  -6.300  0.00  0.00     0.001 A 
ATOM     32  C   UNL d   1      13.246  16.808  -5.804  0.00  0.00     0.011 A 
ENDBRANCH  24  27
ENDBRANCH  23  24
ENDBRANCH  22  23
ENDBRANCH   2  22
TORSDOF 7
ENDMDL
