MODEL 1
REMARK VINA RESULT:      -7.1      0.000      0.000
REMARK  4 active torsions:
REMARK  status: ('A' for Active; 'I' for Inactive)
REMARK    1  A    between atoms: N_2  and  C_1 
REMARK    2  A    between atoms: C_4  and  C_1 
REMARK    3  A    between atoms: C_6  and  N_2 
REMARK    4  A    between atoms: O_12  and  C_7 
ROOT
ATOM      1  N   UNL d   1     -47.931  14.183  22.955  0.00  0.00    -0.235 NA
ENDROOT
BRANCH   1   2
ATOM      2  C   UNL d   1     -48.550  14.050  22.425  0.00  0.00     0.136 C 
ATOM      3  S   UNL d   1     -48.474  13.488  21.820  0.00  0.00    -0.057 SA
BRANCH   2   4
ATOM      4  C   UNL d   1     -49.258  14.483  22.497  0.00  0.00     0.031 A 
ATOM      5  C   UNL d   1     -49.256  15.218  22.893  0.00  0.00     0.023 A 
ATOM      6  C   UNL d   1     -49.956  15.649  22.966  0.00  0.00     0.099 A 
ATOM      7  N   UNL d   1     -50.657  15.346  22.644  0.00  0.00    -0.242 NA
ATOM      8  C   UNL d   1     -50.658  14.617  22.252  0.00  0.00     0.099 A 
ATOM      9  C   UNL d   1     -49.959  14.185  22.179  0.00  0.00     0.023 A 
ENDBRANCH   2   4
ENDBRANCH   1   2
BRANCH   1  10
ATOM     10  C   UNL d   1     -47.356  13.603  23.060  0.00  0.00     0.082 A 
ATOM     11  C   UNL d   1     -46.616  13.699  22.703  0.00  0.00     0.021 A 
ATOM     12  C   UNL d   1     -46.034  13.119  22.804  0.00  0.00     0.026 A 
ATOM     13  C   UNL d   1     -46.192  12.450  23.259  0.00  0.00     0.094 A 
ATOM     14  C   UNL d   1     -46.937  12.360  23.616  0.00  0.00     0.026 A 
ATOM     15  C   UNL d   1     -47.515  12.937  23.514  0.00  0.00     0.021 A 
BRANCH  13  16
ATOM     16  O   UNL d   1     -45.610  11.873  23.359  0.00  0.00    -0.328 OA
ATOM     17  C   UNL d   1     -45.823  11.103  23.570  0.00  0.00     0.181 C 
ENDBRANCH  13  16
ENDBRANCH   1  10
TORSDOF 4
ENDMDL
MODEL 2
REMARK VINA RESULT:      -7.1      1.630      1.920
REMARK  4 active torsions:
REMARK  status: ('A' for Active; 'I' for Inactive)
REMARK    1  A    between atoms: N_2  and  C_1 
REMARK    2  A    between atoms: C_4  and  C_1 
REMARK    3  A    between atoms: C_6  and  N_2 
REMARK    4  A    between atoms: O_12  and  C_7 
ROOT
ATOM      1  N   UNL d   1     -48.214  13.161  23.385  0.00  0.00    -0.235 NA
ENDROOT
BRANCH   1   2
ATOM      2  C   UNL d   1     -48.792  12.904  22.854  0.00  0.00     0.136 C 
ATOM      3  S   UNL d   1     -48.621  12.832  22.045  0.00  0.00    -0.057 SA
BRANCH   2   4
ATOM      4  C   UNL d   1     -49.553  12.713  23.131  0.00  0.00     0.031 A 
ATOM      5  C   UNL d   1     -50.091  13.323  23.322  0.00  0.00     0.023 A 
ATOM      6  C   UNL d   1     -50.846  13.137  23.596  0.00  0.00     0.099 A 
ATOM      7  N   UNL d   1     -51.064  12.342  23.681  0.00  0.00    -0.242 NA
ATOM      8  C   UNL d   1     -50.532  11.738  23.492  0.00  0.00     0.099 A 
ATOM      9  C   UNL d   1     -49.776  11.923  23.217  0.00  0.00     0.023 A 
ENDBRANCH   2   4
ENDBRANCH   1   2
BRANCH   1  10
ATOM     10  C   UNL d   1     -47.439  13.263  23.122  0.00  0.00     0.082 A 
ATOM     11  C   UNL d   1     -47.200  14.007  22.852  0.00  0.00     0.021 A 
ATOM     12  C   UNL d   1     -46.423  14.115  22.586  0.00  0.00     0.026 A 
ATOM     13  C   UNL d   1     -45.892  13.484  22.593  0.00  0.00     0.094 A 
ATOM     14  C   UNL d   1     -46.140  12.739  22.866  0.00  0.00     0.026 A 
ATOM     15  C   UNL d   1     -46.913  12.633  23.129  0.00  0.00     0.021 A 
BRANCH  13  16
ATOM     16  O   UNL d   1     -45.119  13.594  22.328  0.00  0.00    -0.328 OA
ATOM     17  C   UNL d   1     -44.763  13.027  21.842  0.00  0.00     0.181 C 
ENDBRANCH  13  16
ENDBRANCH   1  10
TORSDOF 4
ENDMDL
MODEL 3
REMARK VINA RESULT:      -6.7      1.874      4.165
REMARK  4 active torsions:
REMARK  status: ('A' for Active; 'I' for Inactive)
REMARK    1  A    between atoms: N_2  and  C_1 
REMARK    2  A    between atoms: C_4  and  C_1 
REMARK    3  A    between atoms: C_6  and  N_2 
REMARK    4  A    between atoms: O_12  and  C_7 
ROOT
ATOM      1  N   UNL d   1     -48.181  13.763  22.533  0.00  0.00    -0.235 NA
ENDROOT
BRANCH   1   2
ATOM      2  C   UNL d   1     -48.096  13.069  22.973  0.00  0.00     0.136 C 
ATOM      3  S   UNL d   1     -48.759  12.691  23.297  0.00  0.00    -0.057 SA
BRANCH   2   4
ATOM      4  C   UNL d   1     -47.339  12.745  23.092  0.00  0.00     0.031 A 
ATOM      5  C   UNL d   1     -47.247  12.072  23.578  0.00  0.00     0.023 A 
ATOM      6  C   UNL d   1     -46.498  11.748  23.698  0.00  0.00     0.099 A 
ATOM      7  N   UNL d   1     -45.840  12.097  23.334  0.00  0.00    -0.242 NA
ATOM      8  C   UNL d   1     -45.931  12.764  22.853  0.00  0.00     0.099 A 
ATOM      9  C   UNL d   1     -46.680  13.089  22.732  0.00  0.00     0.023 A 
ENDBRANCH   2   4
ENDBRANCH   1   2
BRANCH   1  10
ATOM     10  C   UNL d   1     -48.850  14.232  22.642  0.00  0.00     0.082 A 
ATOM     11  C   UNL d   1     -49.512  14.107  22.161  0.00  0.00     0.021 A 
ATOM     12  C   UNL d   1     -50.188  14.574  22.265  0.00  0.00     0.026 A 
ATOM     13  C   UNL d   1     -50.199  15.161  22.845  0.00  0.00     0.094 A 
ATOM     14  C   UNL d   1     -49.531  15.281  23.324  0.00  0.00     0.026 A 
ATOM     15  C   UNL d   1     -48.860  14.816  23.220  0.00  0.00     0.021 A 
BRANCH  13  16
ATOM     16  O   UNL d   1     -50.873  15.625  22.947  0.00  0.00    -0.328 OA
ATOM     17  C   UNL d   1     -51.064  15.919  23.696  0.00  0.00     0.181 C 
ENDBRANCH  13  16
ENDBRANCH   1  10
TORSDOF 4
ENDMDL
MODEL 4
REMARK VINA RESULT:      -5.4      8.748      9.330
REMARK  4 active torsions:
REMARK  status: ('A' for Active; 'I' for Inactive)
REMARK    1  A    between atoms: N_2  and  C_1 
REMARK    2  A    between atoms: C_4  and  C_1 
REMARK    3  A    between atoms: C_6  and  N_2 
REMARK    4  A    between atoms: O_12  and  C_7 
ROOT
ATOM      1  N   UNL d   1     -39.631  14.980  19.899  0.00  0.00    -0.235 NA
ENDROOT
BRANCH   1   2
ATOM      2  C   UNL d   1     -40.059  14.850  20.593  0.00  0.00     0.136 C 
ATOM      3  S   UNL d   1     -40.883  14.758  20.570  0.00  0.00    -0.057 SA
BRANCH   2   4
ATOM      4  C   UNL d   1     -39.662  14.809  21.324  0.00  0.00     0.031 A 
ATOM      5  C   UNL d   1     -39.494  15.510  21.745  0.00  0.00     0.023 A 
ATOM      6  C   UNL d   1     -39.101  15.473  22.469  0.00  0.00     0.099 A 
ATOM      7  N   UNL d   1     -38.875  14.735  22.772  0.00  0.00    -0.242 NA
ATOM      8  C   UNL d   1     -39.041  14.041  22.355  0.00  0.00     0.099 A 
ATOM      9  C   UNL d   1     -39.435  14.077  21.631  0.00  0.00     0.023 A 
ENDBRANCH   2   4
ENDBRANCH   1   2
BRANCH   1  10
ATOM     10  C   UNL d   1     -40.027  15.006  19.177  0.00  0.00     0.082 A 
ATOM     11  C   UNL d   1     -40.100  14.313  18.733  0.00  0.00     0.021 A 
ATOM     12  C   UNL d   1     -40.497  14.332  18.006  0.00  0.00     0.026 A 
ATOM     13  C   UNL d   1     -40.818  15.040  17.729  0.00  0.00     0.094 A 
ATOM     14  C   UNL d   1     -40.741  15.733  18.182  0.00  0.00     0.026 A 
ATOM     15  C   UNL d   1     -40.346  15.712  18.904  0.00  0.00     0.021 A 
BRANCH  13  16
ATOM     16  O   UNL d   1     -41.214  15.057  17.006  0.00  0.00    -0.328 OA
ATOM     17  C   UNL d   1     -41.350  15.779  16.626  0.00  0.00     0.181 C 
ENDBRANCH  13  16
ENDBRANCH   1  10
TORSDOF 4
ENDMDL
