MODEL 1
REMARK VINA RESULT:      55.8      0.000      0.000
REMARK  6 active torsions:
REMARK  status: ('A' for Active; 'I' for Inactive)
REMARK    1  A    between atoms: C_2  and  S_1 
REMARK    2  A    between atoms: N_3  and  S_1 
REMARK    3  A    between atoms: C_9  and  N_3 
REMARK    4  A    between atoms: C_13  and  C_7 
REMARK    5  A    between atoms: O_14  and  C_8 
REMARK    6  A    between atoms: C_20  and  O_14 
ROOT
ATOM      1  C   UNL d   1     -50.850  26.305  34.017  0.00  0.00     0.128 A 
ATOM      2  C   UNL d   1     -50.986  27.120  33.999  0.00  0.00     0.015 A 
ATOM      3  C   UNL d   1     -50.421  27.627  33.676  0.00  0.00     0.001 A 
ATOM      4  C   UNL d   1     -50.150  26.005  33.711  0.00  0.00     0.112 A 
ATOM      5  C   UNL d   1     -49.720  27.318  33.370  0.00  0.00     0.002 A 
ATOM      6  C   UNL d   1     -49.584  26.503  33.388  0.00  0.00     0.025 A 
ENDROOT
BRANCH   1   7
ATOM      7  S   UNL d   1     -51.417  25.807  34.340  0.00  0.00     0.287 S 
ATOM      8  O   UNL d   1     -51.540  25.456  33.612  0.00  0.00    -0.198 OA
ATOM      9  O   UNL d   1     -51.296  26.158  35.076  0.00  0.00    -0.198 OA
BRANCH   7  10
ATOM     10  N   UNL d   1     -51.985  25.309  34.672  0.00  0.00    -0.157 NA
BRANCH  10  11
ATOM     11  C   UNL d   1     -52.321  24.709  34.216  0.00  0.00     0.113 A 
ATOM     12  C   UNL d   1     -52.989  24.858  33.768  0.00  0.00     0.119 A 
ATOM     13  N   UNL d   1     -53.324  24.258  33.313  0.00  0.00    -0.241 NA
ATOM     14  C   UNL d   1     -52.985  23.499  33.307  0.00  0.00     0.099 A 
ATOM     15  C   UNL d   1     -52.309  23.355  33.762  0.00  0.00     0.022 A 
ATOM     16  C   UNL d   1     -51.974  23.955  34.217  0.00  0.00     0.023 A 
ENDBRANCH  10  11
ENDBRANCH   7  10
ENDBRANCH   1   7
BRANCH   4  17
ATOM     17  O   UNL d   1     -50.014  25.189  33.729  0.00  0.00    -0.304 OA
BRANCH  17  18
ATOM     18  C   UNL d   1     -49.374  24.869  33.318  0.00  0.00     0.123 C 
ATOM     19  C   UNL d   1     -49.218  24.058  33.364  0.00  0.00     0.029 C 
ENDBRANCH  17  18
ENDBRANCH   4  17
BRANCH   3  20
ATOM     20  C   UNL d   1     -50.558  28.443  33.659  0.00  0.00     0.000 C 
ATOM     21  C   UNL d   1     -50.002  28.947  33.316  0.00  0.00     0.000 C 
ATOM     22  C   UNL d   1     -51.256  28.752  33.988  0.00  0.00     0.000 C 
ENDBRANCH   3  20
TORSDOF 6
ENDMDL
MODEL 2
REMARK VINA RESULT:      55.9      5.108      7.094
REMARK  6 active torsions:
REMARK  status: ('A' for Active; 'I' for Inactive)
REMARK    1  A    between atoms: C_2  and  S_1 
REMARK    2  A    between atoms: N_3  and  S_1 
REMARK    3  A    between atoms: C_9  and  N_3 
REMARK    4  A    between atoms: C_13  and  C_7 
REMARK    5  A    between atoms: O_14  and  C_8 
REMARK    6  A    between atoms: C_20  and  O_14 
ROOT
ATOM      1  C   UNL d   1     -47.532  30.407  35.423  0.00  0.00     0.128 A 
ATOM      2  C   UNL d   1     -48.024  30.019  34.885  0.00  0.00     0.015 A 
ATOM      3  C   UNL d   1     -48.237  29.232  35.012  0.00  0.00     0.001 A 
ATOM      4  C   UNL d   1     -47.257  30.005  36.084  0.00  0.00     0.112 A 
ATOM      5  C   UNL d   1     -47.956  28.834  35.678  0.00  0.00     0.002 A 
ATOM      6  C   UNL d   1     -47.465  29.222  36.217  0.00  0.00     0.025 A 
ENDROOT
BRANCH   1   7
ATOM      7  S   UNL d   1     -47.325  31.190  35.290  0.00  0.00     0.287 S 
ATOM      8  O   UNL d   1     -46.714  30.957  34.799  0.00  0.00    -0.198 OA
ATOM      9  O   UNL d   1     -47.940  31.430  35.785  0.00  0.00    -0.198 OA
BRANCH   7  10
ATOM     10  N   UNL d   1     -47.122  31.980  35.161  0.00  0.00    -0.157 NA
BRANCH  10  11
ATOM     11  C   UNL d   1     -47.478  32.399  34.546  0.00  0.00     0.113 A 
ATOM     12  C   UNL d   1     -48.284  32.534  34.554  0.00  0.00     0.119 A 
ATOM     13  N   UNL d   1     -48.639  32.953  33.939  0.00  0.00    -0.241 NA
ATOM     14  C   UNL d   1     -48.179  33.240  33.308  0.00  0.00     0.099 A 
ATOM     15  C   UNL d   1     -47.364  33.100  33.307  0.00  0.00     0.022 A 
ATOM     16  C   UNL d   1     -47.009  32.681  33.922  0.00  0.00     0.023 A 
ENDBRANCH  10  11
ENDBRANCH   7  10
ENDBRANCH   1   7
BRANCH   4  17
ATOM     17  O   UNL d   1     -46.765  30.394  36.623  0.00  0.00    -0.304 OA
BRANCH  17  18
ATOM     18  C   UNL d   1     -46.527  30.012  37.314  0.00  0.00     0.123 C 
ATOM     19  C   UNL d   1     -45.998  30.383  37.831  0.00  0.00     0.029 C 
ENDBRANCH  17  18
ENDBRANCH   4  17
BRANCH   3  20
ATOM     20  C   UNL d   1     -48.729  28.843  34.473  0.00  0.00     0.000 C 
ATOM     21  C   UNL d   1     -48.707  28.021  34.413  0.00  0.00     0.000 C 
ATOM     22  C   UNL d   1     -49.246  29.284  33.993  0.00  0.00     0.000 C 
ENDBRANCH   3  20
TORSDOF 6
ENDMDL
MODEL 3
REMARK VINA RESULT:      56.4      1.619      2.391
REMARK  6 active torsions:
REMARK  status: ('A' for Active; 'I' for Inactive)
REMARK    1  A    between atoms: C_2  and  S_1 
REMARK    2  A    between atoms: N_3  and  S_1 
REMARK    3  A    between atoms: C_9  and  N_3 
REMARK    4  A    between atoms: C_13  and  C_7 
REMARK    5  A    between atoms: O_14  and  C_8 
REMARK    6  A    between atoms: C_20  and  O_14 
ROOT
ATOM      1  C   UNL d   1     -51.294  26.219  34.699  0.00  0.00     0.128 A 
ATOM      2  C   UNL d   1     -51.654  26.074  35.428  0.00  0.00     0.015 A 
ATOM      3  C   UNL d   1     -51.358  26.426  36.113  0.00  0.00     0.001 A 
ATOM      4  C   UNL d   1     -50.640  26.714  34.661  0.00  0.00     0.112 A 
ATOM      5  C   UNL d   1     -50.701  26.923  36.068  0.00  0.00     0.002 A 
ATOM      6  C   UNL d   1     -50.340  27.068  35.339  0.00  0.00     0.025 A 
ENDROOT
BRANCH   1   7
ATOM      7  S   UNL d   1     -51.594  25.866  34.021  0.00  0.00     0.287 S 
ATOM      8  O   UNL d   1     -52.279  26.307  34.081  0.00  0.00    -0.198 OA
ATOM      9  O   UNL d   1     -50.903  25.419  33.957  0.00  0.00    -0.198 OA
BRANCH   7  10
ATOM     10  N   UNL d   1     -51.889  25.506  33.339  0.00  0.00    -0.157 NA
BRANCH  10  11
ATOM     11  C   UNL d   1     -52.176  24.734  33.375  0.00  0.00     0.113 A 
ATOM     12  C   UNL d   1     -51.662  24.101  33.308  0.00  0.00     0.119 A 
ATOM     13  N   UNL d   1     -51.950  23.329  33.344  0.00  0.00    -0.241 NA
ATOM     14  C   UNL d   1     -52.763  23.190  33.448  0.00  0.00     0.099 A 
ATOM     15  C   UNL d   1     -53.277  23.835  33.514  0.00  0.00     0.022 A 
ATOM     16  C   UNL d   1     -52.989  24.607  33.479  0.00  0.00     0.023 A 
ENDBRANCH  10  11
ENDBRANCH   7  10
ENDBRANCH   1   7
BRANCH   4  17
ATOM     17  O   UNL d   1     -50.279  26.859  33.932  0.00  0.00    -0.304 OA
BRANCH  17  18
ATOM     18  C   UNL d   1     -49.501  27.131  33.903  0.00  0.00     0.123 C 
ATOM     19  C   UNL d   1     -49.301  27.762  33.406  0.00  0.00     0.029 C 
ENDBRANCH  17  18
ENDBRANCH   4  17
BRANCH   3  20
ATOM     20  C   UNL d   1     -51.719  26.281  36.843  0.00  0.00     0.000 C 
ATOM     21  C   UNL d   1     -52.389  25.801  36.884  0.00  0.00     0.000 C 
ATOM     22  C   UNL d   1     -51.405  26.621  37.534  0.00  0.00     0.000 C 
ENDBRANCH   3  20
TORSDOF 6
ENDMDL
