MODEL 1
REMARK VINA RESULT:      -9.0      0.000      0.000
REMARK  7 active torsions:
REMARK  status: ('A' for Active; 'I' for Inactive)
REMARK    1  A    between atoms: C_3  and  C_1 
REMARK    2  A    between atoms: C_4  and  C_1 
REMARK    3  A    between atoms: N_2  and  C_6 
REMARK    4  A    between atoms: C_6  and  C_13 
REMARK    5  A    between atoms: O_12  and  C_14 
REMARK    6  A    between atoms: C_16  and  O_12 
REMARK    7  A    between atoms: C_13  and  C_16 
ROOT
ATOM      1  C   UNL d   1      52.098  33.112  52.959  0.00  0.00     0.039 A 
ATOM      2  C   UNL d   1      52.184  33.756  52.443  0.00  0.00     0.005 A 
ATOM      3  C   UNL d   1      51.373  32.966  53.313  0.00  0.00     0.005 A 
ATOM      4  C   UNL d   1      50.821  34.092  52.646  0.00  0.00     0.100 A 
ATOM      5  C   UNL d   1      51.547  34.237  52.292  0.00  0.00     0.025 A 
ATOM      6  C   UNL d   1      50.729  33.464  53.152  0.00  0.00     0.025 A 
ENDROOT
BRANCH   4   7
ATOM      7  O   UNL d   1      50.174  34.596  52.481  0.00  0.00    -0.302 OA
BRANCH   7   8
ATOM      8  C   UNL d   1      49.651  34.847  53.090  0.00  0.00     0.166 C 
BRANCH   8   9
ATOM      9  C   UNL d   1      48.997  35.330  52.907  0.00  0.00     0.238 C 
ATOM     10  O   UNL d   1      48.569  35.203  52.213  0.00  0.00    -0.283 OA
BRANCH   9  11
ATOM     11  C   UNL d   1      48.779  35.940  53.424  0.00  0.00     0.125 C 
BRANCH  11  12
ATOM     12  N   UNL d   1      47.976  36.116  53.545  0.00  0.00    -0.296 N 
ATOM     13  C   UNL d   1      47.555  36.531  52.970  0.00  0.00     0.107 A 
ATOM     14  C   UNL d   1      46.755  36.701  53.101  0.00  0.00     0.142 A 
ATOM     15  O   UNL d   1      46.378  36.456  53.803  0.00  0.00    -0.300 OA
ATOM     16  C   UNL d   1      46.812  36.041  54.370  0.00  0.00     0.142 A 
ATOM     17  C   UNL d   1      47.607  35.867  54.250  0.00  0.00     0.107 A 
ENDBRANCH  11  12
ENDBRANCH   9  11
ENDBRANCH   8   9
ENDBRANCH   7   8
ENDBRANCH   4   7
BRANCH   1  18
ATOM     18  C   UNL d   1      52.740  32.621  53.116  0.00  0.00     0.196 C 
ATOM     19  O   UNL d   1      52.794  31.883  52.754  0.00  0.00    -0.287 OA
BRANCH  18  20
ATOM     20  C   UNL d   1      53.328  32.870  53.635  0.00  0.00     0.039 A 
ATOM     21  C   UNL d   1      54.085  33.043  53.350  0.00  0.00     0.004 A 
ATOM     22  C   UNL d   1      54.674  33.292  53.865  0.00  0.00     0.011 A 
ATOM     23  C   UNL d   1      54.509  33.369  54.673  0.00  0.00     0.058 A 
ATOM     24  C   UNL d   1      53.753  33.196  54.958  0.00  0.00     0.011 A 
ATOM     25 CL   UNL d   1      55.097  33.618  55.192  0.00  0.00    -0.082 Cl
ATOM     26  C   UNL d   1      53.165  32.946  54.435  0.00  0.00     0.004 A 
ENDBRANCH  18  20
ENDBRANCH   1  18
TORSDOF 7
ENDMDL
MODEL 2
REMARK VINA RESULT:      -8.2      1.173      1.552
REMARK  7 active torsions:
REMARK  status: ('A' for Active; 'I' for Inactive)
REMARK    1  A    between atoms: C_3  and  C_1 
REMARK    2  A    between atoms: C_4  and  C_1 
REMARK    3  A    between atoms: N_2  and  C_6 
REMARK    4  A    between atoms: C_6  and  C_13 
REMARK    5  A    between atoms: O_12  and  C_14 
REMARK    6  A    between atoms: C_16  and  O_12 
REMARK    7  A    between atoms: C_13  and  C_16 
ROOT
ATOM      1  C   UNL d   1      52.143  33.613  53.126  0.00  0.00     0.039 A 
ATOM      2  C   UNL d   1      52.038  33.985  52.392  0.00  0.00     0.005 A 
ATOM      3  C   UNL d   1      51.505  33.524  53.634  0.00  0.00     0.005 A 
ATOM      4  C   UNL d   1      50.665  34.171  52.690  0.00  0.00     0.100 A 
ATOM      5  C   UNL d   1      51.303  34.260  52.183  0.00  0.00     0.025 A 
ATOM      6  C   UNL d   1      50.759  33.808  53.410  0.00  0.00     0.025 A 
ENDROOT
BRANCH   4   7
ATOM      7  O   UNL d   1      49.913  34.459  52.461  0.00  0.00    -0.302 OA
BRANCH   7   8
ATOM      8  C   UNL d   1      49.454  34.940  52.977  0.00  0.00     0.166 C 
BRANCH   8   9
ATOM      9  C   UNL d   1      48.777  35.332  52.691  0.00  0.00     0.238 C 
ATOM     10  O   UNL d   1      48.346  35.011  52.064  0.00  0.00    -0.283 OA
BRANCH   9  11
ATOM     11  C   UNL d   1      48.537  36.045  53.038  0.00  0.00     0.125 C 
BRANCH  11  12
ATOM     12  N   UNL d   1      47.769  36.122  53.344  0.00  0.00    -0.296 N 
ATOM     13  C   UNL d   1      47.628  35.978  54.143  0.00  0.00     0.107 A 
ATOM     14  C   UNL d   1      46.858  36.058  54.438  0.00  0.00     0.142 A 
ATOM     15  O   UNL d   1      46.233  36.280  53.934  0.00  0.00    -0.300 OA
ATOM     16  C   UNL d   1      46.388  36.421  53.136  0.00  0.00     0.142 A 
ATOM     17  C   UNL d   1      47.149  36.345  52.834  0.00  0.00     0.107 A 
ENDBRANCH  11  12
ENDBRANCH   9  11
ENDBRANCH   8   9
ENDBRANCH   7   8
ENDBRANCH   4   7
BRANCH   1  18
ATOM     18  C   UNL d   1      52.886  33.333  53.344  0.00  0.00     0.196 C 
ATOM     19  O   UNL d   1      53.492  33.862  53.520  0.00  0.00    -0.287 OA
BRANCH  18  20
ATOM     20  C   UNL d   1      53.021  32.522  53.385  0.00  0.00     0.039 A 
ATOM     21  C   UNL d   1      53.387  32.197  54.053  0.00  0.00     0.004 A 
ATOM     22  C   UNL d   1      53.524  31.389  54.098  0.00  0.00     0.011 A 
ATOM     23  C   UNL d   1      53.294  30.897  53.471  0.00  0.00     0.058 A 
ATOM     24  C   UNL d   1      52.929  31.221  52.805  0.00  0.00     0.011 A 
ATOM     25 CL   UNL d   1      53.429  30.087  53.513  0.00  0.00    -0.082 Cl
ATOM     26  C   UNL d   1      52.794  32.035  52.766  0.00  0.00     0.004 A 
ENDBRANCH  18  20
ENDBRANCH   1  18
TORSDOF 7
ENDMDL
MODEL 3
REMARK VINA RESULT:      -6.9      2.770      6.254
REMARK  7 active torsions:
REMARK  status: ('A' for Active; 'I' for Inactive)
REMARK    1  A    between atoms: C_3  and  C_1 
REMARK    2  A    between atoms: C_4  and  C_1 
REMARK    3  A    between atoms: N_2  and  C_6 
REMARK    4  A    between atoms: C_6  and  C_13 
REMARK    5  A    between atoms: O_12  and  C_14 
REMARK    6  A    between atoms: C_16  and  O_12 
REMARK    7  A    between atoms: C_13  and  C_16 
ROOT
ATOM      1  C   UNL d   1      48.018  35.591  52.104  0.00  0.00     0.039 A 
ATOM      2  C   UNL d   1      48.255  35.019  51.551  0.00  0.00     0.005 A 
ATOM      3  C   UNL d   1      48.448  35.693  52.795  0.00  0.00     0.005 A 
ATOM      4  C   UNL d   1      49.341  34.666  52.391  0.00  0.00     0.100 A 
ATOM      5  C   UNL d   1      48.912  34.564  51.700  0.00  0.00     0.025 A 
ATOM      6  C   UNL d   1      49.116  35.224  52.937  0.00  0.00     0.025 A 
ENDROOT
BRANCH   4   7
ATOM      7  O   UNL d   1      50.016  34.190  52.531  0.00  0.00    -0.302 OA
BRANCH   7   8
ATOM      8  C   UNL d   1      50.686  34.494  52.939  0.00  0.00     0.166 C 
BRANCH   8   9
ATOM      9  C   UNL d   1      51.343  34.003  53.087  0.00  0.00     0.238 C 
ATOM     10  O   UNL d   1      51.230  33.226  53.344  0.00  0.00    -0.283 OA
BRANCH   9  11
ATOM     11  C   UNL d   1      52.110  34.296  52.975  0.00  0.00     0.125 C 
BRANCH  11  12
ATOM     12  N   UNL d   1      52.636  34.343  53.617  0.00  0.00    -0.296 N 
ATOM     13  C   UNL d   1      53.082  33.684  53.831  0.00  0.00     0.107 A 
ATOM     14  C   UNL d   1      53.603  33.741  54.472  0.00  0.00     0.142 A 
ATOM     15  O   UNL d   1      53.677  34.455  54.896  0.00  0.00    -0.300 OA
ATOM     16  C   UNL d   1      53.223  35.107  54.670  0.00  0.00     0.142 A 
ATOM     17  C   UNL d   1      52.703  35.060  54.035  0.00  0.00     0.107 A 
ENDBRANCH  11  12
ENDBRANCH   9  11
ENDBRANCH   8   9
ENDBRANCH   7   8
ENDBRANCH   4   7
BRANCH   1  18
ATOM     18  C   UNL d   1      47.354  36.055  51.958  0.00  0.00     0.196 C 
ATOM     19  O   UNL d   1      47.408  36.709  51.460  0.00  0.00    -0.287 OA
BRANCH  18  20
ATOM     20  C   UNL d   1      46.636  35.862  52.311  0.00  0.00     0.039 A 
ATOM     21  C   UNL d   1      46.084  35.401  51.901  0.00  0.00     0.004 A 
ATOM     22  C   UNL d   1      45.367  35.207  52.249  0.00  0.00     0.011 A 
ATOM     23  C   UNL d   1      45.196  35.474  53.015  0.00  0.00     0.058 A 
ATOM     24  C   UNL d   1      45.746  35.934  53.424  0.00  0.00     0.011 A 
ATOM     25 CL   UNL d   1      44.478  35.282  53.367  0.00  0.00    -0.082 Cl
ATOM     26  C   UNL d   1      46.466  36.126  53.068  0.00  0.00     0.004 A 
ENDBRANCH  18  20
ENDBRANCH   1  18
TORSDOF 7
ENDMDL
MODEL 4
REMARK VINA RESULT:      -6.1      2.105      2.698
REMARK  7 active torsions:
REMARK  status: ('A' for Active; 'I' for Inactive)
REMARK    1  A    between atoms: C_3  and  C_1 
REMARK    2  A    between atoms: C_4  and  C_1 
REMARK    3  A    between atoms: N_2  and  C_6 
REMARK    4  A    between atoms: C_6  and  C_13 
REMARK    5  A    between atoms: O_12  and  C_14 
REMARK    6  A    between atoms: C_16  and  O_12 
REMARK    7  A    between atoms: C_13  and  C_16 
ROOT
ATOM      1  C   UNL d   1      53.012  31.984  53.252  0.00  0.00     0.039 A 
ATOM      2  C   UNL d   1      53.154  32.720  53.607  0.00  0.00     0.005 A 
ATOM      3  C   UNL d   1      52.282  31.827  52.914  0.00  0.00     0.005 A 
ATOM      4  C   UNL d   1      51.836  33.126  53.277  0.00  0.00     0.100 A 
ATOM      5  C   UNL d   1      52.567  33.282  53.616  0.00  0.00     0.025 A 
ATOM      6  C   UNL d   1      51.689  32.407  52.928  0.00  0.00     0.025 A 
ENDROOT
BRANCH   4   7
ATOM      7  O   UNL d   1      51.240  33.714  53.294  0.00  0.00    -0.302 OA
BRANCH   7   8
ATOM      8  C   UNL d   1      50.768  33.875  52.616  0.00  0.00     0.166 C 
BRANCH   8   9
ATOM      9  C   UNL d   1      50.108  34.380  52.677  0.00  0.00     0.238 C 
ATOM     10  O   UNL d   1      49.642  34.371  53.358  0.00  0.00    -0.283 OA
BRANCH   9  11
ATOM     11  C   UNL d   1      49.922  34.891  52.053  0.00  0.00     0.125 C 
BRANCH  11  12
ATOM     12  N   UNL d   1      49.161  34.882  51.720  0.00  0.00    -0.296 N 
ATOM     13  C   UNL d   1      48.541  35.270  52.101  0.00  0.00     0.107 A 
ATOM     14  C   UNL d   1      47.786  35.255  51.761  0.00  0.00     0.142 A 
ATOM     15  O   UNL d   1      47.653  34.854  51.043  0.00  0.00    -0.300 OA
ATOM     16  C   UNL d   1      48.282  34.469  50.672  0.00  0.00     0.142 A 
ATOM     17  C   UNL d   1      49.036  34.479  51.002  0.00  0.00     0.107 A 
ENDBRANCH  11  12
ENDBRANCH   9  11
ENDBRANCH   8   9
ENDBRANCH   7   8
ENDBRANCH   4   7
BRANCH   1  18
ATOM     18  C   UNL d   1      53.604  31.411  53.240  0.00  0.00     0.196 C 
ATOM     19  O   UNL d   1      54.294  31.539  52.810  0.00  0.00    -0.287 OA
BRANCH  18  20
ATOM     20  C   UNL d   1      53.503  30.711  53.660  0.00  0.00     0.039 A 
ATOM     21  C   UNL d   1      53.311  30.013  53.259  0.00  0.00     0.004 A 
ATOM     22  C   UNL d   1      53.210  29.312  53.674  0.00  0.00     0.011 A 
ATOM     23  C   UNL d   1      53.300  29.304  54.498  0.00  0.00     0.058 A 
ATOM     24  C   UNL d   1      53.491  30.001  54.898  0.00  0.00     0.011 A 
ATOM     25 CL   UNL d   1      53.199  28.604  54.917  0.00  0.00    -0.082 Cl
ATOM     26  C   UNL d   1      53.592  30.703  54.475  0.00  0.00     0.004 A 
ENDBRANCH  18  20
ENDBRANCH   1  18
TORSDOF 7
ENDMDL
