MODEL 1
REMARK VINA RESULT:      -8.4      0.000      0.000
REMARK  5 active torsions:
REMARK  status: ('A' for Active; 'I' for Inactive)
REMARK    1  A    between atoms: N_2  and  S_1 
REMARK    2  A    between atoms: C_3  and  S_1 
REMARK    3  A    between atoms: C_6  and  O_7 
REMARK    4  A    between atoms: O_7  and  C_11 
REMARK    5  A    between atoms: O_16  and  C_8 
ROOT
ATOM      1  C   UNL d   1      50.621  34.196  52.753  0.00  0.00     0.104 A 
ATOM      2  C   UNL d   1      51.302  34.461  52.387  0.00  0.00     0.015 A 
ATOM      3  C   UNL d   1      50.633  33.488  53.191  0.00  0.00     0.015 A 
ATOM      4  C   UNL d   1      52.007  33.323  52.889  0.00  0.00     0.100 A 
ATOM      5  C   UNL d   1      51.326  33.056  53.256  0.00  0.00     0.025 A 
ATOM      6  C   UNL d   1      51.995  34.032  52.450  0.00  0.00     0.025 A 
ENDROOT
BRANCH   4   7
ATOM      7  O   UNL d   1      52.717  32.890  52.950  0.00  0.00    -0.305 OA
BRANCH   7   8
ATOM      8  C   UNL d   1      53.187  32.932  53.632  0.00  0.00     0.122 A 
ATOM      9  C   UNL d   1      53.544  32.253  53.928  0.00  0.00     0.117 A 
ATOM     10  C   UNL d   1      54.013  32.301  54.609  0.00  0.00     0.026 A 
ATOM     11  C   UNL d   1      54.118  33.026  54.983  0.00  0.00     0.002 A 
ATOM     12  C   UNL d   1      53.759  33.706  54.684  0.00  0.00     0.002 A 
ATOM     13  C   UNL d   1      53.292  33.657  54.005  0.00  0.00     0.027 A 
BRANCH   9  14
ATOM     14  O   UNL d   1      53.433  31.533  53.547  0.00  0.00    -0.326 OA
ATOM     15  C   UNL d   1      53.840  30.874  53.800  0.00  0.00     0.181 C 
ENDBRANCH   9  14
ENDBRANCH   7   8
ENDBRANCH   4   7
BRANCH   1  16
ATOM     16  S   UNL d   1      49.925  34.635  52.684  0.00  0.00     0.271 S 
ATOM     17  O   UNL d   1      49.738  35.216  53.251  0.00  0.00    -0.200 OA
ATOM     18  O   UNL d   1      49.409  34.501  52.053  0.00  0.00    -0.200 OA
BRANCH  16  19
ATOM     19  N   UNL d   1      49.203  34.955  52.443  0.00  0.00    -0.229 N 
ATOM     20  C   UNL d   1      48.825  34.821  51.713  0.00  0.00     0.092 A 
ATOM     21  C   UNL d   1      48.115  35.246  51.696  0.00  0.00     0.021 A 
ATOM     22  C   UNL d   1      48.044  35.647  52.412  0.00  0.00     0.021 A 
ATOM     23  C   UNL d   1      48.711  35.473  52.879  0.00  0.00     0.092 A 
ENDBRANCH  16  19
ENDBRANCH   1  16
TORSDOF 5
ENDMDL
MODEL 2
REMARK VINA RESULT:      -8.1      1.404      5.115
REMARK  5 active torsions:
REMARK  status: ('A' for Active; 'I' for Inactive)
REMARK    1  A    between atoms: N_2  and  S_1 
REMARK    2  A    between atoms: C_3  and  S_1 
REMARK    3  A    between atoms: C_6  and  O_7 
REMARK    4  A    between atoms: O_7  and  C_11 
REMARK    5  A    between atoms: O_16  and  C_8 
ROOT
ATOM      1  C   UNL d   1      51.771  33.371  53.014  0.00  0.00     0.104 A 
ATOM      2  C   UNL d   1      51.055  33.138  53.331  0.00  0.00     0.015 A 
ATOM      3  C   UNL d   1      51.836  34.108  52.631  0.00  0.00     0.015 A 
ATOM      4  C   UNL d   1      50.467  34.363  52.888  0.00  0.00     0.100 A 
ATOM      5  C   UNL d   1      51.184  34.599  52.570  0.00  0.00     0.025 A 
ATOM      6  C   UNL d   1      50.402  33.626  53.272  0.00  0.00     0.025 A 
ENDROOT
BRANCH   4   7
ATOM      7  O   UNL d   1      49.797  34.857  52.831  0.00  0.00    -0.305 OA
BRANCH   7   8
ATOM      8  C   UNL d   1      49.298  34.827  52.169  0.00  0.00     0.122 A 
ATOM      9  C   UNL d   1      48.577  35.223  52.179  0.00  0.00     0.117 A 
ATOM     10  C   UNL d   1      48.082  35.189  51.516  0.00  0.00     0.026 A 
ATOM     11  C   UNL d   1      48.315  34.761  50.854  0.00  0.00     0.002 A 
ATOM     12  C   UNL d   1      49.038  34.365  50.846  0.00  0.00     0.002 A 
ATOM     13  C   UNL d   1      49.530  34.399  51.508  0.00  0.00     0.027 A 
BRANCH   9  14
ATOM     14  O   UNL d   1      48.354  35.648  52.846  0.00  0.00    -0.326 OA
ATOM     15  C   UNL d   1      47.684  36.112  52.826  0.00  0.00     0.181 C 
ENDBRANCH   9  14
ENDBRANCH   7   8
ENDBRANCH   4   7
BRANCH   1  16
ATOM     16  S   UNL d   1      52.426  32.872  53.078  0.00  0.00     0.271 S 
ATOM     17  O   UNL d   1      52.542  32.260  52.526  0.00  0.00    -0.200 OA
ATOM     18  O   UNL d   1      52.971  32.978  53.689  0.00  0.00    -0.200 OA
BRANCH  16  19
ATOM     19  N   UNL d   1      53.123  32.495  53.310  0.00  0.00    -0.229 N 
ATOM     20  C   UNL d   1      53.819  32.867  53.574  0.00  0.00     0.092 A 
ATOM     21  C   UNL d   1      54.384  32.288  53.750  0.00  0.00     0.021 A 
ATOM     22  C   UNL d   1      54.047  31.552  53.597  0.00  0.00     0.021 A 
ATOM     23  C   UNL d   1      53.268  31.671  53.325  0.00  0.00     0.092 A 
ENDBRANCH  16  19
ENDBRANCH   1  16
TORSDOF 5
ENDMDL
MODEL 3
REMARK VINA RESULT:      -7.2      2.459      5.147
REMARK  5 active torsions:
REMARK  status: ('A' for Active; 'I' for Inactive)
REMARK    1  A    between atoms: N_2  and  S_1 
REMARK    2  A    between atoms: C_3  and  S_1 
REMARK    3  A    between atoms: C_6  and  O_7 
REMARK    4  A    between atoms: O_7  and  C_11 
REMARK    5  A    between atoms: O_16  and  C_8 
ROOT
ATOM      1  C   UNL d   1      53.019  30.772  53.486  0.00  0.00     0.104 A 
ATOM      2  C   UNL d   1      52.285  31.005  53.215  0.00  0.00     0.015 A 
ATOM      3  C   UNL d   1      53.667  31.293  53.433  0.00  0.00     0.015 A 
ATOM      4  C   UNL d   1      52.833  32.269  52.837  0.00  0.00     0.100 A 
ATOM      5  C   UNL d   1      53.570  32.038  53.109  0.00  0.00     0.025 A 
ATOM      6  C   UNL d   1      52.185  31.748  52.890  0.00  0.00     0.025 A 
ENDROOT
BRANCH   4   7
ATOM      7  O   UNL d   1      52.725  33.027  52.505  0.00  0.00    -0.305 OA
BRANCH   7   8
ATOM      8  C   UNL d   1      52.644  33.698  52.986  0.00  0.00     0.122 A 
ATOM      9  C   UNL d   1      52.018  34.217  52.868  0.00  0.00     0.117 A 
ATOM     10  C   UNL d   1      51.942  34.886  53.351  0.00  0.00     0.026 A 
ATOM     11  C   UNL d   1      52.494  35.025  53.944  0.00  0.00     0.002 A 
ATOM     12  C   UNL d   1      53.122  34.503  54.062  0.00  0.00     0.002 A 
ATOM     13  C   UNL d   1      53.196  33.837  53.579  0.00  0.00     0.027 A 
BRANCH   9  14
ATOM     14  O   UNL d   1      51.472  34.069  52.272  0.00  0.00    -0.326 OA
ATOM     15  C   UNL d   1      50.777  34.493  52.243  0.00  0.00     0.181 C 
ENDBRANCH   9  14
ENDBRANCH   7   8
ENDBRANCH   4   7
BRANCH   1  16
ATOM     16  S   UNL d   1      53.113  30.019  53.813  0.00  0.00     0.271 S 
ATOM     17  O   UNL d   1      52.917  29.342  53.369  0.00  0.00    -0.200 OA
ATOM     18  O   UNL d   1      53.402  29.932  54.582  0.00  0.00    -0.200 OA
BRANCH  16  19
ATOM     19  N   UNL d   1      53.275  29.377  54.306  0.00  0.00    -0.229 N 
ATOM     20  C   UNL d   1      53.079  29.315  55.113  0.00  0.00     0.092 A 
ATOM     21  C   UNL d   1      53.340  28.583  55.398  0.00  0.00     0.021 A 
ATOM     22  C   UNL d   1      53.700  28.184  54.775  0.00  0.00     0.021 A 
ATOM     23  C   UNL d   1      53.664  28.666  54.097  0.00  0.00     0.092 A 
ENDBRANCH  16  19
ENDBRANCH   1  16
TORSDOF 5
ENDMDL
