MODEL 1
REMARK VINA RESULT:      26.4      0.000      0.000
REMARK  6 active torsions:
REMARK  status: ('A' for Active; 'I' for Inactive)
REMARK       I    between atoms: C_3  and  N_1 
REMARK    1  A    between atoms: C_4  and  N_1 
REMARK    2  A    between atoms: S_2  and  C_12 
REMARK    3  A    between atoms: C_6  and  C_3 
REMARK    4  A    between atoms: N_5  and  C_6 
REMARK       I    between atoms: C_7  and  N_5 
REMARK    5  A    between atoms: C_8  and  C_6 
REMARK    6  A    between atoms: C_12  and  C_8 
ROOT
ATOM      1  N   UNL d   1      45.533 -17.089  44.076  0.00  0.00    -0.207 NA
ATOM      2  C   UNL d   1      45.924 -16.366  44.139  0.00  0.00     0.297 C 
ATOM      3  O   UNL d   1      46.640 -16.248  43.736  0.00  0.00    -0.264 OA
ENDROOT
BRANCH   2   4
ATOM      4  C   UNL d   1      45.602 -15.757  44.605  0.00  0.00     0.143 C 
BRANCH   4   5
ATOM      5  N   UNL d   1      44.837 -15.833  44.908  0.00  0.00    -0.203 NA
ATOM      6  C   UNL d   1      44.239 -15.329  44.651  0.00  0.00     0.280 C 
ATOM      7  O   UNL d   1      44.404 -14.748  44.089  0.00  0.00    -0.265 OA
ATOM      8  C   UNL d   1      43.474 -15.405  44.954  0.00  0.00     0.068 C 
ENDBRANCH   4   5
BRANCH   4   9
ATOM      9  C   UNL d   1      46.044 -15.080  44.763  0.00  0.00     0.036 C 
BRANCH   9  10
ATOM     10  C   UNL d   1      46.283 -14.592  44.143  0.00  0.00     0.096 C 
BRANCH  10  11
ATOM     11  S   UNL d   1      46.287 -13.774  44.243  0.00  0.00     0.192 S 
ATOM     12  O   UNL d   1      46.594 -13.892  43.479  0.00  0.00    -0.222 OA
ATOM     13  O   UNL d   1      46.373 -12.950  44.141  0.00  0.00    -0.222 OA
ATOM     14  C   UNL d   1      46.015 -13.446  44.948  0.00  0.00     0.145 C 
ENDBRANCH  10  11
ENDBRANCH   9  10
ENDBRANCH   4   9
ENDBRANCH   2   4
BRANCH   1  15
ATOM     15  C   UNL d   1      45.865 -17.704  43.601  0.00  0.00     0.085 A 
ATOM     16  C   UNL d   1      46.324 -18.277  43.954  0.00  0.00     0.018 A 
ATOM     17  C   UNL d   1      46.646 -18.879  43.477  0.00  0.00     0.002 A 
ATOM     18  C   UNL d   1      46.474 -18.275  44.758  0.00  0.00     0.002 C 
ATOM     19  C   UNL d   1      46.508 -18.900  42.662  0.00  0.00     0.000 A 
ATOM     20  C   UNL d   1      46.037 -18.308  42.320  0.00  0.00     0.002 A 
ATOM     21  C   UNL d   1      45.708 -17.697  42.793  0.00  0.00     0.018 A 
ATOM     22  C   UNL d   1      45.247 -17.122  42.438  0.00  0.00     0.002 C 
ENDBRANCH   1  15
TORSDOF 6
ENDMDL
