MODEL 1
REMARK VINA RESULT:      -5.5      0.000      0.000
REMARK  4 active torsions:
REMARK  status: ('A' for Active; 'I' for Inactive)
REMARK    1  A    between atoms: N_9  and  C_1 
REMARK    2  A    between atoms: C_5  and  O_12 
REMARK    3  A    between atoms: C_13  and  N_9 
REMARK    4  A    between atoms: O_12  and  C_17 
ROOT
ATOM      1  C   UNL d   1      57.203   0.010  31.067  0.00  0.00     0.083 A 
ATOM      2  C   UNL d   1      56.568  -0.155  32.584  0.00  0.00     0.102 A 
ATOM      3  C   UNL d   1      57.057  -0.752  31.374  0.00  0.00     0.021 A 
ATOM      4  C   UNL d   1      57.033   0.682  31.513  0.00  0.00     0.021 A 
ATOM      5  C   UNL d   1      56.740  -0.831  32.131  0.00  0.00     0.026 A 
ATOM      6  C   UNL d   1      56.715   0.596  32.273  0.00  0.00     0.026 A 
ENDROOT
BRANCH   1   7
ATOM      7  N   UNL d   1      57.522   0.085  30.304  0.00  0.00    -0.227 NA
BRANCH   7   8
ATOM      8  C   UNL d   1      58.340   0.138  30.204  0.00  0.00     0.169 A 
ATOM      9  C   UNL d   1      58.699  -0.299  29.665  0.00  0.00     0.094 A 
ATOM     10  C   UNL d   1      59.480  -0.243  29.576  0.00  0.00     0.190 A 
ATOM     11  C   UNL d   1      58.651  -1.230  28.669  0.00  0.00     0.128 A 
ATOM     12  N   UNL d   1      59.834  -0.685  29.031  0.00  0.00    -0.128 NA
ATOM     13  N   UNL d   1      59.894   0.239  30.016  0.00  0.00    -0.203 NA
ATOM     14  N   UNL d   1      59.432  -1.174  28.580  0.00  0.00    -0.145 NA
ATOM     15  C   UNL d   1      59.540   0.681  30.561  0.00  0.00     0.202 A 
ATOM     16  N   UNL d   1      58.759   0.631  30.656  0.00  0.00    -0.205 NA
ENDBRANCH   7   8
ENDBRANCH   1   7
BRANCH   2  17
ATOM     17  O   UNL d   1      56.251  -0.233  33.341  0.00  0.00    -0.253 OA
BRANCH  17  18
ATOM     18  C   UNL d   1      55.452  -0.065  33.467  0.00  0.00     0.530 C 
ATOM     19  F   UNL d   1      54.870  -0.619  33.267  0.00  0.00    -0.144 F 
ATOM     20  F   UNL d   1      55.237   0.659  33.795  0.00  0.00    -0.144 F 
ATOM     21  F   UNL d   1      54.244   0.196  33.662  0.00  0.00    -0.144 F 
ENDBRANCH  17  18
ENDBRANCH   2  17
TORSDOF 4
ENDMDL
MODEL 2
REMARK VINA RESULT:      -4.6      3.273      4.687
REMARK  4 active torsions:
REMARK  status: ('A' for Active; 'I' for Inactive)
REMARK    1  A    between atoms: N_9  and  C_1 
REMARK    2  A    between atoms: C_5  and  O_12 
REMARK    3  A    between atoms: C_13  and  N_9 
REMARK    4  A    between atoms: O_12  and  C_17 
ROOT
ATOM      1  C   UNL d   1      57.642   0.656  31.187  0.00  0.00     0.083 A 
ATOM      2  C   UNL d   1      58.942   0.607  30.168  0.00  0.00     0.102 A 
ATOM      3  C   UNL d   1      58.414   0.682  31.500  0.00  0.00     0.021 A 
ATOM      4  C   UNL d   1      57.520   0.606  30.373  0.00  0.00     0.021 A 
ATOM      5  C   UNL d   1      59.061   0.658  30.989  0.00  0.00     0.026 A 
ATOM      6  C   UNL d   1      58.174   0.581  29.865  0.00  0.00     0.026 A 
ENDROOT
BRANCH   1   7
ATOM      7  N   UNL d   1      56.993   0.681  31.705  0.00  0.00    -0.227 NA
BRANCH   7   8
ATOM      8  C   UNL d   1      56.677  -0.023  32.001  0.00  0.00     0.169 A 
ATOM      9  C   UNL d   1      56.205  -0.009  32.624  0.00  0.00     0.094 A 
ATOM     10  C   UNL d   1      55.907  -0.684  32.900  0.00  0.00     0.190 A 
ATOM     11  C   UNL d   1      55.550   0.682  33.601  0.00  0.00     0.128 A 
ATOM     12  N   UNL d   1      55.433  -0.662  33.527  0.00  0.00    -0.128 NA
ATOM     13  N   UNL d   1      56.077  -1.358  32.563  0.00  0.00    -0.203 NA
ATOM     14  N   UNL d   1      55.253   0.007  33.878  0.00  0.00    -0.145 NA
ATOM     15  C   UNL d   1      56.551  -1.379  31.936  0.00  0.00     0.202 A 
ATOM     16  N   UNL d   1      56.852  -0.708  31.654  0.00  0.00    -0.205 NA
ENDBRANCH   7   8
ENDBRANCH   1   7
BRANCH   2  17
ATOM     17  O   UNL d   1      59.589   0.583  29.657  0.00  0.00    -0.253 OA
BRANCH  17  18
ATOM     18  C   UNL d   1      59.894  -0.148  29.421  0.00  0.00     0.530 C 
ATOM     19  F   UNL d   1      59.628  -0.509  28.724  0.00  0.00    -0.144 F 
ATOM     20  F   UNL d   1      60.466  -0.518  29.885  0.00  0.00    -0.144 F 
ATOM     21  F   UNL d   1      60.360  -1.254  29.070  0.00  0.00    -0.144 F 
ENDBRANCH  17  18
ENDBRANCH   2  17
TORSDOF 4
ENDMDL
MODEL 3
REMARK VINA RESULT:      -3.4      0.878      1.108
REMARK  4 active torsions:
REMARK  status: ('A' for Active; 'I' for Inactive)
REMARK    1  A    between atoms: N_9  and  C_1 
REMARK    2  A    between atoms: C_5  and  O_12 
REMARK    3  A    between atoms: C_13  and  N_9 
REMARK    4  A    between atoms: O_12  and  C_17 
ROOT
ATOM      1  C   UNL d   1      56.627  -0.422  31.936  0.00  0.00     0.083 A 
ATOM      2  C   UNL d   1      56.080   0.118  33.399  0.00  0.00     0.102 A 
ATOM      3  C   UNL d   1      56.499  -0.965  32.556  0.00  0.00     0.021 A 
ATOM      4  C   UNL d   1      56.484   0.382  32.045  0.00  0.00     0.021 A 
ATOM      5  C   UNL d   1      56.226  -0.693  33.284  0.00  0.00     0.026 A 
ATOM      6  C   UNL d   1      56.209   0.649  32.780  0.00  0.00     0.026 A 
ENDROOT
BRANCH   1   7
ATOM      7  N   UNL d   1      56.902  -0.701  31.203  0.00  0.00    -0.227 NA
BRANCH   7   8
ATOM      8  C   UNL d   1      57.582  -0.372  30.867  0.00  0.00     0.169 A 
ATOM      9  C   UNL d   1      57.977  -0.763  30.318  0.00  0.00     0.094 A 
ATOM     10  C   UNL d   1      58.624  -0.442  30.003  0.00  0.00     0.190 A 
ATOM     11  C   UNL d   1      58.134  -1.862  29.526  0.00  0.00     0.128 A 
ATOM     12  N   UNL d   1      59.016  -0.842  29.451  0.00  0.00    -0.128 NA
ATOM     13  N   UNL d   1      58.871   0.253  30.231  0.00  0.00    -0.203 NA
ATOM     14  N   UNL d   1      58.781  -1.542  29.211  0.00  0.00    -0.145 NA
ATOM     15  C   UNL d   1      58.478   0.652  30.783  0.00  0.00     0.202 A 
ATOM     16  N   UNL d   1      57.830   0.338  31.103  0.00  0.00    -0.205 NA
ENDBRANCH   7   8
ENDBRANCH   1   7
BRANCH   2  17
ATOM     17  O   UNL d   1      55.807   0.390  34.127  0.00  0.00    -0.253 OA
BRANCH  17  18
ATOM     18  C   UNL d   1      54.997   0.503  34.242  0.00  0.00     0.530 C 
ATOM     19  F   UNL d   1      54.503   0.682  33.602  0.00  0.00    -0.144 F 
ATOM     20  F   UNL d   1      54.682   0.437  35.000  0.00  0.00    -0.144 F 
ATOM     21  F   UNL d   1      53.771   0.673  34.423  0.00  0.00    -0.144 F 
ENDBRANCH  17  18
ENDBRANCH   2  17
TORSDOF 4
ENDMDL
MODEL 4
REMARK VINA RESULT:      -3.3      9.044      9.676
REMARK  4 active torsions:
REMARK  status: ('A' for Active; 'I' for Inactive)
REMARK    1  A    between atoms: N_9  and  C_1 
REMARK    2  A    between atoms: C_5  and  O_12 
REMARK    3  A    between atoms: C_13  and  N_9 
REMARK    4  A    between atoms: O_12  and  C_17 
ROOT
ATOM      1  C   UNL d   1      60.050  -9.041  34.964  0.00  0.00     0.083 A 
ATOM      2  C   UNL d   1      60.517  -7.739  35.869  0.00  0.00     0.102 A 
ATOM      3  C   UNL d   1      59.475  -8.584  35.359  0.00  0.00     0.021 A 
ATOM      4  C   UNL d   1      60.849  -8.850  35.020  0.00  0.00     0.021 A 
ATOM      5  C   UNL d   1      59.711  -7.936  35.810  0.00  0.00     0.026 A 
ATOM      6  C   UNL d   1      61.080  -8.196  35.475  0.00  0.00     0.026 A 
ENDROOT
BRANCH   1   7
ATOM      7  N   UNL d   1      59.808  -9.693  34.510  0.00  0.00    -0.227 NA
BRANCH   7   8
ATOM      8  C   UNL d   1      59.930  -9.693  33.693  0.00  0.00     0.169 A 
ATOM      9  C   UNL d   1      59.321  -9.735  33.206  0.00  0.00     0.094 A 
ATOM     10  C   UNL d   1      59.445  -9.734  32.427  0.00  0.00     0.190 A 
ATOM     11  C   UNL d   1      57.976  -9.818  32.992  0.00  0.00     0.128 A 
ATOM     12  N   UNL d   1      58.827  -9.776  31.943  0.00  0.00    -0.128 NA
ATOM     13  N   UNL d   1      60.162  -9.693  32.142  0.00  0.00    -0.203 NA
ATOM     14  N   UNL d   1      58.100  -9.817  32.214  0.00  0.00    -0.145 NA
ATOM     15  C   UNL d   1      60.780  -9.652  32.627  0.00  0.00     0.202 A 
ATOM     16  N   UNL d   1      60.663  -9.652  33.406  0.00  0.00    -0.205 NA
ENDBRANCH   7   8
ENDBRANCH   1   7
BRANCH   2  17
ATOM     17  O   UNL d   1      60.752  -7.091  36.320  0.00  0.00    -0.253 OA
BRANCH  17  18
ATOM     18  C   UNL d   1      60.532  -6.330  36.086  0.00  0.00     0.530 C 
ATOM     19  F   UNL d   1      59.809  -6.009  36.330  0.00  0.00    -0.144 F 
ATOM     20  F   UNL d   1      61.037  -5.891  35.606  0.00  0.00    -0.144 F 
ATOM     21  F   UNL d   1      60.204  -5.178  35.727  0.00  0.00    -0.144 F 
ENDBRANCH  17  18
ENDBRANCH   2  17
TORSDOF 4
ENDMDL
MODEL 5
REMARK VINA RESULT:      -3.2      3.250      5.072
REMARK  4 active torsions:
REMARK  status: ('A' for Active; 'I' for Inactive)
REMARK    1  A    between atoms: N_9  and  C_1 
REMARK    2  A    between atoms: C_5  and  O_12 
REMARK    3  A    between atoms: C_13  and  N_9 
REMARK    4  A    between atoms: O_12  and  C_17 
ROOT
ATOM      1  C   UNL d   1      56.779   0.024  32.556  0.00  0.00     0.083 A 
ATOM      2  C   UNL d   1      57.171  -0.186  30.964  0.00  0.00     0.102 A 
ATOM      3  C   UNL d   1      56.827  -0.746  32.240  0.00  0.00     0.021 A 
ATOM      4  C   UNL d   1      56.926   0.682  32.083  0.00  0.00     0.021 A 
ATOM      5  C   UNL d   1      57.022  -0.848  31.446  0.00  0.00     0.026 A 
ATOM      6  C   UNL d   1      57.122   0.574  31.285  0.00  0.00     0.026 A 
ENDROOT
BRANCH   1   7
ATOM      7  N   UNL d   1      56.582   0.122  33.358  0.00  0.00    -0.227 NA
BRANCH   7   8
ATOM      8  C   UNL d   1      55.806   0.309  33.569  0.00  0.00     0.169 A 
ATOM      9  C   UNL d   1      55.617   0.407  34.321  0.00  0.00     0.094 A 
ATOM     10  C   UNL d   1      54.875   0.585  34.516  0.00  0.00     0.190 A 
ATOM     11  C   UNL d   1      55.968   0.428  35.639  0.00  0.00     0.128 A 
ATOM     12  N   UNL d   1      54.692   0.682  35.274  0.00  0.00    -0.128 NA
ATOM     13  N   UNL d   1      54.332   0.663  33.971  0.00  0.00    -0.203 NA
ATOM     14  N   UNL d   1      55.226   0.606  35.834  0.00  0.00    -0.145 NA
ATOM     15  C   UNL d   1      54.515   0.566  33.212  0.00  0.00     0.202 A 
ATOM     16  N   UNL d   1      55.255   0.388  33.011  0.00  0.00    -0.205 NA
ENDBRANCH   7   8
ENDBRANCH   1   7
BRANCH   2  17
ATOM     17  O   UNL d   1      57.366  -0.287  30.170  0.00  0.00    -0.253 OA
BRANCH  17  18
ATOM     18  C   UNL d   1      58.148  -0.456  29.962  0.00  0.00     0.530 C 
ATOM     19  F   UNL d   1      58.748   0.098  30.100  0.00  0.00    -0.144 F 
ATOM     20  F   UNL d   1      58.328  -1.181  29.614  0.00  0.00    -0.144 F 
ATOM     21  F   UNL d   1      59.329  -0.717  29.643  0.00  0.00    -0.144 F 
ENDBRANCH  17  18
ENDBRANCH   2  17
TORSDOF 4
ENDMDL
