MODEL 1
REMARK VINA RESULT:      -2.6      0.000      0.000
REMARK  1 active torsions:
REMARK  status: ('A' for Active; 'I' for Inactive)
REMARK    1  A    between atoms: C_4  and  C_1 
ROOT
ATOM      1  C   UNL d   1      32.830  21.425 -21.371  0.00  0.00     0.024 A 
ATOM      2  C   UNL d   1      32.693  20.716 -20.971  0.00  0.00     0.002 A 
ATOM      3  C   UNL d   1      33.103  21.421 -22.146  0.00  0.00     0.002 A 
ATOM      4  C   UNL d   1      32.829  20.003 -21.347  0.00  0.00     0.000 A 
ATOM      5  C   UNL d   1      33.241  20.702 -22.529  0.00  0.00     0.000 A 
ATOM      6  C   UNL d   1      33.103  19.996 -22.125  0.00  0.00     0.000 A 
ATOM      7  C   UNL d   1      33.240  19.270 -22.504  0.00  0.00     0.000 C 
ENDROOT
BRANCH   1   8
ATOM      8  C   UNL d   1      32.691  22.144 -20.988  0.00  0.00     0.111 A 
ATOM      9  N   UNL d   1      32.020  22.587 -21.172  0.00  0.00    -0.237 NA
ATOM     10  C   UNL d   1      32.415  23.581 -20.223  0.00  0.00     0.106 A 
ATOM     11  C   UNL d   1      33.087  23.138 -20.039  0.00  0.00     0.058 A 
ATOM     12  S   UNL d   1      33.225  22.420 -20.422  0.00  0.00    -0.066 SA
ENDBRANCH   1   8
TORSDOF 1
ENDMDL
MODEL 2
REMARK VINA RESULT:      -2.5      5.716      6.713
REMARK  1 active torsions:
REMARK  status: ('A' for Active; 'I' for Inactive)
REMARK    1  A    between atoms: C_4  and  C_1 
ROOT
ATOM      1  C   UNL d   1      30.538  16.110 -23.784  0.00  0.00     0.024 A 
ATOM      2  C   UNL d   1      30.069  16.605 -24.249  0.00  0.00     0.002 A 
ATOM      3  C   UNL d   1      30.197  15.636 -23.206  0.00  0.00     0.002 A 
ATOM      4  C   UNL d   1      29.260  16.625 -24.136  0.00  0.00     0.000 A 
ATOM      5  C   UNL d   1      29.380  15.654 -23.089  0.00  0.00     0.000 A 
ATOM      6  C   UNL d   1      28.916  16.150 -23.557  0.00  0.00     0.000 A 
ATOM      7  C   UNL d   1      28.093  16.173 -23.445  0.00  0.00     0.000 C 
ENDROOT
BRANCH   1   8
ATOM      8  C   UNL d   1      31.356  16.092 -23.901  0.00  0.00     0.111 A 
ATOM      9  N   UNL d   1      31.697  15.483 -24.340  0.00  0.00    -0.237 NA
ATOM     10  C   UNL d   1      32.990  16.057 -24.133  0.00  0.00     0.106 A 
ATOM     11  C   UNL d   1      32.649  16.667 -23.694  0.00  0.00     0.058 A 
ATOM     12  S   UNL d   1      31.832  16.685 -23.578  0.00  0.00    -0.066 SA
ENDBRANCH   1   8
TORSDOF 1
ENDMDL
MODEL 3
REMARK VINA RESULT:      -2.5      1.040      3.036
REMARK  1 active torsions:
REMARK  status: ('A' for Active; 'I' for Inactive)
REMARK    1  A    between atoms: C_4  and  C_1 
ROOT
ATOM      1  C   UNL d   1      32.868  21.864 -21.112  0.00  0.00     0.024 A 
ATOM      2  C   UNL d   1      33.214  21.831 -20.363  0.00  0.00     0.002 A 
ATOM      3  C   UNL d   1      32.402  22.506 -21.328  0.00  0.00     0.002 A 
ATOM      4  C   UNL d   1      33.093  22.440 -19.831  0.00  0.00     0.000 A 
ATOM      5  C   UNL d   1      32.278  23.122 -20.792  0.00  0.00     0.000 A 
ATOM      6  C   UNL d   1      32.626  23.084 -20.045  0.00  0.00     0.000 A 
ATOM      7  C   UNL d   1      32.504  23.701 -19.502  0.00  0.00     0.000 C 
ENDROOT
BRANCH   1   8
ATOM      8  C   UNL d   1      32.992  21.248 -21.647  0.00  0.00     0.111 A 
ATOM      9  N   UNL d   1      33.240  21.413 -22.416  0.00  0.00    -0.237 NA
ATOM     10  C   UNL d   1      33.240  20.015 -22.717  0.00  0.00     0.106 A 
ATOM     11  C   UNL d   1      32.992  19.850 -21.947  0.00  0.00     0.058 A 
ATOM     12  S   UNL d   1      32.868  20.466 -21.412  0.00  0.00    -0.066 SA
ENDBRANCH   1   8
TORSDOF 1
ENDMDL
MODEL 4
REMARK VINA RESULT:      -2.4      4.287      5.429
REMARK  1 active torsions:
REMARK  status: ('A' for Active; 'I' for Inactive)
REMARK    1  A    between atoms: C_4  and  C_1 
ROOT
ATOM      1  C   UNL d   1      31.588  17.303 -24.005  0.00  0.00     0.024 A 
ATOM      2  C   UNL d   1      30.830  17.335 -24.329  0.00  0.00     0.002 A 
ATOM      3  C   UNL d   1      31.820  16.657 -23.552  0.00  0.00     0.002 A 
ATOM      4  C   UNL d   1      30.304  16.723 -24.200  0.00  0.00     0.000 A 
ATOM      5  C   UNL d   1      31.291  16.036 -23.420  0.00  0.00     0.000 A 
ATOM      6  C   UNL d   1      30.534  16.074 -23.746  0.00  0.00     0.000 A 
ATOM      7  C   UNL d   1      29.998  15.454 -23.617  0.00  0.00     0.000 C 
ENDROOT
BRANCH   1   8
ATOM      8  C   UNL d   1      32.117  17.923 -24.137  0.00  0.00     0.111 A 
ATOM      9  N   UNL d   1      32.366  18.394 -23.507  0.00  0.00    -0.237 NA
ATOM     10  C   UNL d   1      33.174  19.163 -24.402  0.00  0.00     0.106 A 
ATOM     11  C   UNL d   1      32.925  18.692 -25.032  0.00  0.00     0.058 A 
ATOM     12  S   UNL d   1      32.396  18.071 -24.900  0.00  0.00    -0.066 SA
ENDBRANCH   1   8
TORSDOF 1
ENDMDL
