MODEL 1
REMARK VINA RESULT:       5.8      0.000      0.000
REMARK  4 active torsions:
REMARK  status: ('A' for Active; 'I' for Inactive)
REMARK    1  A    between atoms: S_4  and  C_1 
REMARK    2  A    between atoms: N_7  and  C_3 
REMARK    3  A    between atoms: C_11  and  S_4 
REMARK    4  A    between atoms: C_8  and  C_6 
ROOT
ATOM      1  C   UNL d   1     -41.617-122.480 -52.110  0.00  0.00     0.210 A 
ATOM      2  N   UNL d   1     -41.618-122.973 -52.767  0.00  0.00    -0.205 NA
ATOM      3  C   UNL d   1     -41.386-121.727 -52.355  0.00  0.00     0.199 A 
ATOM      4  O   UNL d   1     -41.245-121.760 -53.165  0.00  0.00    -0.268 OA
ATOM      5  C   UNL d   1     -41.387-122.526 -53.419  0.00  0.00     0.208 A 
ENDROOT
BRANCH   1   6
ATOM      6  S   UNL d   1     -41.825-122.771 -51.367  0.00  0.00     0.230 S 
ATOM      7  O   UNL d   1     -42.544-122.568 -51.026  0.00  0.00    -0.215 OA
ATOM      8  O   UNL d   1     -41.305-123.274 -50.961  0.00  0.00    -0.215 OA
BRANCH   6   9
ATOM      9  C   UNL d   1     -42.026-123.066 -50.626  0.00  0.00     0.090 A 
ATOM     10  C   UNL d   1     -41.447-123.403 -50.152  0.00  0.00     0.011 A 
ATOM     11  C   UNL d   1     -41.639-123.703 -49.403  0.00  0.00     0.001 A 
ATOM     12  C   UNL d   1     -42.421-123.659 -49.135  0.00  0.00     0.000 A 
ATOM     13  C   UNL d   1     -43.006-123.318 -49.613  0.00  0.00     0.001 A 
ATOM     14  C   UNL d   1     -42.807-123.022 -50.358  0.00  0.00     0.011 A 
ENDBRANCH   6   9
ENDBRANCH   1   6
BRANCH   3  15
ATOM     15  N   UNL d   1     -41.310-121.060 -51.876  0.00  0.00    -0.283 N 
ATOM     16  C   UNL d   1     -41.306-120.421 -52.202  0.00  0.00     0.082 A 
ATOM     17  C   UNL d   1     -41.241-119.606 -51.937  0.00  0.00     0.019 A 
ATOM     18  C   UNL d   1     -41.167-119.294 -51.276  0.00  0.00     0.002 A 
ATOM     19  C   UNL d   1     -41.124-119.696 -50.539  0.00  0.00     0.002 A 
ATOM     20  C   UNL d   1     -41.160-120.575 -50.437  0.00  0.00     0.019 A 
ATOM     21  C   UNL d   1     -41.245-121.194 -51.053  0.00  0.00     0.082 A 
ENDBRANCH   3  15
BRANCH   5  22
ATOM     22  C   UNL d   1     -41.388-123.017 -54.072  0.00  0.00     0.141 A 
ATOM     23  O   UNL d   1     -41.210-123.773 -54.335  0.00  0.00    -0.302 OA
ATOM     24  C   UNL d   1     -41.389-123.817 -55.137  0.00  0.00     0.123 A 
ATOM     25  C   UNL d   1     -41.679-123.079 -55.368  0.00  0.00     0.029 A 
ATOM     26  C   UNL d   1     -41.678-122.586 -54.712  0.00  0.00     0.030 A 
ENDBRANCH   5  22
TORSDOF 4
ENDMDL
MODEL 2
REMARK VINA RESULT:       6.8      0.872      2.807
REMARK  4 active torsions:
REMARK  status: ('A' for Active; 'I' for Inactive)
REMARK    1  A    between atoms: S_4  and  C_1 
REMARK    2  A    between atoms: N_7  and  C_3 
REMARK    3  A    between atoms: C_11  and  S_4 
REMARK    4  A    between atoms: C_8  and  C_6 
ROOT
ATOM      1  C   UNL d   1     -41.850-122.379 -52.333  0.00  0.00     0.210 A 
ATOM      2  N   UNL d   1     -41.909-122.503 -53.142  0.00  0.00    -0.205 NA
ATOM      3  C   UNL d   1     -42.003-123.094 -51.951  0.00  0.00     0.199 A 
ATOM      4  O   UNL d   1     -42.157-123.658 -52.531  0.00  0.00    -0.268 OA
ATOM      5  C   UNL d   1     -42.099-123.296 -53.263  0.00  0.00     0.208 A 
ENDROOT
BRANCH   1   6
ATOM      6  S   UNL d   1     -41.664-121.632 -52.037  0.00  0.00     0.230 S 
ATOM      7  O   UNL d   1     -41.125-121.150 -52.426  0.00  0.00    -0.215 OA
ATOM      8  O   UNL d   1     -42.024-121.365 -51.338  0.00  0.00    -0.215 OA
BRANCH   6   9
ATOM      9  C   UNL d   1     -41.484-120.888 -51.734  0.00  0.00     0.090 A 
ATOM     10  C   UNL d   1     -41.389-120.790 -50.924  0.00  0.00     0.011 A 
ATOM     11  C   UNL d   1     -41.208-120.045 -50.610  0.00  0.00     0.001 A 
ATOM     12  C   UNL d   1     -41.123-119.398 -51.119  0.00  0.00     0.000 A 
ATOM     13  C   UNL d   1     -41.218-119.497 -51.936  0.00  0.00     0.001 A 
ATOM     14  C   UNL d   1     -41.399-120.242 -52.242  0.00  0.00     0.011 A 
ENDBRANCH   6   9
ENDBRANCH   1   6
BRANCH   3  15
ATOM     15  N   UNL d   1     -42.004-123.222 -51.136  0.00  0.00    -0.283 N 
ATOM     16  C   UNL d   1     -42.616-123.092 -50.785  0.00  0.00     0.082 A 
ATOM     17  C   UNL d   1     -42.865-123.146 -49.964  0.00  0.00     0.019 A 
ATOM     18  C   UNL d   1     -42.525-123.346 -49.344  0.00  0.00     0.002 A 
ATOM     19  C   UNL d   1     -41.726-123.598 -49.276  0.00  0.00     0.002 A 
ATOM     20  C   UNL d   1     -41.154-123.664 -49.949  0.00  0.00     0.019 A 
ATOM     21  C   UNL d   1     -41.288-123.490 -50.798  0.00  0.00     0.082 A 
ENDBRANCH   3  15
BRANCH   5  22
ATOM     22  C   UNL d   1     -42.157-123.420 -54.069  0.00  0.00     0.141 A 
ATOM     23  O   UNL d   1     -42.680-123.576 -54.680  0.00  0.00    -0.302 OA
ATOM     24  C   UNL d   1     -42.252-123.622 -55.382  0.00  0.00     0.123 A 
ATOM     25  C   UNL d   1     -41.458-123.493 -55.197  0.00  0.00     0.029 A 
ATOM     26  C   UNL d   1     -41.400-123.368 -54.388  0.00  0.00     0.030 A 
ENDBRANCH   5  22
TORSDOF 4
ENDMDL
MODEL 3
REMARK VINA RESULT:       7.7      1.090      4.128
REMARK  4 active torsions:
REMARK  status: ('A' for Active; 'I' for Inactive)
REMARK    1  A    between atoms: S_4  and  C_1 
REMARK    2  A    between atoms: N_7  and  C_3 
REMARK    3  A    between atoms: C_11  and  S_4 
REMARK    4  A    between atoms: C_8  and  C_6 
ROOT
ATOM      1  C   UNL d   1     -41.977-122.456 -51.620  0.00  0.00     0.210 A 
ATOM      2  N   UNL d   1     -42.090-122.605 -50.820  0.00  0.00    -0.205 NA
ATOM      3  C   UNL d   1     -42.098-123.161 -52.032  0.00  0.00     0.199 A 
ATOM      4  O   UNL d   1     -42.285-123.743 -51.480  0.00  0.00    -0.268 OA
ATOM      5  C   UNL d   1     -42.280-123.402 -50.736  0.00  0.00     0.208 A 
ENDROOT
BRANCH   1   6
ATOM      6  S   UNL d   1     -41.779-121.700 -51.881  0.00  0.00     0.230 S 
ATOM      7  O   UNL d   1     -41.129-121.585 -52.369  0.00  0.00    -0.215 OA
ATOM      8  O   UNL d   1     -42.240-121.050 -51.650  0.00  0.00    -0.215 OA
BRANCH   6   9
ATOM      9  C   UNL d   1     -41.587-120.942 -52.138  0.00  0.00     0.090 A 
ATOM     10  C   UNL d   1     -41.348-120.376 -51.593  0.00  0.00     0.011 A 
ATOM     11  C   UNL d   1     -41.153-119.610 -51.842  0.00  0.00     0.001 A 
ATOM     12  C   UNL d   1     -41.200-119.418 -52.645  0.00  0.00     0.000 A 
ATOM     13  C   UNL d   1     -41.442-119.989 -53.195  0.00  0.00     0.001 A 
ATOM     14  C   UNL d   1     -41.634-120.750 -52.941  0.00  0.00     0.011 A 
ENDBRANCH   6   9
ENDBRANCH   1   6
BRANCH   3  15
ATOM     15  N   UNL d   1     -42.042-123.265 -52.848  0.00  0.00    -0.283 N 
ATOM     16  C   UNL d   1     -41.449-123.585 -53.097  0.00  0.00     0.082 A 
ATOM     17  C   UNL d   1     -41.161-123.802 -53.877  0.00  0.00     0.019 A 
ATOM     18  C   UNL d   1     -41.434-123.728 -54.555  0.00  0.00     0.002 A 
ATOM     19  C   UNL d   1     -42.171-123.377 -54.759  0.00  0.00     0.002 A 
ATOM     20  C   UNL d   1     -42.748-123.034 -54.181  0.00  0.00     0.019 A 
ATOM     21  C   UNL d   1     -42.682-122.986 -53.307  0.00  0.00     0.082 A 
ENDBRANCH   3  15
BRANCH   5  22
ATOM     22  C   UNL d   1     -42.392-123.550 -49.940  0.00  0.00     0.141 A 
ATOM     23  O   UNL d   1     -42.023-123.804 -49.253  0.00  0.00    -0.302 OA
ATOM     24  C   UNL d   1     -42.575-123.792 -48.643  0.00  0.00     0.123 A 
ATOM     25  C   UNL d   1     -43.290-123.526 -48.959  0.00  0.00     0.029 A 
ATOM     26  C   UNL d   1     -43.177-123.378 -49.759  0.00  0.00     0.030 A 
ENDBRANCH   5  22
TORSDOF 4
ENDMDL
MODEL 4
REMARK VINA RESULT:       8.0      1.190      3.282
REMARK  4 active torsions:
REMARK  status: ('A' for Active; 'I' for Inactive)
REMARK    1  A    between atoms: S_4  and  C_1 
REMARK    2  A    between atoms: N_7  and  C_3 
REMARK    3  A    between atoms: C_11  and  S_4 
REMARK    4  A    between atoms: C_8  and  C_6 
ROOT
ATOM      1  C   UNL d   1     -41.849-121.364 -51.186  0.00  0.00     0.210 A 
ATOM      2  N   UNL d   1     -41.740-120.589 -50.938  0.00  0.00    -0.205 NA
ATOM      3  C   UNL d   1     -41.603-121.419 -51.972  0.00  0.00     0.199 A 
ATOM      4  O   UNL d   1     -41.342-120.673 -52.204  0.00  0.00    -0.268 OA
ATOM      5  C   UNL d   1     -41.426-120.163 -51.569  0.00  0.00     0.208 A 
ENDROOT
BRANCH   1   6
ATOM      6  S   UNL d   1     -42.159-121.929 -50.673  0.00  0.00     0.230 S 
ATOM      7  O   UNL d   1     -42.851-122.329 -50.860  0.00  0.00    -0.215 OA
ATOM      8  O   UNL d   1     -41.769-122.096 -49.959  0.00  0.00    -0.215 OA
BRANCH   6   9
ATOM      9  C   UNL d   1     -42.462-122.492 -50.154  0.00  0.00     0.090 A 
ATOM     10  C   UNL d   1     -41.973-122.825 -49.585  0.00  0.00     0.011 A 
ATOM     11  C   UNL d   1     -42.269-123.393 -49.058  0.00  0.00     0.001 A 
ATOM     12  C   UNL d   1     -43.062-123.623 -49.110  0.00  0.00     0.000 A 
ATOM     13  C   UNL d   1     -43.556-123.287 -49.685  0.00  0.00     0.001 A 
ATOM     14  C   UNL d   1     -43.254-122.722 -50.206  0.00  0.00     0.011 A 
ENDBRANCH   6   9
ENDBRANCH   1   6
BRANCH   3  15
ATOM     15  N   UNL d   1     -41.615-122.097 -52.441  0.00  0.00    -0.283 N 
ATOM     16  C   UNL d   1     -41.980-122.062 -53.059  0.00  0.00     0.082 A 
ATOM     17  C   UNL d   1     -42.138-122.611 -53.700  0.00  0.00     0.019 A 
ATOM     18  C   UNL d   1     -41.948-123.309 -53.826  0.00  0.00     0.002 A 
ATOM     19  C   UNL d   1     -41.480-123.794 -53.324  0.00  0.00     0.002 A 
ATOM     20  C   UNL d   1     -41.134-123.541 -52.549  0.00  0.00     0.019 A 
ATOM     21  C   UNL d   1     -41.200-122.762 -52.151  0.00  0.00     0.082 A 
ENDBRANCH   3  15
BRANCH   5  22
ATOM     22  C   UNL d   1     -41.318-119.392 -51.321  0.00  0.00     0.141 A 
ATOM     23  O   UNL d   1     -41.243-118.910 -50.662  0.00  0.00    -0.302 OA
ATOM     24  C   UNL d   1     -41.141-118.135 -50.918  0.00  0.00     0.123 A 
ATOM     25  C   UNL d   1     -41.153-118.141 -51.743  0.00  0.00     0.029 A 
ATOM     26  C   UNL d   1     -41.262-118.916 -51.992  0.00  0.00     0.030 A 
ENDBRANCH   5  22
TORSDOF 4
ENDMDL
