MODEL 1
REMARK VINA RESULT:      96.2      0.000      0.000
REMARK  4 active torsions:
REMARK  status: ('A' for Active; 'I' for Inactive)
REMARK    1  A    between atoms: N_3  and  S_1 
REMARK    2  A    between atoms: C_13  and  S_1 
REMARK    3  A    between atoms: C_2  and  N_3 
REMARK    4  A    between atoms: N_8  and  C_4 
REMARK       I    between atoms: C_10  and  N_9 
ROOT
ATOM      1  C   UNL d   1     -50.541  25.945  33.664  0.00  0.00     0.110 A 
ATOM      2  C   UNL d   1     -51.069  25.025  33.574  0.00  0.00     0.083 A 
ATOM      3  C   UNL d   1     -49.761  25.694  33.616  0.00  0.00     0.020 A 
ATOM      4  C   UNL d   1     -50.464  24.467  33.496  0.00  0.00     0.018 A 
ATOM      5  C   UNL d   1     -49.754  24.886  33.525  0.00  0.00     0.003 A 
ATOM      6  C   UNL d   1     -49.036  24.485  33.462  0.00  0.00     0.000 A 
ATOM      7  C   UNL d   1     -49.052  26.130  33.647  0.00  0.00     0.002 A 
ATOM      8  C   UNL d   1     -50.458  23.659  33.405  0.00  0.00     0.002 A 
ATOM      9  C   UNL d   1     -49.737  23.237  33.340  0.00  0.00     0.000 A 
ATOM     10  C   UNL d   1     -48.333  25.711  33.582  0.00  0.00     0.000 A 
ATOM     11  C   UNL d   1     -49.028  23.668  33.370  0.00  0.00     0.000 A 
ATOM     12  C   UNL d   1     -48.325  24.895  33.490  0.00  0.00     0.000 A 
ENDROOT
BRANCH   1  13
ATOM     13  N   UNL d   1     -50.733  26.733  33.757  0.00  0.00    -0.157 NA
BRANCH  13  14
ATOM     14  S   UNL d   1     -50.230  27.257  34.147  0.00  0.00     0.285 S 
ATOM     15  O   UNL d   1     -50.640  27.113  34.850  0.00  0.00    -0.198 OA
ATOM     16  O   UNL d   1     -49.828  27.396  33.447  0.00  0.00    -0.198 OA
BRANCH  14  17
ATOM     17  C   UNL d   1     -49.735  27.776  34.539  0.00  0.00     0.105 A 
ATOM     18  C   UNL d   1     -49.475  28.458  34.163  0.00  0.00     0.013 A 
ATOM     19  C   UNL d   1     -48.973  28.995  34.543  0.00  0.00     0.001 A 
ATOM     20  C   UNL d   1     -48.736  28.821  35.332  0.00  0.00     0.000 A 
ATOM     21  C   UNL d   1     -48.995  28.142  35.706  0.00  0.00     0.001 A 
ATOM     22  C   UNL d   1     -49.491  27.620  35.316  0.00  0.00     0.013 A 
ENDBRANCH  14  17
ENDBRANCH  13  14
ENDBRANCH   1  13
BRANCH   2  23
ATOM     23  N   UNL d   1     -51.850  24.781  33.566  0.00  0.00    -0.300 N 
ATOM     24  C   UNL d   1     -52.028  23.986  33.700  0.00  0.00     0.100 A 
ATOM     25  C   UNL d   1     -52.791  23.758  33.691  0.00  0.00     0.102 A 
ATOM     26  N   UNL d   1     -53.437  24.289  33.549  0.00  0.00    -0.269 N 
ATOM     27  C   UNL d   1     -53.258  25.075  33.417  0.00  0.00     0.102 A 
ATOM     28  C   UNL d   1     -54.228  24.056  33.539  0.00  0.00     0.265 C 
ATOM     29  C   UNL d   1     -52.424  25.334  33.425  0.00  0.00     0.100 A 
ATOM     30  O   UNL d   1     -54.468  23.272  33.667  0.00  0.00    -0.267 OA
ATOM     31  C   UNL d   1     -54.858  24.568  33.402  0.00  0.00     0.066 C 
ENDBRANCH   2  23
TORSDOF 4
ENDMDL
MODEL 2
REMARK VINA RESULT:      96.6      1.637      2.897
REMARK  4 active torsions:
REMARK  status: ('A' for Active; 'I' for Inactive)
REMARK    1  A    between atoms: N_3  and  S_1 
REMARK    2  A    between atoms: C_13  and  S_1 
REMARK    3  A    between atoms: C_2  and  N_3 
REMARK    4  A    between atoms: N_8  and  C_4 
REMARK       I    between atoms: C_10  and  N_9 
ROOT
ATOM      1  C   UNL d   1     -50.204  25.472  33.368  0.00  0.00     0.110 A 
ATOM      2  C   UNL d   1     -51.154  25.952  33.350  0.00  0.00     0.083 A 
ATOM      3  C   UNL d   1     -50.419  24.679  33.361  0.00  0.00     0.020 A 
ATOM      4  C   UNL d   1     -51.686  25.320  33.336  0.00  0.00     0.018 A 
ATOM      5  C   UNL d   1     -51.231  24.632  33.343  0.00  0.00     0.003 A 
ATOM      6  C   UNL d   1     -51.599  23.893  33.333  0.00  0.00     0.000 A 
ATOM      7  C   UNL d   1     -49.947  23.994  33.368  0.00  0.00     0.002 A 
ATOM      8  C   UNL d   1     -52.497  25.272  33.318  0.00  0.00     0.002 A 
ATOM      9  C   UNL d   1     -52.887  24.530  33.307  0.00  0.00     0.000 A 
ATOM     10  C   UNL d   1     -50.333  23.254  33.357  0.00  0.00     0.000 A 
ATOM     11  C   UNL d   1     -52.420  23.844  33.315  0.00  0.00     0.000 A 
ATOM     12  C   UNL d   1     -51.153  23.204  33.340  0.00  0.00     0.000 A 
ENDROOT
BRANCH   1  13
ATOM     13  N   UNL d   1     -49.423  25.704  33.386  0.00  0.00    -0.157 NA
BRANCH  13  14
ATOM     14  S   UNL d   1     -49.155  26.281  33.911  0.00  0.00     0.285 S 
ATOM     15  O   UNL d   1     -49.207  26.842  33.306  0.00  0.00    -0.198 OA
ATOM     16  O   UNL d   1     -49.106  25.721  34.506  0.00  0.00    -0.198 OA
BRANCH  14  17
ATOM     17  C   UNL d   1     -48.890  26.858  34.427  0.00  0.00     0.105 A 
ATOM     18  C   UNL d   1     -48.324  27.399  34.179  0.00  0.00     0.013 A 
ATOM     19  C   UNL d   1     -48.043  27.990  34.686  0.00  0.00     0.001 A 
ATOM     20  C   UNL d   1     -48.356  28.020  35.467  0.00  0.00     0.000 A 
ATOM     21  C   UNL d   1     -48.920  27.481  35.713  0.00  0.00     0.001 A 
ATOM     22  C   UNL d   1     -49.188  26.902  35.199  0.00  0.00     0.013 A 
ENDBRANCH  14  17
ENDBRANCH  13  14
ENDBRANCH   1  13
BRANCH   2  23
ATOM     23  N   UNL d   1     -51.437  26.720  33.346  0.00  0.00    -0.300 N 
ATOM     24  C   UNL d   1     -50.903  27.349  33.316  0.00  0.00     0.100 A 
ATOM     25  C   UNL d   1     -51.186  28.093  33.313  0.00  0.00     0.102 A 
ATOM     26  N   UNL d   1     -52.014  28.278  33.340  0.00  0.00    -0.269 N 
ATOM     27  C   UNL d   1     -52.540  27.654  33.370  0.00  0.00     0.102 A 
ATOM     28  C   UNL d   1     -52.312  29.048  33.337  0.00  0.00     0.265 C 
ATOM     29  C   UNL d   1     -52.238  26.836  33.373  0.00  0.00     0.100 A 
ATOM     30  O   UNL d   1     -51.824  29.718  33.308  0.00  0.00    -0.267 OA
ATOM     31  C   UNL d   1     -53.113  29.233  33.363  0.00  0.00     0.066 C 
ENDBRANCH   2  23
TORSDOF 4
ENDMDL
