MODEL 1
REMARK VINA RESULT:      -6.8      0.000      0.000
REMARK  6 active torsions:
REMARK  status: ('A' for Active; 'I' for Inactive)
REMARK    1  A    between atoms: C_19  and  N_1 
REMARK    2  A    between atoms: S_12  and  C_2 
REMARK       I    between atoms: N_7  and  C_10 
REMARK    3  A    between atoms: C_10  and  C_23 
REMARK    4  A    between atoms: C_23  and  S_12 
REMARK    5  A    between atoms: O_26  and  C_17 
REMARK    6  A    between atoms: O_27  and  C_18 
ROOT
ATOM      1  S   UNL d   1     -48.205  13.776  22.593  0.00  0.00    -0.044 SA
ENDROOT
BRANCH   1   2
ATOM      2  C   UNL d   1     -48.937  14.106  22.769  0.00  0.00     0.183 A 
ATOM      3  N   UNL d   1     -49.633  13.699  22.579  0.00  0.00    -0.254 N 
ATOM      4  C   UNL d   1     -50.369  14.028  22.755  0.00  0.00     0.271 A 
ATOM      5  C   UNL d   1     -50.412  14.768  23.122  0.00  0.00     0.115 A 
ATOM      6  O   UNL d   1     -51.064  13.614  22.562  0.00  0.00    -0.266 OA
ATOM      7  C   UNL d   1     -49.712  15.175  23.311  0.00  0.00     0.192 A 
ATOM      8  C   UNL d   1     -51.052  15.234  23.363  0.00  0.00     0.130 A 
ATOM      9  N   UNL d   1     -49.928  15.888  23.667  0.00  0.00    -0.128 NA
ATOM     10  N   UNL d   1     -48.980  14.846  23.135  0.00  0.00    -0.201 NA
ATOM     11  N   UNL d   1     -50.743  15.922  23.698  0.00  0.00    -0.145 NA
BRANCH   3  12
ATOM     12  C   UNL d   1     -49.589  12.962  22.214  0.00  0.00     0.069 A 
ATOM     13  C   UNL d   1     -49.600  12.276  22.671  0.00  0.00     0.018 A 
ATOM     14  C   UNL d   1     -49.556  11.531  22.302  0.00  0.00     0.002 A 
ATOM     15  C   UNL d   1     -49.502  11.482  21.480  0.00  0.00     0.000 A 
ATOM     16  C   UNL d   1     -49.492  12.167  21.027  0.00  0.00     0.002 A 
ATOM     17  C   UNL d   1     -49.536  12.911  21.396  0.00  0.00     0.018 A 
ENDBRANCH   3  12
ENDBRANCH   1   2
BRANCH   1  18
ATOM     18  C   UNL d   1     -47.526  14.052  22.973  0.00  0.00     0.099 C 
BRANCH  18  19
ATOM     19  C   UNL d   1     -46.803  14.036  22.583  0.00  0.00     0.271 C 
ATOM     20  N   UNL d   1     -46.272  13.414  22.718  0.00  0.00    -0.272 N 
ATOM     21  C   UNL d   1     -45.545  13.396  22.327  0.00  0.00     0.083 A 
ATOM     22  C   UNL d   1     -46.472  12.812  23.242  0.00  0.00     0.083 A 
ATOM     23  C   UNL d   1     -45.022  12.778  22.463  0.00  0.00     0.020 A 
ATOM     24  C   UNL d   1     -44.299  12.762  22.074  0.00  0.00     0.028 A 
ATOM     25  C   UNL d   1     -45.221  12.176  22.988  0.00  0.00     0.005 A 
ATOM     26  C   UNL d   1     -43.768  12.140  22.209  0.00  0.00     0.116 A 
ATOM     27  C   UNL d   1     -43.967  11.538  22.733  0.00  0.00     0.116 A 
ATOM     28  C   UNL d   1     -44.698  11.559  23.124  0.00  0.00     0.026 A 
ATOM     29  C   UNL d   1     -45.944  12.193  23.377  0.00  0.00     0.019 A 
ATOM     30  O   UNL d   1     -46.608  14.640  22.059  0.00  0.00    -0.266 OA
BRANCH  26  31
ATOM     31  O   UNL d   1     -43.041  12.122  21.818  0.00  0.00    -0.326 OA
ATOM     32  C   UNL d   1     -42.859  12.686  21.247  0.00  0.00     0.181 C 
ENDBRANCH  26  31
BRANCH  27  33
ATOM     33  O   UNL d   1     -43.443  10.909  22.876  0.00  0.00    -0.326 OA
ATOM     34  C   UNL d   1     -43.687  10.256  23.313  0.00  0.00     0.181 C 
ENDBRANCH  27  33
ENDBRANCH  18  19
ENDBRANCH   1  18
TORSDOF 6
ENDMDL
MODEL 2
REMARK VINA RESULT:      -5.5      1.103      2.183
REMARK  6 active torsions:
REMARK  status: ('A' for Active; 'I' for Inactive)
REMARK    1  A    between atoms: C_19  and  N_1 
REMARK    2  A    between atoms: S_12  and  C_2 
REMARK       I    between atoms: N_7  and  C_10 
REMARK    3  A    between atoms: C_10  and  C_23 
REMARK    4  A    between atoms: C_23  and  S_12 
REMARK    5  A    between atoms: O_26  and  C_17 
REMARK    6  A    between atoms: O_27  and  C_18 
ROOT
ATOM      1  S   UNL d   1     -48.256  13.522  22.723  0.00  0.00    -0.044 SA
ENDROOT
BRANCH   1   2
ATOM      2  C   UNL d   1     -48.929  13.106  22.944  0.00  0.00     0.183 A 
ATOM      3  N   UNL d   1     -49.657  13.496  23.005  0.00  0.00    -0.254 N 
ATOM      4  C   UNL d   1     -50.335  13.081  23.227  0.00  0.00     0.271 A 
ATOM      5  C   UNL d   1     -50.287  12.271  23.389  0.00  0.00     0.115 A 
ATOM      6  O   UNL d   1     -51.063  13.479  23.287  0.00  0.00    -0.266 OA
ATOM      7  C   UNL d   1     -49.555  11.881  23.327  0.00  0.00     0.192 A 
ATOM      8  C   UNL d   1     -50.855  11.715  23.619  0.00  0.00     0.130 A 
ATOM      9  N   UNL d   1     -49.680  11.088  23.519  0.00  0.00    -0.128 NA
ATOM     10  N   UNL d   1     -48.882  12.296  23.106  0.00  0.00    -0.201 NA
ATOM     11  N   UNL d   1     -50.470  10.989  23.696  0.00  0.00    -0.145 NA
BRANCH   3  12
ATOM     12  C   UNL d   1     -49.704  14.302  22.844  0.00  0.00     0.069 A 
ATOM     13  C   UNL d   1     -49.958  14.559  22.103  0.00  0.00     0.018 A 
ATOM     14  C   UNL d   1     -50.006  15.374  21.940  0.00  0.00     0.002 A 
ATOM     15  C   UNL d   1     -49.798  15.921  22.521  0.00  0.00     0.000 A 
ATOM     16  C   UNL d   1     -49.545  15.664  23.258  0.00  0.00     0.002 A 
ATOM     17  C   UNL d   1     -49.498  14.849  23.421  0.00  0.00     0.018 A 
ENDBRANCH   3  12
ENDBRANCH   1   2
BRANCH   1  18
ATOM     18  C   UNL d   1     -47.517  13.293  23.012  0.00  0.00     0.099 C 
BRANCH  18  19
ATOM     19  C   UNL d   1     -46.836  13.479  22.590  0.00  0.00     0.271 C 
ATOM     20  N   UNL d   1     -46.171  12.986  22.637  0.00  0.00    -0.272 N 
ATOM     21  C   UNL d   1     -45.487  13.171  22.215  0.00  0.00     0.083 A 
ATOM     22  C   UNL d   1     -46.195  12.311  23.107  0.00  0.00     0.083 A 
ATOM     23  C   UNL d   1     -44.830  12.681  22.263  0.00  0.00     0.020 A 
ATOM     24  C   UNL d   1     -44.150  12.866  21.842  0.00  0.00     0.028 A 
ATOM     25  C   UNL d   1     -44.853  12.005  22.733  0.00  0.00     0.005 A 
ATOM     26  C   UNL d   1     -43.484  12.374  21.889  0.00  0.00     0.116 A 
ATOM     27  C   UNL d   1     -43.507  11.698  22.359  0.00  0.00     0.116 A 
ATOM     28  C   UNL d   1     -44.196  11.516  22.782  0.00  0.00     0.026 A 
ATOM     29  C   UNL d   1     -45.533  11.820  23.154  0.00  0.00     0.019 A 
ATOM     30  O   UNL d   1     -46.818  14.155  22.122  0.00  0.00    -0.266 OA
BRANCH  26  31
ATOM     31  O   UNL d   1     -42.800  12.559  21.466  0.00  0.00    -0.326 OA
ATOM     32  C   UNL d   1     -42.696  13.310  21.147  0.00  0.00     0.181 C 
ENDBRANCH  26  31
BRANCH  27  33
ATOM     33  O   UNL d   1     -42.847  11.197  22.413  0.00  0.00    -0.326 OA
ATOM     34  C   UNL d   1     -42.670  10.818  23.122  0.00  0.00     0.181 C 
ENDBRANCH  27  33
ENDBRANCH  18  19
ENDBRANCH   1  18
TORSDOF 6
ENDMDL
MODEL 3
REMARK VINA RESULT:      -4.7      3.811      7.734
REMARK  6 active torsions:
REMARK  status: ('A' for Active; 'I' for Inactive)
REMARK    1  A    between atoms: C_19  and  N_1 
REMARK    2  A    between atoms: S_12  and  C_2 
REMARK       I    between atoms: N_7  and  C_10 
REMARK    3  A    between atoms: C_10  and  C_23 
REMARK    4  A    between atoms: C_23  and  S_12 
REMARK    5  A    between atoms: O_26  and  C_17 
REMARK    6  A    between atoms: O_27  and  C_18 
ROOT
ATOM      1  S   UNL d   1     -41.293  13.930  20.732  0.00  0.00    -0.044 SA
ENDROOT
BRANCH   1   2
ATOM      2  C   UNL d   1     -40.947  14.213  20.042  0.00  0.00     0.183 A 
ATOM      3  N   UNL d   1     -40.316  14.749  20.083  0.00  0.00    -0.254 N 
ATOM      4  C   UNL d   1     -39.968  15.034  19.392  0.00  0.00     0.271 A 
ATOM      5  C   UNL d   1     -40.248  14.786  18.655  0.00  0.00     0.115 A 
ATOM      6  O   UNL d   1     -39.334  15.572  19.441  0.00  0.00    -0.266 OA
ATOM      7  C   UNL d   1     -40.882  14.248  18.617  0.00  0.00     0.192 A 
ATOM      8  C   UNL d   1     -40.020  14.968  17.882  0.00  0.00     0.130 A 
ATOM      9  N   UNL d   1     -41.037  14.105  17.818  0.00  0.00    -0.128 NA
ATOM     10  N   UNL d   1     -41.228  13.965  19.305  0.00  0.00    -0.201 NA
ATOM     11  N   UNL d   1     -40.513  14.544  17.373  0.00  0.00    -0.145 NA
BRANCH   3  12
ATOM     12  C   UNL d   1     -40.037  14.996  20.817  0.00  0.00     0.069 A 
ATOM     13  C   UNL d   1     -39.445  14.565  21.198  0.00  0.00     0.018 A 
ATOM     14  C   UNL d   1     -39.163  14.815  21.940  0.00  0.00     0.002 A 
ATOM     15  C   UNL d   1     -39.475  15.493  22.291  0.00  0.00     0.000 A 
ATOM     16  C   UNL d   1     -40.064  15.920  21.910  0.00  0.00     0.002 A 
ATOM     17  C   UNL d   1     -40.346  15.670  21.169  0.00  0.00     0.018 A 
ENDBRANCH   3  12
ENDBRANCH   1   2
BRANCH   1  18
ATOM     18  C   UNL d   1     -42.076  13.670  20.723  0.00  0.00     0.099 C 
BRANCH  18  19
ATOM     19  C   UNL d   1     -42.310  13.056  21.218  0.00  0.00     0.271 C 
ATOM     20  N   UNL d   1     -43.091  13.019  21.492  0.00  0.00    -0.272 N 
ATOM     21  C   UNL d   1     -43.328  12.404  21.989  0.00  0.00     0.083 A 
ATOM     22  C   UNL d   1     -43.632  13.597  21.268  0.00  0.00     0.083 A 
ATOM     23  C   UNL d   1     -44.103  12.370  22.259  0.00  0.00     0.020 A 
ATOM     24  C   UNL d   1     -44.337  11.758  22.753  0.00  0.00     0.028 A 
ATOM     25  C   UNL d   1     -44.644  12.949  22.034  0.00  0.00     0.005 A 
ATOM     26  C   UNL d   1     -45.119  11.720  23.027  0.00  0.00     0.116 A 
ATOM     27  C   UNL d   1     -45.659  12.298  22.803  0.00  0.00     0.116 A 
ATOM     28  C   UNL d   1     -45.418  12.914  22.304  0.00  0.00     0.026 A 
ATOM     29  C   UNL d   1     -44.409  13.561  21.540  0.00  0.00     0.019 A 
ATOM     30  O   UNL d   1     -41.766  12.480  21.440  0.00  0.00    -0.266 OA
BRANCH  26  31
ATOM     31  O   UNL d   1     -45.356  11.105  23.524  0.00  0.00    -0.326 OA
ATOM     32  C   UNL d   1     -44.863  10.458  23.653  0.00  0.00     0.181 C 
ENDBRANCH  26  31
BRANCH  27  33
ATOM     33  O   UNL d   1     -46.446  12.271  23.072  0.00  0.00    -0.326 OA
ATOM     34  C   UNL d   1     -46.931  12.932  23.004  0.00  0.00     0.181 C 
ENDBRANCH  27  33
ENDBRANCH  18  19
ENDBRANCH   1  18
TORSDOF 6
ENDMDL
MODEL 4
REMARK VINA RESULT:      -3.9      3.923      7.900
REMARK  6 active torsions:
REMARK  status: ('A' for Active; 'I' for Inactive)
REMARK    1  A    between atoms: C_19  and  N_1 
REMARK    2  A    between atoms: S_12  and  C_2 
REMARK       I    between atoms: N_7  and  C_10 
REMARK    3  A    between atoms: C_10  and  C_23 
REMARK    4  A    between atoms: C_23  and  S_12 
REMARK    5  A    between atoms: O_26  and  C_17 
REMARK    6  A    between atoms: O_27  and  C_18 
ROOT
ATOM      1  S   UNL d   1     -41.224  14.131  20.528  0.00  0.00    -0.044 SA
ENDROOT
BRANCH   1   2
ATOM      2  C   UNL d   1     -40.417  14.086  20.679  0.00  0.00     0.183 A 
ATOM      3  N   UNL d   1     -39.872  14.320  20.101  0.00  0.00    -0.254 N 
ATOM      4  C   UNL d   1     -39.062  14.275  20.251  0.00  0.00     0.271 A 
ATOM      5  C   UNL d   1     -38.792  13.995  20.981  0.00  0.00     0.115 A 
ATOM      6  O   UNL d   1     -38.519  14.513  19.665  0.00  0.00    -0.266 OA
ATOM      7  C   UNL d   1     -39.342  13.761  21.559  0.00  0.00     0.192 A 
ATOM      8  C   UNL d   1     -38.033  13.888  21.290  0.00  0.00     0.130 A 
ATOM      9  N   UNL d   1     -38.914  13.511  22.220  0.00  0.00    -0.128 NA
ATOM     10  N   UNL d   1     -40.148  13.806  21.409  0.00  0.00    -0.201 NA
ATOM     11  N   UNL d   1     -38.119  13.588  22.054  0.00  0.00    -0.145 NA
BRANCH   3  12
ATOM     12  C   UNL d   1     -40.141  14.599  19.374  0.00  0.00     0.069 A 
ATOM     13  C   UNL d   1     -40.265  15.407  19.264  0.00  0.00     0.018 A 
ATOM     14  C   UNL d   1     -40.536  15.688  18.530  0.00  0.00     0.002 A 
ATOM     15  C   UNL d   1     -40.680  15.159  17.914  0.00  0.00     0.000 A 
ATOM     16  C   UNL d   1     -40.556  14.355  18.026  0.00  0.00     0.002 A 
ATOM     17  C   UNL d   1     -40.284  14.073  18.760  0.00  0.00     0.018 A 
ENDBRANCH   3  12
ENDBRANCH   1   2
BRANCH   1  18
ATOM     18  C   UNL d   1     -41.750  13.655  20.948  0.00  0.00     0.099 C 
BRANCH  18  19
ATOM     19  C   UNL d   1     -42.505  13.928  21.119  0.00  0.00     0.271 C 
ATOM     20  N   UNL d   1     -43.060  13.424  21.471  0.00  0.00    -0.272 N 
ATOM     21  C   UNL d   1     -43.820  13.697  21.644  0.00  0.00     0.083 A 
ATOM     22  C   UNL d   1     -42.853  12.648  21.649  0.00  0.00     0.083 A 
ATOM     23  C   UNL d   1     -44.368  13.194  21.993  0.00  0.00     0.020 A 
ATOM     24  C   UNL d   1     -45.122  13.468  22.163  0.00  0.00     0.028 A 
ATOM     25  C   UNL d   1     -44.160  12.418  22.171  0.00  0.00     0.005 A 
ATOM     26  C   UNL d   1     -45.678  12.963  22.516  0.00  0.00     0.116 A 
ATOM     27  C   UNL d   1     -45.471  12.187  22.694  0.00  0.00     0.116 A 
ATOM     28  C   UNL d   1     -44.707  11.915  22.519  0.00  0.00     0.026 A 
ATOM     29  C   UNL d   1     -43.404  12.145  22.000  0.00  0.00     0.019 A 
ATOM     30  O   UNL d   1     -42.708  14.705  20.939  0.00  0.00    -0.266 OA
BRANCH  26  31
ATOM     31  O   UNL d   1     -46.438  13.236  22.688  0.00  0.00    -0.326 OA
ATOM     32  C   UNL d   1     -46.609  14.041  22.657  0.00  0.00     0.181 C 
ENDBRANCH  26  31
BRANCH  27  33
ATOM     33  O   UNL d   1     -46.019  11.672  23.047  0.00  0.00    -0.326 OA
ATOM     34  C   UNL d   1     -45.760  11.040  23.506  0.00  0.00     0.181 C 
ENDBRANCH  27  33
ENDBRANCH  18  19
ENDBRANCH   1  18
TORSDOF 6
ENDMDL
