MODEL 1
REMARK VINA RESULT:      77.1      0.000      0.000
REMARK  8 active torsions:
REMARK  status: ('A' for Active; 'I' for Inactive)
REMARK    1  A    between atoms: C_9  and  S_1 
REMARK    2  A    between atoms: N_10  and  S_1 
REMARK    3  A    between atoms: C_17  and  C_3 
REMARK    4  A    between atoms: C_4  and  N_14 
REMARK    5  A    between atoms: C_8  and  C_16 
REMARK       I    between atoms: N_11  and  C_8 
REMARK    6  A    between atoms: C_27  and  N_10 
REMARK    7  A    between atoms: C_28  and  N_10 
REMARK    8  A    between atoms: N_14  and  N_11 
ROOT
ATOM      1  N   UNL d   1      13.742  14.360  -3.872  0.00  0.00     0.049 NA
ENDROOT
BRANCH   1   2
ATOM      2  C   UNL d   1      13.967  14.019  -3.101  0.00  0.00     0.768 A 
ATOM      3  N   UNL d   1      14.314  14.497  -2.530  0.00  0.00    -0.058 NA
ATOM      4  C   UNL d   1      14.523  14.175  -1.812  0.00  0.00     0.101 A 
ATOM      5  C   UNL d   1      14.397  13.375  -1.636  0.00  0.00     0.037 A 
ATOM      6  C   UNL d   1      14.042  12.910  -2.233  0.00  0.00     0.101 A 
ATOM      7  C   UNL d   1      14.602  13.051  -0.925  0.00  0.00     0.010 A 
ATOM      8  N   UNL d   1      13.827  13.214  -2.956  0.00  0.00    -0.058 NA
ATOM      9  C   UNL d   1      13.899  12.103  -2.096  0.00  0.00     0.020 A 
ATOM     10  C   UNL d   1      14.104  11.780  -1.385  0.00  0.00     0.008 A 
ATOM     11  C   UNL d   1      14.472  12.266  -0.768  0.00  0.00     0.035 A 
ATOM     12 BR   UNL d   1      14.693  11.939  -0.016  0.00  0.00    -0.049 Br
BRANCH   4  13
ATOM     13  C   UNL d   1      14.876  14.631  -1.212  0.00  0.00     0.018 A 
ATOM     14  C   UNL d   1      15.354  14.297  -0.653  0.00  0.00     0.002 A 
ATOM     15  C   UNL d   1      15.705  14.763  -0.054  0.00  0.00     0.000 A 
ATOM     16  C   UNL d   1      15.545  15.598  -0.048  0.00  0.00     0.000 A 
ATOM     17  C   UNL d   1      15.054  15.907  -0.631  0.00  0.00     0.000 A 
ATOM     18  C   UNL d   1      14.730  15.453  -1.192  0.00  0.00     0.002 A 
ENDBRANCH   4  13
ENDBRANCH   1   2
BRANCH   1  19
ATOM     19  N   UNL d   1      13.595  13.862  -4.518  0.00  0.00    -0.090 NA
ATOM     20  C   UNL d   1      13.538  14.159  -5.273  0.00  0.00     0.297 C 
ATOM     21  O   UNL d   1      13.396  13.686  -5.902  0.00  0.00    -0.264 OA
BRANCH  20  22
ATOM     22  C   UNL d   1      13.628  14.957  -5.395  0.00  0.00     0.059 A 
ATOM     23  C   UNL d   1      14.374  15.243  -5.606  0.00  0.00     0.006 A 
ATOM     24  C   UNL d   1      14.461  16.046  -5.728  0.00  0.00     0.013 A 
ATOM     25  C   UNL d   1      13.819  16.538  -5.641  0.00  0.00     0.104 A 
ATOM     26  C   UNL d   1      13.052  16.259  -5.426  0.00  0.00     0.013 A 
ATOM     27  C   UNL d   1      12.978  15.442  -5.305  0.00  0.00     0.006 A 
BRANCH  25  28
ATOM     28  S   UNL d   1      13.913  17.370  -5.768  0.00  0.00     0.271 S 
ATOM     29  O   UNL d   1      13.294  17.372  -6.319  0.00  0.00    -0.200 OA
ATOM     30  O   UNL d   1      14.541  17.414  -5.220  0.00  0.00    -0.200 OA
BRANCH  28  31
ATOM     31  N   UNL d   1      14.004  18.206  -5.899  0.00  0.00    -0.229 N 
BRANCH  31  32
ATOM     32  C   UNL d   1      13.459  18.627  -6.343  0.00  0.00     0.092 C 
ATOM     33  C   UNL d   1      13.459  19.435  -6.345  0.00  0.00     0.021 C 
ENDBRANCH  31  32
BRANCH  31  34
ATOM     34  C   UNL d   1      14.647  18.613  -5.578  0.00  0.00     0.092 C 
ATOM     35  C   UNL d   1      14.636  19.437  -5.539  0.00  0.00     0.021 C 
ENDBRANCH  31  34
ENDBRANCH  28  31
ENDBRANCH  25  28
ENDBRANCH  20  22
ENDBRANCH   1  19
TORSDOF 8
ENDMDL
MODEL 2
REMARK VINA RESULT:      79.5      1.150      2.392
REMARK  8 active torsions:
REMARK  status: ('A' for Active; 'I' for Inactive)
REMARK    1  A    between atoms: C_9  and  S_1 
REMARK    2  A    between atoms: N_10  and  S_1 
REMARK    3  A    between atoms: C_17  and  C_3 
REMARK    4  A    between atoms: C_4  and  N_14 
REMARK    5  A    between atoms: C_8  and  C_16 
REMARK       I    between atoms: N_11  and  C_8 
REMARK    6  A    between atoms: C_27  and  N_10 
REMARK    7  A    between atoms: C_28  and  N_10 
REMARK    8  A    between atoms: N_14  and  N_11 
ROOT
ATOM      1  N   UNL d   1      14.177  15.792  -4.317  0.00  0.00     0.049 NA
ENDROOT
BRANCH   1   2
ATOM      2  C   UNL d   1      14.305  15.386  -3.556  0.00  0.00     0.768 A 
ATOM      3  N   UNL d   1      14.147  14.583  -3.491  0.00  0.00    -0.058 NA
ATOM      4  C   UNL d   1      14.268  14.208  -2.777  0.00  0.00     0.101 A 
ATOM      5  C   UNL d   1      14.548  14.612  -2.110  0.00  0.00     0.037 A 
ATOM      6  C   UNL d   1      14.702  15.429  -2.203  0.00  0.00     0.101 A 
ATOM      7  C   UNL d   1      14.670  14.244  -1.402  0.00  0.00     0.010 A 
ATOM      8  N   UNL d   1      14.586  15.820  -2.906  0.00  0.00    -0.058 NA
ATOM      9  C   UNL d   1      14.983  15.870  -1.558  0.00  0.00     0.020 A 
ATOM     10  C   UNL d   1      15.105  15.502  -0.849  0.00  0.00     0.008 A 
ATOM     11  C   UNL d   1      14.945  14.655  -0.757  0.00  0.00     0.035 A 
ATOM     12 BR   UNL d   1      15.068  14.255  -0.019  0.00  0.00    -0.049 Br
BRANCH   4  13
ATOM     13  C   UNL d   1      14.118  13.395  -2.678  0.00  0.00     0.018 A 
ATOM     14  C   UNL d   1      14.433  12.980  -2.060  0.00  0.00     0.002 A 
ATOM     15  C   UNL d   1      14.277  12.164  -1.967  0.00  0.00     0.000 A 
ATOM     16  C   UNL d   1      13.778  11.782  -2.540  0.00  0.00     0.000 A 
ATOM     17  C   UNL d   1      13.473  12.233  -3.157  0.00  0.00     0.000 A 
ATOM     18  C   UNL d   1      13.630  13.005  -3.231  0.00  0.00     0.002 A 
ENDBRANCH   4  13
ENDBRANCH   1   2
BRANCH   1  19
ATOM     19  N   UNL d   1      14.024  15.351  -5.002  0.00  0.00    -0.090 NA
ATOM     20  C   UNL d   1      13.934  15.714  -5.724  0.00  0.00     0.297 C 
ATOM     21  O   UNL d   1      13.787  15.295  -6.389  0.00  0.00    -0.264 OA
BRANCH  20  22
ATOM     22  C   UNL d   1      13.995  16.522  -5.775  0.00  0.00     0.059 A 
ATOM     23  C   UNL d   1      14.555  16.906  -5.303  0.00  0.00     0.006 A 
ATOM     24  C   UNL d   1      14.613  17.719  -5.357  0.00  0.00     0.013 A 
ATOM     25  C   UNL d   1      14.125  18.125  -5.865  0.00  0.00     0.104 A 
ATOM     26  C   UNL d   1      13.550  17.745  -6.351  0.00  0.00     0.013 A 
ATOM     27  C   UNL d   1      13.500  16.920  -6.288  0.00  0.00     0.006 A 
BRANCH  25  28
ATOM     28  S   UNL d   1      14.189  18.968  -5.918  0.00  0.00     0.271 S 
ATOM     29  O   UNL d   1      13.431  19.022  -6.249  0.00  0.00    -0.200 OA
ATOM     30  O   UNL d   1      14.955  18.961  -5.587  0.00  0.00    -0.200 OA
BRANCH  28  31
ATOM     31  N   UNL d   1      14.249  19.816  -5.972  0.00  0.00    -0.229 N 
BRANCH  31  32
ATOM     32  C   UNL d   1      14.953  20.177  -6.186  0.00  0.00     0.092 C 
ATOM     33  C   UNL d   1      15.093  20.953  -6.009  0.00  0.00     0.021 C 
ENDBRANCH  31  32
BRANCH  31  34
ATOM     34  C   UNL d   1      13.596  20.294  -5.810  0.00  0.00     0.092 C 
ATOM     35  C   UNL d   1      13.554  21.055  -6.125  0.00  0.00     0.021 C 
ENDBRANCH  31  34
ENDBRANCH  28  31
ENDBRANCH  25  28
ENDBRANCH  20  22
ENDBRANCH   1  19
TORSDOF 8
ENDMDL
