MODEL 1
REMARK VINA RESULT:      80.4      0.000      0.000
REMARK  4 active torsions:
REMARK  status: ('A' for Active; 'I' for Inactive)
REMARK    1  A    between atoms: S_13  and  C_7 
REMARK       I    between atoms: N_10  and  C_12 
REMARK    2  A    between atoms: C_25  and  C_11 
REMARK    3  A    between atoms: C_12  and  C_16 
REMARK    4  A    between atoms: C_16  and  S_13 
ROOT
ATOM      1  N   UNL d   1     -49.855  25.261  33.360  0.00  0.00    -0.224 N 
ATOM      2  N   UNL d   1     -51.254  25.596  33.369  0.00  0.00    -0.241 N 
ATOM      3  C   UNL d   1     -50.657  25.027  33.356  0.00  0.00     0.343 A 
ATOM      4  C   UNL d   1     -51.050  26.399  33.386  0.00  0.00     0.160 A 
ATOM      5  C   UNL d   1     -49.658  26.063  33.377  0.00  0.00     0.273 A 
ATOM      6  C   UNL d   1     -50.256  26.632  33.390  0.00  0.00     0.115 A 
ATOM      7  C   UNL d   1     -50.059  27.433  33.406  0.00  0.00     0.120 A 
ATOM      8  N   UNL d   1     -51.649  26.976  33.398  0.00  0.00    -0.209 NA
ATOM      9  N   UNL d   1     -50.652  28.003  33.419  0.00  0.00    -0.220 NA
ATOM     10  C   UNL d   1     -51.453  27.777  33.415  0.00  0.00     0.165 A 
ATOM     11  O   UNL d   1     -50.852  24.222  33.339  0.00  0.00    -0.245 OA
ATOM     12  O   UNL d   1     -48.865  26.291  33.381  0.00  0.00    -0.266 OA
ATOM     13  C   UNL d   1     -49.266  24.690  33.347  0.00  0.00     0.107 C 
ATOM     14  C   UNL d   1     -52.047  25.364  33.365  0.00  0.00     0.105 C 
ENDROOT
BRANCH   7  15
ATOM     15  S   UNL d   1     -49.265  27.661  33.410  0.00  0.00    -0.062 SA
BRANCH  15  16
ATOM     16  C   UNL d   1     -49.015  28.282  33.896  0.00  0.00     0.098 C 
BRANCH  16  17
ATOM     17  C   UNL d   1     -48.295  28.233  34.294  0.00  0.00     0.271 C 
ATOM     18  N   UNL d   1     -48.096  28.790  34.864  0.00  0.00    -0.272 N 
ATOM     19  C   UNL d   1     -48.616  29.389  35.031  0.00  0.00     0.083 A 
ATOM     20  C   UNL d   1     -47.379  28.744  35.263  0.00  0.00     0.083 A 
ATOM     21  C   UNL d   1     -48.420  29.958  35.609  0.00  0.00     0.019 A 
ATOM     22  C   UNL d   1     -47.697  29.911  36.010  0.00  0.00     0.003 A 
ATOM     23  C   UNL d   1     -47.175  29.295  35.831  0.00  0.00     0.019 A 
ATOM     24  C   UNL d   1     -47.505  30.470  36.578  0.00  0.00     0.000 C 
ATOM     25  O   UNL d   1     -47.762  27.614  34.119  0.00  0.00    -0.266 OA
ENDBRANCH  16  17
ENDBRANCH  15  16
ENDBRANCH   7  15
BRANCH  10  26
ATOM     26  C   UNL d   1     -52.048  28.353  33.428  0.00  0.00     0.039 C 
ATOM     27  C   UNL d   1     -52.836  28.139  33.308  0.00  0.00     0.003 C 
ENDBRANCH  10  26
TORSDOF 4
ENDMDL
MODEL 2
REMARK VINA RESULT:      82.1      2.272      5.592
REMARK  4 active torsions:
REMARK  status: ('A' for Active; 'I' for Inactive)
REMARK    1  A    between atoms: S_13  and  C_7 
REMARK       I    between atoms: N_10  and  C_12 
REMARK    2  A    between atoms: C_25  and  C_11 
REMARK    3  A    between atoms: C_12  and  C_16 
REMARK    4  A    between atoms: C_16  and  S_13 
ROOT
ATOM      1  N   UNL d   1     -48.448  32.204  33.816  0.00  0.00    -0.224 N 
ATOM      2  N   UNL d   1     -47.349  31.945  34.707  0.00  0.00    -0.241 N 
ATOM      3  C   UNL d   1     -47.746  32.454  34.194  0.00  0.00     0.343 A 
ATOM      4  C   UNL d   1     -47.653  31.186  34.843  0.00  0.00     0.160 A 
ATOM      5  C   UNL d   1     -48.746  31.447  33.956  0.00  0.00     0.273 A 
ATOM      6  C   UNL d   1     -48.348  30.938  34.470  0.00  0.00     0.115 A 
ATOM      7  C   UNL d   1     -48.645  30.181  34.609  0.00  0.00     0.120 A 
ATOM      8  N   UNL d   1     -47.255  30.670  35.360  0.00  0.00    -0.209 NA
ATOM      9  N   UNL d   1     -48.251  29.671  35.120  0.00  0.00    -0.220 NA
ATOM     10  C   UNL d   1     -47.552  29.913  35.500  0.00  0.00     0.165 A 
ATOM     11  O   UNL d   1     -47.450  33.215  34.052  0.00  0.00    -0.245 OA
ATOM     12  O   UNL d   1     -49.440  31.203  33.581  0.00  0.00    -0.266 OA
ATOM     13  C   UNL d   1     -48.838  32.716  33.307  0.00  0.00     0.107 C 
ATOM     14  C   UNL d   1     -46.654  32.193  35.081  0.00  0.00     0.105 C 
ENDROOT
BRANCH   7  15
ATOM     15  S   UNL d   1     -49.339  29.937  34.234  0.00  0.00    -0.062 SA
BRANCH  15  16
ATOM     16  C   UNL d   1     -49.353  29.228  33.809  0.00  0.00     0.098 C 
BRANCH  16  17
ATOM     17  C   UNL d   1     -50.071  28.906  33.561  0.00  0.00     0.271 C 
ATOM     18  N   UNL d   1     -50.183  28.092  33.559  0.00  0.00    -0.272 N 
ATOM     19  C   UNL d   1     -49.581  27.609  33.803  0.00  0.00     0.083 A 
ATOM     20  C   UNL d   1     -50.898  27.768  33.313  0.00  0.00     0.083 A 
ATOM     21  C   UNL d   1     -49.688  26.781  33.804  0.00  0.00     0.019 A 
ATOM     22  C   UNL d   1     -50.408  26.456  33.556  0.00  0.00     0.003 A 
ATOM     23  C   UNL d   1     -51.016  26.960  33.309  0.00  0.00     0.019 A 
ATOM     24  C   UNL d   1     -50.514  25.643  33.557  0.00  0.00     0.000 C 
ATOM     25  O   UNL d   1     -50.689  29.409  33.311  0.00  0.00    -0.266 OA
ENDBRANCH  16  17
ENDBRANCH  15  16
ENDBRANCH   7  15
BRANCH  10  26
ATOM     26  C   UNL d   1     -47.158  29.398  36.014  0.00  0.00     0.039 C 
ATOM     27  C   UNL d   1     -47.264  29.462  36.830  0.00  0.00     0.003 C 
ENDBRANCH  10  26
TORSDOF 4
ENDMDL
