MODEL 1
REMARK VINA RESULT:      -6.1      0.000      0.000
REMARK  8 active torsions:
REMARK  status: ('A' for Active; 'I' for Inactive)
REMARK    1  A    between atoms: N_6  and  C_1 
REMARK    2  A    between atoms: N_2  and  C_3 
REMARK       I    between atoms: C_4  and  N_2 
REMARK    3  A    between atoms: C_3  and  N_6 
REMARK    4  A    between atoms: C_10  and  C_4 
REMARK    5  A    between atoms: C_9  and  C_7 
REMARK    6  A    between atoms: C_12  and  C_9 
REMARK    7  A    between atoms: O_17  and  C_12 
REMARK    8  A    between atoms: C_21  and  O_17 
ROOT
ATOM      1  C   UNL d   1     -47.845  12.582  23.200  0.00  0.00     0.225 C 
ATOM      2  S   UNL d   1     -47.834  11.776  23.380  0.00  0.00    -0.037 SA
ENDROOT
BRANCH   1   3
ATOM      3  N   UNL d   1     -48.454  12.904  22.689  0.00  0.00    -0.179 NA
ATOM      4  C   UNL d   1     -49.253  12.874  22.939  0.00  0.00     0.281 C 
ATOM      5  O   UNL d   1     -49.446  12.526  23.696  0.00  0.00    -0.265 OA
BRANCH   4   6
ATOM      6  C   UNL d   1     -49.860  13.168  22.485  0.00  0.00     0.058 A 
ATOM      7  C   UNL d   1     -50.325  13.775  22.738  0.00  0.00     0.005 A 
ATOM      8  C   UNL d   1     -50.185  14.110  23.477  0.00  0.00     0.000 C 
ATOM      9  C   UNL d   1     -50.927  14.053  22.267  0.00  0.00     0.000 A 
ATOM     10  C   UNL d   1     -51.064  13.709  21.519  0.00  0.00     0.000 A 
ATOM     11  C   UNL d   1     -50.601  13.082  21.232  0.00  0.00     0.000 A 
ATOM     12  C   UNL d   1     -49.980  12.795  21.718  0.00  0.00     0.005 A 
ENDBRANCH   4   6
ENDBRANCH   1   3
BRANCH   1  13
ATOM     13  N   UNL d   1     -47.283  13.106  23.498  0.00  0.00    -0.192 NA
BRANCH  13  14
ATOM     14  C   UNL d   1     -46.610  13.261  23.028  0.00  0.00     0.196 A 
ATOM     15  N   UNL d   1     -46.168  12.762  22.519  0.00  0.00    -0.220 NA
ATOM     16  C   UNL d   1     -45.565  13.198  22.197  0.00  0.00     0.095 A 
ATOM     17  C   UNL d   1     -45.608  13.989  22.495  0.00  0.00     0.058 A 
ATOM     18  S   UNL d   1     -46.259  14.007  23.005  0.00  0.00    -0.046 SA
BRANCH  16  19
ATOM     19  C   UNL d   1     -44.991  12.937  21.665  0.00  0.00     0.088 C 
BRANCH  19  20
ATOM     20  C   UNL d   1     -44.256  12.690  21.912  0.00  0.00     0.302 C 
ATOM     21  O   UNL d   1     -44.154  11.986  22.318  0.00  0.00    -0.259 OA
BRANCH  20  22
ATOM     22  O   UNL d   1     -43.584  13.154  21.754  0.00  0.00    -0.271 OA
BRANCH  22  23
ATOM     23  C   UNL d   1     -42.925  12.770  21.347  0.00  0.00     0.126 C 
ATOM     24  C   UNL d   1     -42.385  13.178  21.127  0.00  0.00     0.029 C 
ENDBRANCH  22  23
ENDBRANCH  20  22
ENDBRANCH  19  20
ENDBRANCH  16  19
ENDBRANCH  13  14
ENDBRANCH   1  13
TORSDOF 8
ENDMDL
MODEL 2
REMARK VINA RESULT:      -5.5      1.710      5.099
REMARK  8 active torsions:
REMARK  status: ('A' for Active; 'I' for Inactive)
REMARK    1  A    between atoms: N_6  and  C_1 
REMARK    2  A    between atoms: N_2  and  C_3 
REMARK       I    between atoms: C_4  and  N_2 
REMARK    3  A    between atoms: C_3  and  N_6 
REMARK    4  A    between atoms: C_10  and  C_4 
REMARK    5  A    between atoms: C_9  and  C_7 
REMARK    6  A    between atoms: C_12  and  C_9 
REMARK    7  A    between atoms: O_17  and  C_12 
REMARK    8  A    between atoms: C_21  and  O_17 
ROOT
ATOM      1  C   UNL d   1     -47.943  11.618  23.067  0.00  0.00     0.225 C 
ATOM      2  S   UNL d   1     -47.629  11.187  23.697  0.00  0.00    -0.037 SA
ENDROOT
BRANCH   1   3
ATOM      3  N   UNL d   1     -47.579  12.354  22.820  0.00  0.00    -0.179 NA
ATOM      4  C   UNL d   1     -46.798  12.526  23.073  0.00  0.00     0.281 C 
ATOM      5  O   UNL d   1     -46.382  11.967  23.569  0.00  0.00    -0.265 OA
BRANCH   4   6
ATOM      6  C   UNL d   1     -46.416  13.211  22.862  0.00  0.00     0.058 A 
ATOM      7  C   UNL d   1     -45.739  13.204  22.426  0.00  0.00     0.005 A 
ATOM      8  C   UNL d   1     -45.421  12.483  22.186  0.00  0.00     0.000 C 
ATOM      9  C   UNL d   1     -45.373  13.902  22.226  0.00  0.00     0.000 A 
ATOM     10  C   UNL d   1     -45.700  14.629  22.472  0.00  0.00     0.000 A 
ATOM     11  C   UNL d   1     -46.397  14.668  22.921  0.00  0.00     0.000 A 
ATOM     12  C   UNL d   1     -46.774  13.948  23.128  0.00  0.00     0.005 A 
ENDBRANCH   4   6
ENDBRANCH   1   3
BRANCH   1  13
ATOM     13  N   UNL d   1     -48.611  11.367  22.652  0.00  0.00    -0.192 NA
BRANCH  13  14
ATOM     14  C   UNL d   1     -49.345  11.710  22.855  0.00  0.00     0.196 A 
ATOM     15  N   UNL d   1     -49.776  12.336  22.500  0.00  0.00    -0.220 NA
ATOM     16  C   UNL d   1     -50.459  12.445  22.924  0.00  0.00     0.095 A 
ATOM     17  C   UNL d   1     -50.479  11.890  23.562  0.00  0.00     0.058 A 
ATOM     18  S   UNL d   1     -49.784  11.446  23.502  0.00  0.00    -0.046 SA
BRANCH  16  19
ATOM     19  C   UNL d   1     -51.052  13.000  22.778  0.00  0.00     0.088 C 
BRANCH  19  20
ATOM     20  C   UNL d   1     -50.883  13.782  22.628  0.00  0.00     0.302 C 
ATOM     21  O   UNL d   1     -50.874  14.080  21.866  0.00  0.00    -0.259 OA
BRANCH  20  22
ATOM     22  O   UNL d   1     -50.713  14.300  23.256  0.00  0.00    -0.271 OA
BRANCH  22  23
ATOM     23  C   UNL d   1     -51.052  15.095  23.216  0.00  0.00     0.126 C 
ATOM     24  C   UNL d   1     -50.756  15.605  23.613  0.00  0.00     0.029 C 
ENDBRANCH  22  23
ENDBRANCH  20  22
ENDBRANCH  19  20
ENDBRANCH  16  19
ENDBRANCH  13  14
ENDBRANCH   1  13
TORSDOF 8
ENDMDL
MODEL 3
REMARK VINA RESULT:      -4.8      8.099      9.546
REMARK  8 active torsions:
REMARK  status: ('A' for Active; 'I' for Inactive)
REMARK    1  A    between atoms: N_6  and  C_1 
REMARK    2  A    between atoms: N_2  and  C_3 
REMARK       I    between atoms: C_4  and  N_2 
REMARK    3  A    between atoms: C_3  and  N_6 
REMARK    4  A    between atoms: C_10  and  C_4 
REMARK    5  A    between atoms: C_9  and  C_7 
REMARK    6  A    between atoms: C_12  and  C_9 
REMARK    7  A    between atoms: O_17  and  C_12 
REMARK    8  A    between atoms: C_21  and  O_17 
ROOT
ATOM      1  C   UNL d   1     -40.408  14.998  18.797  0.00  0.00     0.225 C 
ATOM      2  S   UNL d   1     -40.900  14.343  18.901  0.00  0.00    -0.037 SA
ENDROOT
BRANCH   1   3
ATOM      3  N   UNL d   1     -39.742  14.959  18.259  0.00  0.00    -0.179 NA
ATOM      4  C   UNL d   1     -39.871  14.707  17.469  0.00  0.00     0.281 C 
ATOM      5  O   UNL d   1     -40.660  14.496  17.218  0.00  0.00    -0.265 OA
BRANCH   4   6
ATOM      6  C   UNL d   1     -39.268  14.656  16.928  0.00  0.00     0.058 A 
ATOM      7  C   UNL d   1     -38.849  13.976  16.821  0.00  0.00     0.005 A 
ATOM      8  C   UNL d   1     -39.035  13.313  17.271  0.00  0.00     0.000 C 
ATOM      9  C   UNL d   1     -38.249  13.947  16.273  0.00  0.00     0.000 A 
ATOM     10  C   UNL d   1     -38.065  14.623  15.819  0.00  0.00     0.000 A 
ATOM     11  C   UNL d   1     -38.480  15.337  15.907  0.00  0.00     0.000 A 
ATOM     12  C   UNL d   1     -39.099  15.368  16.472  0.00  0.00     0.005 A 
ENDBRANCH   4   6
ENDBRANCH   1   3
BRANCH   1  13
ATOM     13  N   UNL d   1     -40.530  15.708  19.199  0.00  0.00    -0.192 NA
BRANCH  13  14
ATOM     14  C   UNL d   1     -40.322  15.737  20.007  0.00  0.00     0.196 A 
ATOM     15  N   UNL d   1     -39.588  15.602  20.391  0.00  0.00    -0.220 NA
ATOM     16  C   UNL d   1     -39.698  15.704  21.189  0.00  0.00     0.095 A 
ATOM     17  C   UNL d   1     -40.507  15.906  21.333  0.00  0.00     0.058 A 
ATOM     18  S   UNL d   1     -40.874  15.921  20.592  0.00  0.00    -0.046 SA
BRANCH  16  19
ATOM     19  C   UNL d   1     -39.130  15.628  21.783  0.00  0.00     0.088 C 
BRANCH  19  20
ATOM     20  C   UNL d   1     -38.760  14.919  21.936  0.00  0.00     0.302 C 
ATOM     21  O   UNL d   1     -38.122  14.663  21.493  0.00  0.00    -0.259 OA
BRANCH  20  22
ATOM     22  O   UNL d   1     -39.029  14.434  22.557  0.00  0.00    -0.271 OA
BRANCH  22  23
ATOM     23  C   UNL d   1     -38.462  13.874  22.894  0.00  0.00     0.126 C 
ATOM     24  C   UNL d   1     -38.636  13.548  23.501  0.00  0.00     0.029 C 
ENDBRANCH  22  23
ENDBRANCH  20  22
ENDBRANCH  19  20
ENDBRANCH  16  19
ENDBRANCH  13  14
ENDBRANCH   1  13
TORSDOF 8
ENDMDL
MODEL 4
REMARK VINA RESULT:      -4.7      1.624      2.037
REMARK  8 active torsions:
REMARK  status: ('A' for Active; 'I' for Inactive)
REMARK    1  A    between atoms: N_6  and  C_1 
REMARK    2  A    between atoms: N_2  and  C_3 
REMARK       I    between atoms: C_4  and  N_2 
REMARK    3  A    between atoms: C_3  and  N_6 
REMARK    4  A    between atoms: C_10  and  C_4 
REMARK    5  A    between atoms: C_9  and  C_7 
REMARK    6  A    between atoms: C_12  and  C_9 
REMARK    7  A    between atoms: O_17  and  C_12 
REMARK    8  A    between atoms: C_21  and  O_17 
ROOT
ATOM      1  C   UNL d   1     -48.395  14.574  22.651  0.00  0.00     0.225 C 
ATOM      2  S   UNL d   1     -48.613  15.181  22.135  0.00  0.00    -0.037 SA
ENDROOT
BRANCH   1   3
ATOM      3  N   UNL d   1     -48.852  13.850  22.686  0.00  0.00    -0.179 NA
ATOM      4  C   UNL d   1     -49.674  13.895  22.846  0.00  0.00     0.281 C 
ATOM      5  O   UNL d   1     -50.038  14.658  22.971  0.00  0.00    -0.265 OA
BRANCH   4   6
ATOM      6  C   UNL d   1     -50.143  13.233  22.888  0.00  0.00     0.058 A 
ATOM      7  C   UNL d   1     -50.602  12.997  22.270  0.00  0.00     0.005 A 
ATOM      8  C   UNL d   1     -50.598  13.437  21.574  0.00  0.00     0.000 C 
ATOM      9  C   UNL d   1     -51.064  12.331  22.334  0.00  0.00     0.000 A 
ATOM     10  C   UNL d   1     -51.064  11.890  23.042  0.00  0.00     0.000 A 
ATOM     11  C   UNL d   1     -50.601  12.109  23.696  0.00  0.00     0.000 A 
ATOM     12  C   UNL d   1     -50.124  12.796  23.630  0.00  0.00     0.005 A 
ENDBRANCH   4   6
ENDBRANCH   1   3
BRANCH   1  13
ATOM     13  N   UNL d   1     -47.738  14.634  23.147  0.00  0.00    -0.192 NA
BRANCH  13  14
ATOM     14  C   UNL d   1     -47.059  14.192  22.945  0.00  0.00     0.196 A 
ATOM     15  N   UNL d   1     -46.960  13.372  22.797  0.00  0.00    -0.220 NA
ATOM     16  C   UNL d   1     -46.179  13.239  22.623  0.00  0.00     0.095 A 
ATOM     17  C   UNL d   1     -45.759  13.973  22.657  0.00  0.00     0.058 A 
ATOM     18  S   UNL d   1     -46.320  14.548  22.857  0.00  0.00    -0.046 SA
BRANCH  16  19
ATOM     19  C   UNL d   1     -45.826  12.515  22.441  0.00  0.00     0.088 C 
BRANCH  19  20
ATOM     20  C   UNL d   1     -45.728  11.931  23.000  0.00  0.00     0.302 C 
ATOM     21  O   UNL d   1     -46.365  11.516  23.302  0.00  0.00    -0.259 OA
BRANCH  20  22
ATOM     22  O   UNL d   1     -44.967  11.743  23.278  0.00  0.00    -0.271 OA
BRANCH  22  23
ATOM     23  C   UNL d   1     -44.790  10.906  23.409  0.00  0.00     0.126 C 
ATOM     24  C   UNL d   1     -44.111  10.699  23.370  0.00  0.00     0.029 C 
ENDBRANCH  22  23
ENDBRANCH  20  22
ENDBRANCH  19  20
ENDBRANCH  16  19
ENDBRANCH  13  14
ENDBRANCH   1  13
TORSDOF 8
ENDMDL
MODEL 5
REMARK VINA RESULT:      -4.4      1.757      2.164
REMARK  8 active torsions:
REMARK  status: ('A' for Active; 'I' for Inactive)
REMARK    1  A    between atoms: N_6  and  C_1 
REMARK    2  A    between atoms: N_2  and  C_3 
REMARK       I    between atoms: C_4  and  N_2 
REMARK    3  A    between atoms: C_3  and  N_6 
REMARK    4  A    between atoms: C_10  and  C_4 
REMARK    5  A    between atoms: C_9  and  C_7 
REMARK    6  A    between atoms: C_12  and  C_9 
REMARK    7  A    between atoms: O_17  and  C_12 
REMARK    8  A    between atoms: C_21  and  O_17 
ROOT
ATOM      1  C   UNL d   1     -48.449  12.975  21.936  0.00  0.00     0.225 C 
ATOM      2  S   UNL d   1     -48.817  12.346  21.547  0.00  0.00    -0.037 SA
ENDROOT
BRANCH   1   3
ATOM      3  N   UNL d   1     -48.903  13.494  22.446  0.00  0.00    -0.179 NA
ATOM      4  C   UNL d   1     -49.564  13.900  22.128  0.00  0.00     0.281 C 
ATOM      5  O   UNL d   1     -49.773  13.788  21.307  0.00  0.00    -0.265 OA
BRANCH   4   6
ATOM      6  C   UNL d   1     -50.020  14.401  22.577  0.00  0.00     0.058 A 
ATOM      7  C   UNL d   1     -50.620  14.130  23.040  0.00  0.00     0.005 A 
ATOM      8  C   UNL d   1     -50.779  13.322  23.063  0.00  0.00     0.000 C 
ATOM      9  C   UNL d   1     -51.064  14.649  23.481  0.00  0.00     0.000 A 
ATOM     10  C   UNL d   1     -50.899  15.466  23.454  0.00  0.00     0.000 A 
ATOM     11  C   UNL d   1     -50.286  15.776  22.985  0.00  0.00     0.000 A 
ATOM     12  C   UNL d   1     -49.828  15.240  22.530  0.00  0.00     0.005 A 
ENDBRANCH   4   6
ENDBRANCH   1   3
BRANCH   1  13
ATOM     13  N   UNL d   1     -47.643  13.130  21.856  0.00  0.00    -0.192 NA
BRANCH  13  14
ATOM     14  C   UNL d   1     -47.140  12.902  22.483  0.00  0.00     0.196 A 
ATOM     15  N   UNL d   1     -46.744  12.179  22.635  0.00  0.00    -0.220 NA
ATOM     16  C   UNL d   1     -46.326  12.259  23.326  0.00  0.00     0.095 A 
ATOM     17  C   UNL d   1     -46.447  13.039  23.631  0.00  0.00     0.058 A 
ATOM     18  S   UNL d   1     -46.952  13.419  23.097  0.00  0.00    -0.046 SA
BRANCH  16  19
ATOM     19  C   UNL d   1     -45.854  11.690  23.691  0.00  0.00     0.088 C 
BRANCH  19  20
ATOM     20  C   UNL d   1     -45.194  11.381  23.328  0.00  0.00     0.302 C 
ATOM     21  O   UNL d   1     -44.655  11.858  22.940  0.00  0.00    -0.259 OA
BRANCH  20  22
ATOM     22  O   UNL d   1     -45.053  10.561  23.346  0.00  0.00    -0.271 OA
BRANCH  22  23
ATOM     23  C   UNL d   1     -44.228  10.302  23.349  0.00  0.00     0.126 C 
ATOM     24  C   UNL d   1     -44.080   9.661  23.620  0.00  0.00     0.029 C 
ENDBRANCH  22  23
ENDBRANCH  20  22
ENDBRANCH  19  20
ENDBRANCH  16  19
ENDBRANCH  13  14
ENDBRANCH   1  13
TORSDOF 8
ENDMDL
MODEL 6
REMARK VINA RESULT:      -3.8      1.700      5.363
REMARK  8 active torsions:
REMARK  status: ('A' for Active; 'I' for Inactive)
REMARK    1  A    between atoms: N_6  and  C_1 
REMARK    2  A    between atoms: N_2  and  C_3 
REMARK       I    between atoms: C_4  and  N_2 
REMARK    3  A    between atoms: C_3  and  N_6 
REMARK    4  A    between atoms: C_10  and  C_4 
REMARK    5  A    between atoms: C_9  and  C_7 
REMARK    6  A    between atoms: C_12  and  C_9 
REMARK    7  A    between atoms: O_17  and  C_12 
REMARK    8  A    between atoms: C_21  and  O_17 
ROOT
ATOM      1  C   UNL d   1     -45.768  13.105  22.630  0.00  0.00     0.225 C 
ATOM      2  S   UNL d   1     -45.722  13.215  21.813  0.00  0.00    -0.037 SA
ENDROOT
BRANCH   1   3
ATOM      3  N   UNL d   1     -45.545  12.354  22.979  0.00  0.00    -0.179 NA
ATOM      4  C   UNL d   1     -44.828  11.991  22.742  0.00  0.00     0.281 C 
ATOM      5  O   UNL d   1     -44.334  12.375  22.160  0.00  0.00    -0.265 OA
BRANCH   4   6
ATOM      6  C   UNL d   1     -44.581  11.281  23.049  0.00  0.00     0.058 A 
ATOM      7  C   UNL d   1     -43.805  11.064  23.048  0.00  0.00     0.005 A 
ATOM      8  C   UNL d   1     -43.244  11.574  22.728  0.00  0.00     0.000 C 
ATOM      9  C   UNL d   1     -43.579  10.347  23.360  0.00  0.00     0.000 A 
ATOM     10  C   UNL d   1     -44.153   9.834  23.682  0.00  0.00     0.000 A 
ATOM     11  C   UNL d   1     -44.960  10.030  23.697  0.00  0.00     0.000 A 
ATOM     12  C   UNL d   1     -45.192  10.769  23.375  0.00  0.00     0.005 A 
ENDBRANCH   4   6
ENDBRANCH   1   3
BRANCH   1  13
ATOM     13  N   UNL d   1     -46.025  13.700  23.140  0.00  0.00    -0.192 NA
BRANCH  13  14
ATOM     14  C   UNL d   1     -46.794  14.004  23.023  0.00  0.00     0.196 A 
ATOM     15  N   UNL d   1     -47.544  13.701  23.245  0.00  0.00    -0.220 NA
ATOM     16  C   UNL d   1     -48.112  14.223  22.992  0.00  0.00     0.095 A 
ATOM     17  C   UNL d   1     -47.736  14.873  22.603  0.00  0.00     0.058 A 
ATOM     18  S   UNL d   1     -46.923  14.719  22.633  0.00  0.00    -0.046 SA
BRANCH  16  19
ATOM     19  C   UNL d   1     -48.929  14.154  23.088  0.00  0.00     0.088 C 
BRANCH  19  20
ATOM     20  C   UNL d   1     -49.328  13.471  22.898  0.00  0.00     0.302 C 
ATOM     21  O   UNL d   1     -48.956  12.742  22.899  0.00  0.00    -0.259 OA
BRANCH  20  22
ATOM     22  O   UNL d   1     -50.135  13.501  22.696  0.00  0.00    -0.271 OA
BRANCH  22  23
ATOM     23  C   UNL d   1     -50.505  12.763  22.436  0.00  0.00     0.126 C 
ATOM     24  C   UNL d   1     -50.993  12.799  21.920  0.00  0.00     0.029 C 
ENDBRANCH  22  23
ENDBRANCH  20  22
ENDBRANCH  19  20
ENDBRANCH  16  19
ENDBRANCH  13  14
ENDBRANCH   1  13
TORSDOF 8
ENDMDL
