MODEL 1
REMARK VINA RESULT:      85.9      0.000      0.000
REMARK  3 active torsions:
REMARK  status: ('A' for Active; 'I' for Inactive)
REMARK    1  A    between atoms: C_24  and  N_10 
REMARK    2  A    between atoms: C_12  and  N_15 
REMARK       I    between atoms: N_15  and  C_16 
REMARK    3  A    between atoms: C_16  and  C_24 
ROOT
ATOM      1  N   UNL d   1      13.248  16.104  -5.127  0.00  0.00    -0.188 NA
ATOM      2  C   UNL d   1      13.733  16.190  -5.790  0.00  0.00     0.298 C 
ATOM      3  O   UNL d   1      14.421  15.727  -5.854  0.00  0.00    -0.263 OA
ENDROOT
BRANCH   1   4
ATOM      4  C   UNL d   1      13.447  15.560  -4.534  0.00  0.00     0.166 A 
ATOM      5  N   UNL d   1      13.279  14.756  -4.636  0.00  0.00    -0.226 NA
ATOM      6  C   UNL d   1      13.476  14.212  -4.049  0.00  0.00     0.090 A 
ATOM      7  C   UNL d   1      13.311  13.409  -4.145  0.00  0.00     0.041 A 
ATOM      8  C   UNL d   1      13.842  14.469  -3.351  0.00  0.00     0.081 A 
ATOM      9  C   UNL d   1      13.510  12.865  -3.552  0.00  0.00     0.105 A 
ATOM     10  C   UNL d   1      12.945  13.148  -4.840  0.00  0.00     0.004 A 
ATOM     11  C   UNL d   1      13.342  12.064  -3.657  0.00  0.00     0.025 A 
ATOM     12  O   UNL d   1      13.873  13.124  -2.862  0.00  0.00    -0.273 OA
ATOM     13  C   UNL d   1      12.977  11.802  -4.348  0.00  0.00     0.002 A 
ATOM     14  C   UNL d   1      12.778  12.348  -4.944  0.00  0.00     0.000 A 
ATOM     15  C   UNL d   1      14.041  13.925  -2.758  0.00  0.00     0.301 A 
ATOM     16  O   UNL d   1      14.409  14.188  -2.061  0.00  0.00    -0.259 OA
ATOM     17  C   UNL d   1      14.010  15.272  -3.249  0.00  0.00     0.010 A 
ATOM     18  C   UNL d   1      13.814  15.814  -3.834  0.00  0.00     0.039 A 
ATOM     19  C   UNL d   1      14.378  15.526  -2.548  0.00  0.00     0.000 C 
ENDBRANCH   1   4
BRANCH   2  20
ATOM     20  C   UNL d   1      13.542  16.732  -6.388  0.00  0.00     0.143 C 
BRANCH  20  21
ATOM     21  N   UNL d   1      13.648  17.539  -6.264  0.00  0.00    -0.306 N 
ATOM     22  C   UNL d   1      12.981  17.942  -6.352  0.00  0.00     0.059 A 
ATOM     23  C   UNL d   1      12.780  18.711  -6.297  0.00  0.00     0.080 A 
ATOM     24  C   UNL d   1      13.163  19.365  -6.136  0.00  0.00     0.061 A 
ATOM     25  C   UNL d   1      13.766  18.258  -6.150  0.00  0.00     0.024 A 
ATOM     26  N   UNL d   1      13.907  19.557  -5.957  0.00  0.00    -0.280 N 
ATOM     27  C   UNL d   1      14.584  19.146  -5.869  0.00  0.00     0.049 A 
ATOM     28  C   UNL d   1      13.910  20.346  -5.858  0.00  0.00     0.264 A 
ATOM     29  C   UNL d   1      14.779  18.397  -5.923  0.00  0.00     0.079 A 
ATOM     30  C   UNL d   1      15.251  19.534  -5.682  0.00  0.00     0.014 A 
ATOM     31  C   UNL d   1      14.396  17.728  -6.086  0.00  0.00     0.059 A 
ATOM     32  C   UNL d   1      15.253  20.314  -5.584  0.00  0.00     0.006 A 
ATOM     33  C   UNL d   1      14.576  20.726  -5.672  0.00  0.00     0.061 A 
ATOM     34  O   UNL d   1      13.228  20.752  -5.948  0.00  0.00    -0.267 OA
ENDBRANCH  20  21
ENDBRANCH   2  20
TORSDOF 3
ENDMDL
MODEL 2
REMARK VINA RESULT:      87.5      1.707      2.356
REMARK  3 active torsions:
REMARK  status: ('A' for Active; 'I' for Inactive)
REMARK    1  A    between atoms: C_24  and  N_10 
REMARK    2  A    between atoms: C_12  and  N_15 
REMARK       I    between atoms: N_15  and  C_16 
REMARK    3  A    between atoms: C_16  and  C_24 
ROOT
ATOM      1  N   UNL d   1      14.378  16.110  -3.647  0.00  0.00    -0.188 NA
ATOM      2  C   UNL d   1      14.965  16.310  -4.194  0.00  0.00     0.298 C 
ATOM      3  O   UNL d   1      15.763  16.296  -3.958  0.00  0.00    -0.263 OA
ENDROOT
BRANCH   1   4
ATOM      4  C   UNL d   1      14.585  15.898  -2.873  0.00  0.00     0.166 A 
ATOM      5  N   UNL d   1      14.547  15.107  -2.636  0.00  0.00    -0.226 NA
ATOM      6  C   UNL d   1      14.752  14.892  -1.867  0.00  0.00     0.090 A 
ATOM      7  C   UNL d   1      14.716  14.103  -1.625  0.00  0.00     0.041 A 
ATOM      8  C   UNL d   1      14.998  15.470  -1.326  0.00  0.00     0.081 A 
ATOM      9  C   UNL d   1      14.923  13.891  -0.850  0.00  0.00     0.105 A 
ATOM     10  C   UNL d   1      14.470  13.524  -2.161  0.00  0.00     0.004 A 
ATOM     11  C   UNL d   1      14.883  13.101  -0.617  0.00  0.00     0.025 A 
ATOM     12  O   UNL d   1      15.166  14.468  -0.319  0.00  0.00    -0.273 OA
ATOM     13  C   UNL d   1      14.639  12.521  -1.150  0.00  0.00     0.002 A 
ATOM     14  C   UNL d   1      14.431  12.734  -1.928  0.00  0.00     0.000 A 
ATOM     15  C   UNL d   1      15.206  15.258  -0.552  0.00  0.00     0.301 A 
ATOM     16  O   UNL d   1      15.452  15.842  -0.015  0.00  0.00    -0.259 OA
ATOM     17  C   UNL d   1      15.037  16.261  -1.563  0.00  0.00     0.010 A 
ATOM     18  C   UNL d   1      14.833  16.475  -2.329  0.00  0.00     0.039 A 
ATOM     19  C   UNL d   1      15.284  16.839  -1.018  0.00  0.00     0.000 C 
ENDBRANCH   1   4
BRANCH   2  20
ATOM     20  C   UNL d   1      14.767  16.523  -4.970  0.00  0.00     0.143 C 
BRANCH  20  21
ATOM     21  N   UNL d   1      14.686  17.317  -5.173  0.00  0.00    -0.306 N 
ATOM     22  C   UNL d   1      15.320  17.737  -4.982  0.00  0.00     0.059 A 
ATOM     23  C   UNL d   1      15.526  18.504  -5.053  0.00  0.00     0.080 A 
ATOM     24  C   UNL d   1      15.182  19.137  -5.339  0.00  0.00     0.061 A 
ATOM     25  C   UNL d   1      14.592  18.023  -5.364  0.00  0.00     0.024 A 
ATOM     26  N   UNL d   1      14.490  19.302  -5.680  0.00  0.00    -0.280 N 
ATOM     27  C   UNL d   1      13.846  18.873  -5.873  0.00  0.00     0.049 A 
ATOM     28  C   UNL d   1      14.505  20.081  -5.838  0.00  0.00     0.264 A 
ATOM     29  C   UNL d   1      13.647  18.127  -5.803  0.00  0.00     0.079 A 
ATOM     30  C   UNL d   1      13.230  19.233  -6.221  0.00  0.00     0.014 A 
ATOM     31  C   UNL d   1      13.990  17.478  -5.515  0.00  0.00     0.059 A 
ATOM     32  C   UNL d   1      13.247  20.004  -6.377  0.00  0.00     0.006 A 
ATOM     33  C   UNL d   1      13.890  20.433  -6.184  0.00  0.00     0.061 A 
ATOM     34  O   UNL d   1      15.152  20.505  -5.641  0.00  0.00    -0.267 OA
ENDBRANCH  20  21
ENDBRANCH   2  20
TORSDOF 3
ENDMDL
