MODEL 1
REMARK VINA RESULT:      19.9      0.000      0.000
REMARK  6 active torsions:
REMARK  status: ('A' for Active; 'I' for Inactive)
REMARK    1  A    between atoms: C_3  and  C_1 
REMARK    2  A    between atoms: C_4  and  N_2 
REMARK       I    between atoms: N_14  and  C_3 
REMARK    3  A    between atoms: N_5  and  C_19 
REMARK    4  A    between atoms: O_18  and  C_13 
REMARK    5  A    between atoms: C_17  and  N_14 
REMARK    6  A    between atoms: C_19  and  C_17 
ROOT
ATOM      1  N   UNL d   1      46.083 -18.035  43.582  0.00  0.00    -0.300 N 
ATOM      2  N   UNL d   1      45.732 -16.623  44.359  0.00  0.00    -0.299 N 
ATOM      3  C   UNL d   1      45.369 -17.647  43.415  0.00  0.00     0.100 A 
ATOM      4  C   UNL d   1      46.618 -17.723  44.131  0.00  0.00     0.100 A 
ATOM      5  C   UNL d   1      45.197 -16.934  43.810  0.00  0.00     0.100 A 
ATOM      6  C   UNL d   1      46.439 -17.021  44.514  0.00  0.00     0.100 A 
ENDROOT
BRANCH   2   7
ATOM      7  C   UNL d   1      45.553 -15.920  44.742  0.00  0.00     0.101 C 
BRANCH   7   8
ATOM      8  C   UNL d   1      46.033 -15.262  44.666  0.00  0.00     0.121 C 
BRANCH   8   9
ATOM      9  N   UNL d   1      45.885 -14.698  44.101  0.00  0.00    -0.205 NA
ATOM     10  C   UNL d   1      46.122 -13.917  44.229  0.00  0.00     0.280 C 
ATOM     11  O   UNL d   1      46.506 -13.713  44.923  0.00  0.00    -0.265 OA
BRANCH  10  12
ATOM     12  C   UNL d   1      45.972 -13.344  43.656  0.00  0.00     0.065 A 
ATOM     13  C   UNL d   1      45.788 -12.549  43.801  0.00  0.00     0.040 A 
ATOM     14  S   UNL d   1      45.682 -12.182  43.069  0.00  0.00    -0.086 SA
ATOM     15  C   UNL d   1      45.798 -12.732  42.489  0.00  0.00     0.036 A 
ATOM     16  C   UNL d   1      45.979 -13.458  42.849  0.00  0.00     0.012 A 
ENDBRANCH  10  12
ENDBRANCH   8   9
ENDBRANCH   7   8
ENDBRANCH   2   7
BRANCH   1  17
ATOM     17  C   UNL d   1      46.252 -18.741  43.191  0.00  0.00     0.086 A 
ATOM     18  C   UNL d   1      46.317 -18.759  42.365  0.00  0.00     0.110 A 
ATOM     19  C   UNL d   1      46.486 -19.467  41.987  0.00  0.00     0.026 A 
ATOM     20  C   UNL d   1      46.592 -20.162  42.418  0.00  0.00     0.002 A 
ATOM     21  C   UNL d   1      46.527 -20.144  43.245  0.00  0.00     0.002 A 
ATOM     22  C   UNL d   1      46.359 -19.441  43.634  0.00  0.00     0.019 A 
BRANCH  18  23
ATOM     23  O   UNL d   1      46.213 -18.075  41.927  0.00  0.00    -0.327 OA
ATOM     24  C   UNL d   1      46.055 -18.118  41.114  0.00  0.00     0.181 C 
ENDBRANCH  18  23
ENDBRANCH   1  17
TORSDOF 6
ENDMDL
MODEL 2
REMARK VINA RESULT:      20.0      1.080      1.495
REMARK  6 active torsions:
REMARK  status: ('A' for Active; 'I' for Inactive)
REMARK    1  A    between atoms: C_3  and  C_1 
REMARK    2  A    between atoms: C_4  and  N_2 
REMARK       I    between atoms: N_14  and  C_3 
REMARK    3  A    between atoms: N_5  and  C_19 
REMARK    4  A    between atoms: O_18  and  C_13 
REMARK    5  A    between atoms: C_17  and  N_14 
REMARK    6  A    between atoms: C_19  and  C_17 
ROOT
ATOM      1  N   UNL d   1      46.286 -18.193  43.626  0.00  0.00    -0.300 N 
ATOM      2  N   UNL d   1      46.082 -16.819  44.514  0.00  0.00    -0.299 N 
ATOM      3  C   UNL d   1      46.412 -17.457  43.267  0.00  0.00     0.100 A 
ATOM      4  C   UNL d   1      46.061 -18.247  44.421  0.00  0.00     0.100 A 
ATOM      5  C   UNL d   1      46.307 -16.766  43.720  0.00  0.00     0.100 A 
ATOM      6  C   UNL d   1      45.961 -17.560  44.858  0.00  0.00     0.100 A 
ENDROOT
BRANCH   2   7
ATOM      7  C   UNL d   1      45.982 -16.132  44.951  0.00  0.00     0.101 C 
BRANCH   7   8
ATOM      8  C   UNL d   1      45.442 -15.561  44.724  0.00  0.00     0.121 C 
BRANCH   8   9
ATOM      9  N   UNL d   1      45.675 -14.797  44.578  0.00  0.00    -0.205 NA
ATOM     10  C   UNL d   1      45.107 -14.212  44.451  0.00  0.00     0.280 C 
ATOM     11  O   UNL d   1      44.311 -14.401  44.472  0.00  0.00    -0.265 OA
BRANCH  10  12
ATOM     12  C   UNL d   1      45.344 -13.436  44.302  0.00  0.00     0.065 A 
ATOM     13  C   UNL d   1      45.775 -12.953  44.820  0.00  0.00     0.040 A 
ATOM     14  S   UNL d   1      45.887 -12.227  44.444  0.00  0.00    -0.086 SA
ATOM     15  C   UNL d   1      45.536 -12.259  43.716  0.00  0.00     0.036 A 
ATOM     16  C   UNL d   1      45.196 -13.011  43.623  0.00  0.00     0.012 A 
ENDBRANCH  10  12
ENDBRANCH   8   9
ENDBRANCH   7   8
ENDBRANCH   2   7
BRANCH   1  17
ATOM     17  C   UNL d   1      46.390 -18.877  43.176  0.00  0.00     0.086 A 
ATOM     18  C   UNL d   1      46.473 -19.615  43.544  0.00  0.00     0.110 A 
ATOM     19  C   UNL d   1      46.576 -20.287  43.086  0.00  0.00     0.026 A 
ATOM     20  C   UNL d   1      46.598 -20.239  42.263  0.00  0.00     0.002 A 
ATOM     21  C   UNL d   1      46.515 -19.501  41.895  0.00  0.00     0.002 A 
ATOM     22  C   UNL d   1      46.412 -18.821  42.343  0.00  0.00     0.019 A 
BRANCH  18  23
ATOM     23  O   UNL d   1      46.453 -19.674  44.361  0.00  0.00    -0.327 OA
ATOM     24  C   UNL d   1      46.099 -20.330  44.725  0.00  0.00     0.181 C 
ENDBRANCH  18  23
ENDBRANCH   1  17
TORSDOF 6
ENDMDL
