MODEL 1
REMARK VINA RESULT:      53.2      0.000      0.000
REMARK  5 active torsions:
REMARK  status: ('A' for Active; 'I' for Inactive)
REMARK    1  A    between atoms: N_2  and  S_1 
REMARK    2  A    between atoms: C_7  and  S_1 
REMARK    3  A    between atoms: C_3  and  N_2 
REMARK    4  A    between atoms: N_6  and  C_8 
REMARK    5  A    between atoms: C_9  and  N_6 
ROOT
ATOM      1  C   UNL d   1      59.724  49.467  50.351  0.00  0.00     0.111 A 
ATOM      2  C   UNL d   1      60.461  49.619  50.685  0.00  0.00     0.100 A 
ATOM      3  C   UNL d   1      59.671  49.397  49.529  0.00  0.00     0.021 A 
ATOM      4  C   UNL d   1      61.128  49.699  50.213  0.00  0.00     0.021 A 
ATOM      5  C   UNL d   1      60.338  49.478  49.057  0.00  0.00     0.002 A 
ATOM      6  C   UNL d   1      61.074  49.630  49.397  0.00  0.00     0.002 A 
ENDROOT
BRANCH   1   7
ATOM      7  N   UNL d   1      59.058  49.386  50.822  0.00  0.00    -0.157 NA
BRANCH   7   8
ATOM      8  S   UNL d   1      58.306  49.426  50.488  0.00  0.00     0.285 S 
ATOM      9  O   UNL d   1      57.976  49.162  51.197  0.00  0.00    -0.198 OA
ATOM     10  O   UNL d   1      58.646  49.695  49.765  0.00  0.00    -0.198 OA
BRANCH   8  11
ATOM     11  C   UNL d   1      57.539  49.467  50.144  0.00  0.00     0.105 A 
ATOM     12  C   UNL d   1      57.454  49.508  49.310  0.00  0.00     0.013 A 
ATOM     13  C   UNL d   1      56.702  49.548  48.983  0.00  0.00     0.001 A 
ATOM     14  C   UNL d   1      56.037  49.549  49.457  0.00  0.00     0.000 A 
ATOM     15  C   UNL d   1      56.122  49.508  50.290  0.00  0.00     0.001 A 
ATOM     16  C   UNL d   1      56.871  49.467  50.637  0.00  0.00     0.013 A 
ENDBRANCH   8  11
ENDBRANCH   7   8
ENDBRANCH   1   7
BRANCH   2  17
ATOM     17  N   UNL d   1      60.513  49.690  51.531  0.00  0.00    -0.244 NA
BRANCH  17  18
ATOM     18  C   UNL d   1      61.002  49.195  51.967  0.00  0.00     0.081 A 
ATOM     19  C   UNL d   1      61.656  49.505  52.330  0.00  0.00     0.019 A 
ATOM     20  C   UNL d   1      62.161  49.025  52.773  0.00  0.00     0.002 A 
ATOM     21  C   UNL d   1      62.000  48.216  52.849  0.00  0.00     0.000 A 
ATOM     22  C   UNL d   1      61.335  47.902  52.479  0.00  0.00     0.002 A 
ATOM     23  C   UNL d   1      60.831  48.386  52.036  0.00  0.00     0.019 A 
ENDBRANCH  17  18
ENDBRANCH   2  17
TORSDOF 5
ENDMDL
