MODEL 1
REMARK VINA RESULT:      -8.2      0.000      0.000
REMARK  3 active torsions:
REMARK  status: ('A' for Active; 'I' for Inactive)
REMARK    1  A    between atoms: C_6  and  N_1 
REMARK    2  A    between atoms: C_5  and  C_6 
REMARK       I    between atoms: N_10  and  C_5 
REMARK    3  A    between atoms: C_16  and  N_10 
ROOT
ATOM      1  C   UNL d   1      53.132  32.476  53.174  0.00  0.00     0.297 C 
ATOM      2  N   UNL d   1      53.632  31.837  53.050  0.00  0.00    -0.207 NA
ATOM      3  O   UNL d   1      52.376  32.345  53.487  0.00  0.00    -0.264 OA
ENDROOT
BRANCH   1   4
ATOM      4  C   UNL d   1      53.376  33.239  52.990  0.00  0.00     0.148 C 
BRANCH   4   5
ATOM      5  N   UNL d   1      53.058  33.879  53.395  0.00  0.00    -0.235 N 
ATOM      6  C   UNL d   1      53.409  34.147  54.086  0.00  0.00     0.273 A 
ATOM      7  C   UNL d   1      53.088  34.792  54.492  0.00  0.00     0.086 A 
ATOM      8  O   UNL d   1      54.088  33.775  54.382  0.00  0.00    -0.266 OA
ATOM      9  C   UNL d   1      53.427  35.077  55.189  0.00  0.00     0.012 C 
ATOM     10  S   UNL d   1      52.414  35.157  54.192  0.00  0.00    -0.077 SA
ATOM     11  C   UNL d   1      52.060  34.893  53.502  0.00  0.00     0.097 A 
ATOM     12  C   UNL d   1      52.378  34.252  53.098  0.00  0.00     0.274 A 
ATOM     13  O   UNL d   1      52.022  33.983  52.399  0.00  0.00    -0.266 OA
ENDBRANCH   4   5
ENDBRANCH   1   4
BRANCH   2  14
ATOM     14  C   UNL d   1      53.390  31.076  53.233  0.00  0.00     0.087 A 
ATOM     15  C   UNL d   1      53.666  30.734  53.930  0.00  0.00     0.045 A 
ATOM     16  C   UNL d   1      53.438  29.974  54.135  0.00  0.00     0.121 A 
ATOM     17  O   UNL d   1      53.617  29.494  54.780  0.00  0.00    -0.299 OA
ATOM     18  C   UNL d   1      52.931  29.550  53.638  0.00  0.00     0.119 A 
ATOM     19  C   UNL d   1      53.220  28.777  54.681  0.00  0.00     0.304 A 
ATOM     20  O   UNL d   1      52.805  28.818  53.985  0.00  0.00    -0.300 OA
ATOM     21  C   UNL d   1      52.653  29.889  52.939  0.00  0.00     0.028 A 
ATOM     22  C   UNL d   1      52.881  30.657  52.730  0.00  0.00     0.021 A 
ENDBRANCH   2  14
TORSDOF 3
ENDMDL
MODEL 2
REMARK VINA RESULT:      -7.7      2.160      4.410
REMARK  3 active torsions:
REMARK  status: ('A' for Active; 'I' for Inactive)
REMARK    1  A    between atoms: C_6  and  N_1 
REMARK    2  A    between atoms: C_5  and  C_6 
REMARK       I    between atoms: N_10  and  C_5 
REMARK    3  A    between atoms: C_16  and  N_10 
ROOT
ATOM      1  C   UNL d   1      52.053  33.474  52.723  0.00  0.00     0.297 C 
ATOM      2  N   UNL d   1      51.770  34.118  52.301  0.00  0.00    -0.207 NA
ATOM      3  O   UNL d   1      51.528  33.026  53.181  0.00  0.00    -0.264 OA
ENDROOT
BRANCH   1   4
ATOM      4  C   UNL d   1      52.850  33.273  52.692  0.00  0.00     0.148 C 
BRANCH   4   5
ATOM      5  N   UNL d   1      53.173  32.792  53.275  0.00  0.00    -0.235 N 
ATOM      6  C   UNL d   1      53.534  33.126  53.932  0.00  0.00     0.273 A 
ATOM      7  C   UNL d   1      53.859  32.641  54.518  0.00  0.00     0.086 A 
ATOM      8  O   UNL d   1      53.577  33.949  54.013  0.00  0.00    -0.266 OA
ATOM      9  C   UNL d   1      54.227  32.958  55.186  0.00  0.00     0.012 C 
ATOM     10  S   UNL d   1      53.814  31.824  54.431  0.00  0.00    -0.077 SA
ATOM     11  C   UNL d   1      53.454  31.487  53.777  0.00  0.00     0.097 A 
ATOM     12  C   UNL d   1      53.131  31.967  53.194  0.00  0.00     0.274 A 
ATOM     13  O   UNL d   1      52.766  31.628  52.531  0.00  0.00    -0.266 OA
ENDBRANCH   4   5
ENDBRANCH   1   4
BRANCH   2  14
ATOM     14  C   UNL d   1      50.977  34.320  52.329  0.00  0.00     0.087 A 
ATOM     15  C   UNL d   1      50.531  34.258  51.639  0.00  0.00     0.045 A 
ATOM     16  C   UNL d   1      49.735  34.455  51.643  0.00  0.00     0.121 A 
ATOM     17  O   UNL d   1      49.159  34.451  51.055  0.00  0.00    -0.299 OA
ATOM     18  C   UNL d   1      49.381  34.716  52.342  0.00  0.00     0.119 A 
ATOM     19  C   UNL d   1      48.450  34.709  51.392  0.00  0.00     0.304 A 
ATOM     20  O   UNL d   1      48.593  34.868  52.175  0.00  0.00    -0.300 OA
ATOM     21  C   UNL d   1      49.823  34.779  53.036  0.00  0.00     0.028 A 
ATOM     22  C   UNL d   1      50.627  34.581  53.035  0.00  0.00     0.021 A 
ENDBRANCH   2  14
TORSDOF 3
ENDMDL
MODEL 3
REMARK VINA RESULT:      -7.7      1.590      4.372
REMARK  3 active torsions:
REMARK  status: ('A' for Active; 'I' for Inactive)
REMARK    1  A    between atoms: C_6  and  N_1 
REMARK    2  A    between atoms: C_5  and  C_6 
REMARK       I    between atoms: N_10  and  C_5 
REMARK    3  A    between atoms: C_16  and  N_10 
ROOT
ATOM      1  C   UNL d   1      53.448  32.249  53.472  0.00  0.00     0.297 C 
ATOM      2  N   UNL d   1      53.844  32.963  53.392  0.00  0.00    -0.207 NA
ATOM      3  O   UNL d   1      52.665  32.246  53.744  0.00  0.00    -0.264 OA
ENDROOT
BRANCH   1   4
ATOM      4  C   UNL d   1      53.823  31.541  53.285  0.00  0.00     0.148 C 
BRANCH   4   5
ATOM      5  N   UNL d   1      53.424  30.829  53.381  0.00  0.00    -0.235 N 
ATOM      6  C   UNL d   1      53.514  30.395  54.071  0.00  0.00     0.273 A 
ATOM      7  C   UNL d   1      53.112  29.679  54.167  0.00  0.00     0.086 A 
ATOM      8  O   UNL d   1      54.008  30.669  54.677  0.00  0.00    -0.266 OA
ATOM      9  C   UNL d   1      53.190  29.226  54.854  0.00  0.00     0.012 C 
ATOM     10  S   UNL d   1      52.623  29.412  53.561  0.00  0.00    -0.077 SA
ATOM     11  C   UNL d   1      52.530  29.842  52.870  0.00  0.00     0.097 A 
ATOM     12  C   UNL d   1      52.929  30.554  52.774  0.00  0.00     0.274 A 
ATOM     13  O   UNL d   1      52.835  30.992  52.076  0.00  0.00    -0.266 OA
ENDBRANCH   4   5
ENDBRANCH   1   4
BRANCH   2  14
ATOM     14  C   UNL d   1      53.473  33.669  53.578  0.00  0.00     0.087 A 
ATOM     15  C   UNL d   1      53.639  34.020  54.305  0.00  0.00     0.045 A 
ATOM     16  C   UNL d   1      53.280  34.727  54.514  0.00  0.00     0.121 A 
ATOM     17  O   UNL d   1      53.333  35.200  55.185  0.00  0.00    -0.299 OA
ATOM     18  C   UNL d   1      52.751  35.087  53.992  0.00  0.00     0.119 A 
ATOM     19  C   UNL d   1      52.836  35.851  55.077  0.00  0.00     0.304 A 
ATOM     20  O   UNL d   1      52.486  35.776  54.349  0.00  0.00    -0.300 OA
ATOM     21  C   UNL d   1      52.582  34.740  53.263  0.00  0.00     0.028 A 
ATOM     22  C   UNL d   1      52.943  34.026  53.049  0.00  0.00     0.021 A 
ENDBRANCH   2  14
TORSDOF 3
ENDMDL
