MODEL 1
REMARK VINA RESULT:      48.7      0.000      0.000
REMARK  6 active torsions:
REMARK  status: ('A' for Active; 'I' for Inactive)
REMARK    1  A    between atoms: N_3  and  C_1 
REMARK    2  A    between atoms: S_2  and  C_10 
REMARK    3  A    between atoms: N_8  and  S_2 
REMARK       I    between atoms: C_9  and  N_3 
REMARK    4  A    between atoms: C_23  and  N_4 
REMARK    5  A    between atoms: C_13  and  C_9 
REMARK    6  A    between atoms: O_25  and  C_14 
ROOT
ATOM      1  N   UNL d   1      45.217 -16.877  39.517  0.00  0.00    -0.184 NA
ATOM      2  C   UNL d   1      45.186 -17.698  39.653  0.00  0.00     0.281 C 
ATOM      3  O   UNL d   1      44.945 -18.205  39.047  0.00  0.00    -0.265 OA
ENDROOT
BRANCH   2   4
ATOM      4  C   UNL d   1      45.396 -18.003  40.394  0.00  0.00     0.058 A 
ATOM      5  C   UNL d   1      46.140 -18.339  40.499  0.00  0.00     0.005 A 
ATOM      6  C   UNL d   1      46.350 -18.643  41.237  0.00  0.00     0.013 A 
ATOM      7  C   UNL d   1      45.816 -18.612  41.869  0.00  0.00     0.104 A 
ATOM      8  C   UNL d   1      45.064 -18.270  41.754  0.00  0.00     0.013 A 
ATOM      9  C   UNL d   1      44.850 -17.964  41.016  0.00  0.00     0.005 A 
BRANCH   7  10
ATOM     10  S   UNL d   1      46.025 -18.916  42.607  0.00  0.00     0.272 S 
ATOM     11  O   UNL d   1      45.584 -19.598  42.409  0.00  0.00    -0.200 OA
ATOM     12  O   UNL d   1      46.456 -18.245  42.797  0.00  0.00    -0.200 OA
BRANCH  10  13
ATOM     13  N   UNL d   1      46.232 -19.221  43.343  0.00  0.00    -0.225 N 
ATOM     14  C   UNL d   1      46.244 -18.727  43.996  0.00  0.00     0.118 A 
ATOM     15  C   UNL d   1      46.451 -19.030  44.735  0.00  0.00     0.142 A 
ATOM     16  O   UNL d   1      46.646 -19.828  44.815  0.00  0.00    -0.300 OA
ATOM     17  C   UNL d   1      46.632 -20.321  44.155  0.00  0.00     0.142 A 
ATOM     18  C   UNL d   1      46.425 -20.017  43.415  0.00  0.00     0.118 A 
ENDBRANCH  10  13
ENDBRANCH   7  10
ENDBRANCH   2   4
BRANCH   1  19
ATOM     19  C   UNL d   1      45.004 -16.575  38.767  0.00  0.00     0.182 A 
ATOM     20  N   UNL d   1      45.456 -16.066  38.314  0.00  0.00    -0.283 N 
ATOM     21  C   UNL d   1      45.049 -15.901  37.615  0.00  0.00     0.094 A 
ATOM     22  C   UNL d   1      45.237 -15.423  36.953  0.00  0.00     0.111 A 
ATOM     23  C   UNL d   1      44.339 -16.311  37.632  0.00  0.00     0.050 A 
ATOM     24  C   UNL d   1      44.705 -15.372  36.330  0.00  0.00     0.026 A 
ATOM     25  C   UNL d   1      43.991 -15.780  36.341  0.00  0.00     0.003 A 
ATOM     26  C   UNL d   1      43.807 -16.252  36.996  0.00  0.00     0.008 A 
ATOM     27  S   UNL d   1      44.302 -16.731  38.342  0.00  0.00    -0.048 SA
BRANCH  20  28
ATOM     28  C   UNL d   1      46.197 -15.762  38.515  0.00  0.00     0.082 C 
ATOM     29  C   UNL d   1      46.456 -14.996  38.351  0.00  0.00     0.021 C 
ENDBRANCH  20  28
BRANCH  22  30
ATOM     30  O   UNL d   1      45.942 -15.015  36.934  0.00  0.00    -0.327 OA
ATOM     31  C   UNL d   1      46.083 -14.465  36.345  0.00  0.00     0.181 C 
ENDBRANCH  22  30
ENDBRANCH   1  19
TORSDOF 6
ENDMDL
