MODEL 1
REMARK VINA RESULT:      -3.2      0.000      0.000
REMARK  5 active torsions:
REMARK  status: ('A' for Active; 'I' for Inactive)
REMARK       I    between atoms: N_3  and  C_1 
REMARK    1  A    between atoms: C_4  and  C_1 
REMARK    2  A    between atoms: N_2  and  C_4 
REMARK       I    between atoms: C_5  and  N_2 
REMARK    3  A    between atoms: C_18  and  C_4 
REMARK    4  A    between atoms: C_9  and  C_5 
REMARK    5  A    between atoms: C_7  and  N_6 
ROOT
ATOM      1  C   UNL d   1      32.836  17.922 -23.253  0.00  0.00     0.283 C 
ATOM      2  N   UNL d   1      32.838  18.636 -22.841  0.00  0.00    -0.268 N 
ATOM      3  N   UNL d   1      32.845  20.059 -22.019  0.00  0.00    -0.286 N 
ATOM      4  O   UNL d   1      33.229  17.263 -22.950  0.00  0.00    -0.265 OA
ATOM      5  C   UNL d   1      32.444  19.289 -23.148  0.00  0.00     0.102 A 
ATOM      6  C   UNL d   1      33.239  18.688 -22.121  0.00  0.00     0.102 A 
ATOM      7  C   UNL d   1      33.241  19.406 -21.709  0.00  0.00     0.101 A 
ATOM      8  C   UNL d   1      32.450  20.000 -22.732  0.00  0.00     0.101 A 
ENDROOT
BRANCH   1   9
ATOM      9  C   UNL d   1      32.435  17.870 -23.972  0.00  0.00     0.141 C 
BRANCH   9  10
ATOM     10  N   UNL d   1      31.616  17.735 -23.983  0.00  0.00    -0.203 NA
ATOM     11  C   UNL d   1      31.328  16.967 -24.035  0.00  0.00     0.279 C 
ATOM     12  O   UNL d   1      31.847  16.333 -24.077  0.00  0.00    -0.265 OA
BRANCH  11  13
ATOM     13  C   UNL d   1      30.513  16.836 -24.045  0.00  0.00     0.058 A 
ATOM     14  C   UNL d   1      30.010  17.379 -24.399  0.00  0.00     0.005 A 
ATOM     15  C   UNL d   1      29.201  17.255 -24.413  0.00  0.00     0.000 A 
ATOM     16  C   UNL d   1      28.886  16.576 -24.066  0.00  0.00     0.000 A 
ATOM     17  C   UNL d   1      29.381  16.019 -23.704  0.00  0.00     0.000 A 
ATOM     18  C   UNL d   1      28.068  16.438 -24.072  0.00  0.00     0.000 C 
ATOM     19  C   UNL d   1      30.199  16.157 -23.698  0.00  0.00     0.005 A 
ENDBRANCH  11  13
ENDBRANCH   9  10
BRANCH   9  20
ATOM     20  C   UNL d   1      32.838  17.950 -24.682  0.00  0.00     0.022 C 
ATOM     21  C   UNL d   1      32.838  18.687 -25.070  0.00  0.00     0.002 C 
ATOM     22  C   UNL d   1      33.241  17.312 -25.013  0.00  0.00     0.002 C 
ENDBRANCH   9  20
ENDBRANCH   1   9
BRANCH   3  23
ATOM     23  C   UNL d   1      32.849  20.774 -21.604  0.00  0.00     0.148 A 
ATOM     24  N   UNL d   1      32.969  20.776 -20.788  0.00  0.00    -0.227 NA
ATOM     25  C   UNL d   1      32.972  21.491 -20.379  0.00  0.00     0.101 A 
ATOM     26  C   UNL d   1      32.857  22.201 -20.775  0.00  0.00     0.021 A 
ATOM     27  C   UNL d   1      32.736  22.193 -21.600  0.00  0.00     0.005 A 
ATOM     28  C   UNL d   1      32.732  21.481 -22.011  0.00  0.00     0.037 A 
ENDBRANCH   3  23
TORSDOF 5
ENDMDL
