MODEL 1
REMARK VINA RESULT:     -11.6      0.000      0.000
REMARK  6 active torsions:
REMARK  status: ('A' for Active; 'I' for Inactive)
REMARK    1  A    between atoms: C_2  and  C_1 
REMARK    2  A    between atoms: C_6  and  C_1 
REMARK       I    between atoms: N_10  and  C_2 
REMARK    3  A    between atoms: C_14  and  C_3 
REMARK    4  A    between atoms: C_4  and  C_12 
REMARK    5  A    between atoms: C_7  and  C_6 
REMARK    6  A    between atoms: C_15  and  N_10 
ROOT
ATOM      1  C   UNL d   1      54.062  32.842  54.056  0.00  0.00     0.128 C 
ATOM      2  C   UNL d   1      54.218  32.997  54.846  0.00  0.00     0.106 C 
ATOM      3  N   UNL d   1      54.375  33.173  55.634  0.00  0.00    -0.191 NA
ENDROOT
BRANCH   1   4
ATOM      4  C   UNL d   1      53.948  32.037  53.825  0.00  0.00     0.289 C 
ATOM      5  N   UNL d   1      53.350  31.602  54.109  0.00  0.00    -0.207 NA
ATOM      6  O   UNL d   1      54.497  31.693  53.272  0.00  0.00    -0.264 OA
BRANCH   5   7
ATOM      7  C   UNL d   1      53.244  30.809  53.877  0.00  0.00     0.085 A 
ATOM      8  C   UNL d   1      53.384  30.188  54.418  0.00  0.00     0.023 A 
ATOM      9  C   UNL d   1      53.284  29.410  54.203  0.00  0.00     0.073 A 
ATOM     10  C   UNL d   1      53.035  29.211  53.429  0.00  0.00     0.004 A 
ATOM     11  C   UNL d   1      52.893  29.826  52.886  0.00  0.00     0.002 A 
ATOM     12  C   UNL d   1      53.000  30.604  53.120  0.00  0.00     0.019 A 
BRANCH   9  13
ATOM     13  C   UNL d   1      53.429  28.840  54.753  0.00  0.00     0.419 C 
ATOM     14  F   UNL d   1      53.603  28.217  55.262  0.00  0.00    -0.166 F 
ATOM     15  F   UNL d   1      53.244  28.963  55.626  0.00  0.00    -0.166 F 
ATOM     16  F   UNL d   1      53.735  28.185  54.491  0.00  0.00    -0.166 F 
ENDBRANCH   9  13
ENDBRANCH   5   7
ENDBRANCH   1   4
BRANCH   1  17
ATOM     17  C   UNL d   1      54.014  33.440  53.495  0.00  0.00     0.040 C 
BRANCH  17  18
ATOM     18  C   UNL d   1      53.311  33.892  53.422  0.00  0.00     0.101 A 
ATOM     19  O   UNL d   1      52.652  33.660  52.964  0.00  0.00    -0.307 OA
ATOM     20  C   UNL d   1      52.089  34.263  53.050  0.00  0.00     0.100 A 
ATOM     21  C   UNL d   1      52.414  34.854  53.561  0.00  0.00     0.027 A 
ATOM     22  C   UNL d   1      53.170  34.599  53.776  0.00  0.00     0.027 A 
BRANCH  20  23
ATOM     23  C   UNL d   1      51.316  34.353  52.729  0.00  0.00     0.024 A 
ATOM     24  C   UNL d   1      50.675  34.663  53.151  0.00  0.00     0.013 A 
ATOM     25  C   UNL d   1      49.909  34.741  52.801  0.00  0.00     0.058 A 
ATOM     26 CL   UNL d   1      49.282  35.063  53.269  0.00  0.00    -0.082 Cl
ATOM     27  C   UNL d   1      49.802  34.503  52.023  0.00  0.00     0.011 A 
ATOM     28  C   UNL d   1      50.413  34.197  51.591  0.00  0.00     0.001 A 
ATOM     29  C   UNL d   1      51.151  34.111  51.898  0.00  0.00     0.002 A 
ENDBRANCH  20  23
ENDBRANCH  17  18
ENDBRANCH   1  17
TORSDOF 6
ENDMDL
MODEL 2
REMARK VINA RESULT:     -10.6      3.255      5.188
REMARK  6 active torsions:
REMARK  status: ('A' for Active; 'I' for Inactive)
REMARK    1  A    between atoms: C_2  and  C_1 
REMARK    2  A    between atoms: C_6  and  C_1 
REMARK       I    between atoms: N_10  and  C_2 
REMARK    3  A    between atoms: C_14  and  C_3 
REMARK    4  A    between atoms: C_4  and  C_12 
REMARK    5  A    between atoms: C_7  and  C_6 
REMARK    6  A    between atoms: C_15  and  N_10 
ROOT
ATOM      1  C   UNL d   1      53.003  34.360  53.654  0.00  0.00     0.128 C 
ATOM      2  C   UNL d   1      53.001  34.730  54.385  0.00  0.00     0.106 C 
ATOM      3  N   UNL d   1      53.019  35.094  55.124  0.00  0.00    -0.191 NA
ENDROOT
BRANCH   1   4
ATOM      4  C   UNL d   1      52.327  34.464  53.156  0.00  0.00     0.289 C 
ATOM      5  N   UNL d   1      51.606  34.220  53.375  0.00  0.00    -0.207 NA
ATOM      6  O   UNL d   1      52.435  34.842  52.401  0.00  0.00    -0.264 OA
BRANCH   5   7
ATOM      7  C   UNL d   1      50.944  34.325  52.880  0.00  0.00     0.085 A 
ATOM      8  C   UNL d   1      50.291  34.775  53.139  0.00  0.00     0.023 A 
ATOM      9  C   UNL d   1      49.639  34.884  52.664  0.00  0.00     0.073 A 
ATOM     10  C   UNL d   1      49.608  34.545  51.899  0.00  0.00     0.004 A 
ATOM     11  C   UNL d   1      50.257  34.096  51.637  0.00  0.00     0.002 A 
ATOM     12  C   UNL d   1      50.906  33.996  52.129  0.00  0.00     0.019 A 
BRANCH   9  13
ATOM     13  C   UNL d   1      49.028  35.325  52.950  0.00  0.00     0.419 C 
ATOM     14  F   UNL d   1      48.366  35.754  53.185  0.00  0.00    -0.166 F 
ATOM     15  F   UNL d   1      49.098  35.796  53.715  0.00  0.00    -0.166 F 
ATOM     16  F   UNL d   1      48.382  35.321  52.532  0.00  0.00    -0.166 F 
ENDBRANCH   9  13
ENDBRANCH   5   7
ENDBRANCH   1   4
BRANCH   1  17
ATOM     17  C   UNL d   1      53.633  33.900  53.399  0.00  0.00     0.040 C 
BRANCH  17  18
ATOM     18  C   UNL d   1      53.703  33.104  53.657  0.00  0.00     0.101 A 
ATOM     19  O   UNL d   1      53.320  32.459  53.291  0.00  0.00    -0.307 OA
ATOM     20  C   UNL d   1      53.541  31.786  53.722  0.00  0.00     0.100 A 
ATOM     21  C   UNL d   1      54.056  32.033  54.346  0.00  0.00     0.027 A 
ATOM     22  C   UNL d   1      54.139  32.852  54.282  0.00  0.00     0.027 A 
BRANCH  20  23
ATOM     23  C   UNL d   1      53.339  30.974  53.629  0.00  0.00     0.024 A 
ATOM     24  C   UNL d   1      53.499  30.392  54.196  0.00  0.00     0.013 A 
ATOM     25  C   UNL d   1      53.284  29.583  54.074  0.00  0.00     0.058 A 
ATOM     26 CL   UNL d   1      53.466  29.021  54.680  0.00  0.00    -0.082 Cl
ATOM     27  C   UNL d   1      52.908  29.373  53.375  0.00  0.00     0.011 A 
ATOM     28  C   UNL d   1      52.742  29.924  52.807  0.00  0.00     0.001 A 
ATOM     29  C   UNL d   1      52.935  30.699  52.896  0.00  0.00     0.002 A 
ENDBRANCH  20  23
ENDBRANCH  17  18
ENDBRANCH   1  17
TORSDOF 6
ENDMDL
MODEL 3
REMARK VINA RESULT:     -10.3      1.738      2.683
REMARK  6 active torsions:
REMARK  status: ('A' for Active; 'I' for Inactive)
REMARK    1  A    between atoms: C_2  and  C_1 
REMARK    2  A    between atoms: C_6  and  C_1 
REMARK       I    between atoms: N_10  and  C_2 
REMARK    3  A    between atoms: C_14  and  C_3 
REMARK    4  A    between atoms: C_4  and  C_12 
REMARK    5  A    between atoms: C_7  and  C_6 
REMARK    6  A    between atoms: C_15  and  N_10 
ROOT
ATOM      1  C   UNL d   1      52.188  34.314  53.278  0.00  0.00     0.128 C 
ATOM      2  C   UNL d   1      52.362  34.987  53.712  0.00  0.00     0.106 C 
ATOM      3  N   UNL d   1      52.525  35.674  54.136  0.00  0.00    -0.191 NA
ENDROOT
BRANCH   1   4
ATOM      4  C   UNL d   1      52.540  33.584  53.520  0.00  0.00     0.289 C 
ATOM      5  N   UNL d   1      52.920  33.115  53.008  0.00  0.00    -0.207 NA
ATOM      6  O   UNL d   1      52.478  33.357  54.339  0.00  0.00    -0.264 OA
BRANCH   5   7
ATOM      7  C   UNL d   1      53.265  32.397  53.252  0.00  0.00     0.085 A 
ATOM      8  C   UNL d   1      52.920  31.668  53.036  0.00  0.00     0.023 A 
ATOM      9  C   UNL d   1      53.248  30.960  53.269  0.00  0.00     0.073 A 
ATOM     10  C   UNL d   1      53.944  30.947  53.735  0.00  0.00     0.004 A 
ATOM     11  C   UNL d   1      54.291  31.671  53.954  0.00  0.00     0.002 A 
ATOM     12  C   UNL d   1      53.947  32.374  53.709  0.00  0.00     0.019 A 
BRANCH   9  13
ATOM     13  C   UNL d   1      52.887  30.278  53.040  0.00  0.00     0.419 C 
ATOM     14  F   UNL d   1      52.496  29.573  52.873  0.00  0.00    -0.166 F 
ATOM     15  F   UNL d   1      52.921  29.984  52.188  0.00  0.00    -0.166 F 
ATOM     16  F   UNL d   1      52.511  29.892  53.589  0.00  0.00    -0.166 F 
ENDBRANCH   9  13
ENDBRANCH   5   7
ENDBRANCH   1   4
BRANCH   1  17
ATOM     17  C   UNL d   1      51.689  34.333  52.626  0.00  0.00     0.040 C 
BRANCH  17  18
ATOM     18  C   UNL d   1      50.859  34.388  52.735  0.00  0.00     0.101 A 
ATOM     19  O   UNL d   1      50.429  35.103  52.699  0.00  0.00    -0.307 OA
ATOM     20  C   UNL d   1      49.636  34.902  52.838  0.00  0.00     0.100 A 
ATOM     21  C   UNL d   1      49.596  34.065  52.956  0.00  0.00     0.027 A 
ATOM     22  C   UNL d   1      50.365  33.773  52.887  0.00  0.00     0.027 A 
BRANCH  20  23
ATOM     23  C   UNL d   1      48.940  35.374  52.872  0.00  0.00     0.024 A 
ATOM     24  C   UNL d   1      48.423  35.479  52.234  0.00  0.00     0.013 A 
ATOM     25  C   UNL d   1      47.731  35.960  52.298  0.00  0.00     0.058 A 
ATOM     26 CL   UNL d   1      47.230  36.040  51.621  0.00  0.00    -0.082 Cl
ATOM     27  C   UNL d   1      47.570  36.330  53.013  0.00  0.00     0.011 A 
ATOM     28  C   UNL d   1      48.059  36.242  53.650  0.00  0.00     0.001 A 
ATOM     29  C   UNL d   1      48.724  35.791  53.617  0.00  0.00     0.002 A 
ENDBRANCH  20  23
ENDBRANCH  17  18
ENDBRANCH   1  17
TORSDOF 6
ENDMDL
MODEL 4
REMARK VINA RESULT:      -9.1      2.481      3.572
REMARK  6 active torsions:
REMARK  status: ('A' for Active; 'I' for Inactive)
REMARK    1  A    between atoms: C_2  and  C_1 
REMARK    2  A    between atoms: C_6  and  C_1 
REMARK       I    between atoms: N_10  and  C_2 
REMARK    3  A    between atoms: C_14  and  C_3 
REMARK    4  A    between atoms: C_4  and  C_12 
REMARK    5  A    between atoms: C_7  and  C_6 
REMARK    6  A    between atoms: C_15  and  N_10 
ROOT
ATOM      1  C   UNL d   1      51.439  34.250  53.458  0.00  0.00     0.128 C 
ATOM      2  C   UNL d   1      51.267  34.971  53.807  0.00  0.00     0.106 C 
ATOM      3  N   UNL d   1      51.073  35.692  54.153  0.00  0.00    -0.191 NA
ENDROOT
BRANCH   1   4
ATOM      4  C   UNL d   1      52.245  33.994  53.455  0.00  0.00     0.289 C 
ATOM      5  N   UNL d   1      52.500  33.411  53.926  0.00  0.00    -0.207 NA
ATOM      6  O   UNL d   1      52.790  34.381  52.926  0.00  0.00    -0.264 OA
BRANCH   5   7
ATOM      7  C   UNL d   1      53.295  33.163  53.918  0.00  0.00     0.085 A 
ATOM      8  C   UNL d   1      53.830  33.444  54.494  0.00  0.00     0.023 A 
ATOM      9  C   UNL d   1      54.610  33.209  54.496  0.00  0.00     0.073 A 
ATOM     10  C   UNL d   1      54.895  32.677  53.916  0.00  0.00     0.004 A 
ATOM     11  C   UNL d   1      54.366  32.394  53.340  0.00  0.00     0.002 A 
ATOM     12  C   UNL d   1      53.584  32.642  53.353  0.00  0.00     0.019 A 
BRANCH   9  13
ATOM     13  C   UNL d   1      55.096  33.502  55.068  0.00  0.00     0.419 C 
ATOM     14  F   UNL d   1      55.625  33.838  55.600  0.00  0.00    -0.166 F 
ATOM     15  F   UNL d   1      55.000  33.275  55.935  0.00  0.00    -0.166 F 
ATOM     16  F   UNL d   1      55.644  33.986  54.832  0.00  0.00    -0.166 F 
ENDBRANCH   9  13
ENDBRANCH   5   7
ENDBRANCH   1   4
BRANCH   1  17
ATOM     17  C   UNL d   1      50.858  33.779  53.118  0.00  0.00     0.040 C 
BRANCH  17  18
ATOM     18  C   UNL d   1      50.339  34.103  52.544  0.00  0.00     0.101 A 
ATOM     19  O   UNL d   1      49.587  34.421  52.719  0.00  0.00    -0.307 OA
ATOM     20  C   UNL d   1      49.270  34.676  51.996  0.00  0.00     0.100 A 
ATOM     21  C   UNL d   1      49.836  34.508  51.390  0.00  0.00     0.027 A 
ATOM     22  C   UNL d   1      50.487  34.155  51.756  0.00  0.00     0.027 A 
BRANCH  20  23
ATOM     23  C   UNL d   1      48.536  35.041  51.808  0.00  0.00     0.024 A 
ATOM     24  C   UNL d   1      48.173  35.616  52.280  0.00  0.00     0.013 A 
ATOM     25  C   UNL d   1      47.434  35.966  52.066  0.00  0.00     0.058 A 
ATOM     26 CL   UNL d   1      47.099  36.550  52.577  0.00  0.00    -0.082 Cl
ATOM     27  C   UNL d   1      47.069  35.726  51.370  0.00  0.00     0.011 A 
ATOM     28  C   UNL d   1      47.403  35.166  50.893  0.00  0.00     0.001 A 
ATOM     29  C   UNL d   1      48.105  34.817  51.073  0.00  0.00     0.002 A 
ENDBRANCH  20  23
ENDBRANCH  17  18
ENDBRANCH   1  17
TORSDOF 6
ENDMDL
MODEL 5
REMARK VINA RESULT:      -8.9      4.147      6.352
REMARK  6 active torsions:
REMARK  status: ('A' for Active; 'I' for Inactive)
REMARK    1  A    between atoms: C_2  and  C_1 
REMARK    2  A    between atoms: C_6  and  C_1 
REMARK       I    between atoms: N_10  and  C_2 
REMARK    3  A    between atoms: C_14  and  C_3 
REMARK    4  A    between atoms: C_4  and  C_12 
REMARK    5  A    between atoms: C_7  and  C_6 
REMARK    6  A    between atoms: C_15  and  N_10 
ROOT
ATOM      1  C   UNL d   1      50.659  34.060  52.687  0.00  0.00     0.128 C 
ATOM      2  C   UNL d   1      51.080  34.167  51.992  0.00  0.00     0.106 C 
ATOM      3  N   UNL d   1      51.514  34.257  51.298  0.00  0.00    -0.191 NA
ENDROOT
BRANCH   1   4
ATOM      4  C   UNL d   1      50.066  34.631  52.882  0.00  0.00     0.289 C 
ATOM      5  N   UNL d   1      49.360  34.638  52.524  0.00  0.00    -0.207 NA
ATOM      6  O   UNL d   1      50.244  35.208  53.483  0.00  0.00    -0.264 OA
BRANCH   5   7
ATOM      7  C   UNL d   1      48.780  35.203  52.722  0.00  0.00     0.085 A 
ATOM      8  C   UNL d   1      48.147  35.358  52.199  0.00  0.00     0.023 A 
ATOM      9  C   UNL d   1      47.575  35.908  52.382  0.00  0.00     0.073 A 
ATOM     10  C   UNL d   1      47.608  36.333  53.103  0.00  0.00     0.004 A 
ATOM     11  C   UNL d   1      48.236  36.181  53.626  0.00  0.00     0.002 A 
ATOM     12  C   UNL d   1      48.804  35.624  53.426  0.00  0.00     0.019 A 
BRANCH   9  13
ATOM     13  C   UNL d   1      46.981  36.030  51.852  0.00  0.00     0.419 C 
ATOM     14  F   UNL d   1      46.402  36.220  51.299  0.00  0.00    -0.166 F 
ATOM     15  F   UNL d   1      46.351  35.406  51.692  0.00  0.00    -0.166 F 
ATOM     16  F   UNL d   1      46.982  36.709  51.492  0.00  0.00    -0.166 F 
ENDBRANCH   9  13
ENDBRANCH   5   7
ENDBRANCH   1   4
BRANCH   1  17
ATOM     17  C   UNL d   1      50.797  33.424  53.188  0.00  0.00     0.040 C 
BRANCH  17  18
ATOM     18  C   UNL d   1      51.576  33.128  53.284  0.00  0.00     0.101 A 
ATOM     19  O   UNL d   1      52.177  33.523  53.710  0.00  0.00    -0.307 OA
ATOM     20  C   UNL d   1      52.849  33.039  53.663  0.00  0.00     0.100 A 
ATOM     21  C   UNL d   1      52.645  32.354  53.209  0.00  0.00     0.027 A 
ATOM     22  C   UNL d   1      51.854  32.435  52.988  0.00  0.00     0.027 A 
BRANCH  20  23
ATOM     23  C   UNL d   1      53.624  33.131  53.977  0.00  0.00     0.024 A 
ATOM     24  C   UNL d   1      53.782  33.293  54.773  0.00  0.00     0.013 A 
ATOM     25  C   UNL d   1      54.573  33.380  55.060  0.00  0.00     0.058 A 
ATOM     26 CL   UNL d   1      54.689  33.545  55.882  0.00  0.00    -0.082 Cl
ATOM     27  C   UNL d   1      55.197  33.302  54.532  0.00  0.00     0.011 A 
ATOM     28  C   UNL d   1      55.067  33.144  53.750  0.00  0.00     0.001 A 
ATOM     29  C   UNL d   1      54.326  33.056  53.451  0.00  0.00     0.002 A 
ENDBRANCH  20  23
ENDBRANCH  17  18
ENDBRANCH   1  17
TORSDOF 6
ENDMDL
