MODEL 1
REMARK VINA RESULT:      17.4      0.000      0.000
REMARK  2 active torsions:
REMARK  status: ('A' for Active; 'I' for Inactive)
REMARK    1  A    between atoms: C_4  and  C_1 
REMARK    2  A    between atoms: C_8  and  C_4 
ROOT
ATOM      1  C   UNL d   1      13.759  12.293  -2.678  0.00  0.00     0.139 A 
ATOM      2  O   UNL d   1      13.248  12.043  -2.074  0.00  0.00    -0.304 OA
ATOM      3  C   UNL d   1      14.501  12.398  -2.377  0.00  0.00     0.030 A 
ATOM      4  C   UNL d   1      13.705  11.996  -1.383  0.00  0.00     0.100 A 
ATOM      5  C   UNL d   1      14.476  12.215  -1.570  0.00  0.00     0.025 A 
ATOM      6  C   UNL d   1      13.504  11.780  -0.606  0.00  0.00     0.025 A 
ATOM      7  C   UNL d   1      15.067  12.223  -0.985  0.00  0.00     0.002 A 
ATOM      8  C   UNL d   1      14.092  11.788  -0.028  0.00  0.00     0.002 A 
ATOM      9  C   UNL d   1      14.863  12.007  -0.214  0.00  0.00     0.000 A 
ENDROOT
BRANCH   1  10
ATOM     10  C   UNL d   1      13.530  12.416  -3.478  0.00  0.00     0.218 C 
ATOM     11  O   UNL d   1      13.500  11.779  -4.012  0.00  0.00    -0.284 OA
BRANCH  10  12
ATOM     12  C   UNL d   1      13.331  13.170  -3.750  0.00  0.00     0.041 A 
ATOM     13  C   UNL d   1      12.977  13.239  -4.496  0.00  0.00     0.003 A 
ATOM     14  C   UNL d   1      12.775  13.997  -4.773  0.00  0.00     0.000 A 
ATOM     15  C   UNL d   1      12.924  14.663  -4.315  0.00  0.00     0.000 A 
ATOM     16  C   UNL d   1      13.278  14.585  -3.571  0.00  0.00     0.000 A 
ATOM     17  C   UNL d   1      13.480  13.836  -3.293  0.00  0.00     0.003 A 
ENDBRANCH  10  12
ENDBRANCH   1  10
TORSDOF 2
ENDMDL
