MODEL 1
REMARK VINA RESULT:      63.6      0.000      0.000
REMARK  4 active torsions:
REMARK  status: ('A' for Active; 'I' for Inactive)
REMARK    1  A    between atoms: C_5  and  C_2 
REMARK    2  A    between atoms: C_7  and  C_5 
REMARK       I    between atoms: N_9  and  C_7 
REMARK    3  A    between atoms: C_8  and  C_10 
REMARK    4  A    between atoms: C_17  and  N_9 
ROOT
ATOM      1  C   UNL d   1      61.673  47.080  49.823  0.00  0.00     0.280 C 
ATOM      2  N   UNL d   1      61.590  47.854  49.560  0.00  0.00    -0.208 NA
ATOM      3  O   UNL d   1      61.445  46.878  50.587  0.00  0.00    -0.265 OA
ENDROOT
BRANCH   1   4
ATOM      4  C   UNL d   1      61.986  46.501  49.321  0.00  0.00     0.074 C 
BRANCH   4   5
ATOM      5  C   UNL d   1      61.780  45.718  49.192  0.00  0.00     0.097 A 
ATOM      6  C   UNL d   1      62.304  45.085  49.124  0.00  0.00     0.288 A 
ATOM      7  N   UNL d   1      61.866  44.400  48.997  0.00  0.00    -0.163 NA
ATOM      8  O   UNL d   1      63.123  45.139  49.175  0.00  0.00    -0.265 OA
ATOM      9  C   UNL d   1      61.066  44.607  48.986  0.00  0.00     0.313 A 
ATOM     10  S   UNL d   1      61.013  45.419  49.106  0.00  0.00    -0.021 SA
ATOM     11  O   UNL d   1      60.434  44.098  48.876  0.00  0.00    -0.258 OA
ENDBRANCH   4   5
ENDBRANCH   1   4
BRANCH   2  12
ATOM     12  C   UNL d   1      61.266  48.265  50.198  0.00  0.00     0.085 A 
ATOM     13  C   UNL d   1      61.488  49.039  50.342  0.00  0.00     0.019 A 
ATOM     14  C   UNL d   1      61.167  49.455  50.979  0.00  0.00     0.008 A 
ATOM     15  C   UNL d   1      60.615  49.084  51.478  0.00  0.00     0.065 A 
ATOM     16  C   UNL d   1      60.391  48.295  51.328  0.00  0.00     0.008 A 
ATOM     17  C   UNL d   1      60.716  47.891  50.692  0.00  0.00     0.019 A 
BRANCH  15  18
ATOM     18  C   UNL d   1      60.293  49.493  52.112  0.00  0.00     0.211 C 
ATOM     19  O   UNL d   1      59.492  49.693  52.109  0.00  0.00    -0.644 OA
ATOM     20  O   UNL d   1      60.767  49.706  52.754  0.00  0.00    -0.644 OA
ENDBRANCH  15  18
ENDBRANCH   2  12
TORSDOF 4
ENDMDL
