MODEL 1
REMARK VINA RESULT:      -5.3      0.000      0.000
REMARK  5 active torsions:
REMARK  status: ('A' for Active; 'I' for Inactive)
REMARK    1  A    between atoms: N_2  and  S_1 
REMARK    2  A    between atoms: C_4  and  S_1 
REMARK    3  A    between atoms: C_3  and  N_2 
REMARK    4  A    between atoms: O_19  and  C_13 
REMARK    5  A    between atoms: C_20  and  O_19 
ROOT
ATOM      1  S   UNL d   1      57.442  -0.096  31.068  0.00  0.00     0.327 S 
ATOM      2  O   UNL d   1      57.659   0.681  31.244  0.00  0.00    -0.186 OA
ATOM      3  O   UNL d   1      57.222  -0.874  30.894  0.00  0.00    -0.186 OA
ENDROOT
BRANCH   1   4
ATOM      4  N   UNL d   1      57.978  -0.108  30.438  0.00  0.00    -0.314 NA
BRANCH   4   5
ATOM      5  C   UNL d   1      58.519  -0.131  29.814  0.00  0.00     0.185 A 
ATOM      6  C   UNL d   1      59.255  -0.483  29.922  0.00  0.00     0.048 A 
ATOM      7  C   UNL d   1      59.791  -0.505  29.304  0.00  0.00     0.060 A 
ATOM      8 CL   UNL d   1      60.529  -0.857  29.411  0.00  0.00    -0.082 Cl
ATOM      9  C   UNL d   1      59.593  -0.177  28.574  0.00  0.00     0.015 A 
ATOM     10  C   UNL d   1      58.855   0.175  28.468  0.00  0.00     0.046 A 
ATOM     11  C   UNL d   1      58.313   0.198  29.093  0.00  0.00     0.226 A 
ATOM     12  O   UNL d   1      57.575   0.550  28.987  0.00  0.00    -0.284 OA
ENDBRANCH   4   5
ENDBRANCH   1   4
BRANCH   1  13
ATOM     13  C   UNL d   1      56.905  -0.088  31.696  0.00  0.00     0.117 A 
ATOM     14  C   UNL d   1      56.669  -0.797  32.040  0.00  0.00     0.016 A 
ATOM     15  C   UNL d   1      56.133  -0.794  32.668  0.00  0.00     0.025 A 
ATOM     16  C   UNL d   1      55.831  -0.074  32.953  0.00  0.00     0.100 A 
ATOM     17  C   UNL d   1      56.075   0.636  32.600  0.00  0.00     0.025 A 
ATOM     18  C   UNL d   1      56.609   0.628  31.974  0.00  0.00     0.016 A 
BRANCH  16  19
ATOM     19  O   UNL d   1      55.294  -0.066  33.582  0.00  0.00    -0.305 OA
BRANCH  19  20
ATOM     20  C   UNL d   1      55.355   0.511  34.166  0.00  0.00     0.123 C 
ATOM     21  C   UNL d   1      54.792   0.556  34.770  0.00  0.00     0.029 C 
ENDBRANCH  19  20
ENDBRANCH  16  19
ENDBRANCH   1  13
TORSDOF 5
ENDMDL
MODEL 2
REMARK VINA RESULT:      -4.9      0.667      1.024
REMARK  5 active torsions:
REMARK  status: ('A' for Active; 'I' for Inactive)
REMARK    1  A    between atoms: N_2  and  S_1 
REMARK    2  A    between atoms: C_4  and  S_1 
REMARK    3  A    between atoms: C_3  and  N_2 
REMARK    4  A    between atoms: O_19  and  C_13 
REMARK    5  A    between atoms: C_20  and  O_19 
ROOT
ATOM      1  S   UNL d   1      57.217  -0.395  31.303  0.00  0.00     0.327 S 
ATOM      2  O   UNL d   1      56.651  -0.889  30.961  0.00  0.00    -0.186 OA
ATOM      3  O   UNL d   1      57.782   0.101  31.649  0.00  0.00    -0.186 OA
ENDROOT
BRANCH   1   4
ATOM      4  N   UNL d   1      57.714  -0.503  30.651  0.00  0.00    -0.314 NA
BRANCH   4   5
ATOM      5  C   UNL d   1      58.202  -0.620  29.994  0.00  0.00     0.185 A 
ATOM      6  C   UNL d   1      58.631  -1.319  29.922  0.00  0.00     0.048 A 
ATOM      7  C   UNL d   1      59.114  -1.434  29.272  0.00  0.00     0.060 A 
ATOM      8 CL   UNL d   1      59.546  -2.134  29.197  0.00  0.00    -0.082 Cl
ATOM      9  C   UNL d   1      59.171  -0.852  28.691  0.00  0.00     0.015 A 
ATOM     10  C   UNL d   1      58.740  -0.153  28.765  0.00  0.00     0.046 A 
ATOM     11  C   UNL d   1      58.251  -0.036  29.422  0.00  0.00     0.226 A 
ATOM     12  O   UNL d   1      57.820   0.663  29.497  0.00  0.00    -0.284 OA
ENDBRANCH   4   5
ENDBRANCH   1   4
BRANCH   1  13
ATOM     13  C   UNL d   1      56.724  -0.284  31.958  0.00  0.00     0.117 A 
ATOM     14  C   UNL d   1      56.483   0.475  32.163  0.00  0.00     0.016 A 
ATOM     15  C   UNL d   1      55.990   0.591  32.816  0.00  0.00     0.025 A 
ATOM     16  C   UNL d   1      55.739  -0.061  33.266  0.00  0.00     0.100 A 
ATOM     17  C   UNL d   1      55.987  -0.823  33.052  0.00  0.00     0.025 A 
ATOM     18  C   UNL d   1      56.478  -0.933  32.400  0.00  0.00     0.016 A 
BRANCH  16  19
ATOM     19  O   UNL d   1      55.245   0.050  33.921  0.00  0.00    -0.305 OA
BRANCH  19  20
ATOM     20  C   UNL d   1      55.486   0.539  34.537  0.00  0.00     0.123 C 
ATOM     21  C   UNL d   1      54.985   0.681  35.180  0.00  0.00     0.029 C 
ENDBRANCH  19  20
ENDBRANCH  16  19
ENDBRANCH   1  13
TORSDOF 5
ENDMDL
MODEL 3
REMARK VINA RESULT:      -2.6      1.940      4.807
REMARK  5 active torsions:
REMARK  status: ('A' for Active; 'I' for Inactive)
REMARK    1  A    between atoms: N_2  and  S_1 
REMARK    2  A    between atoms: C_4  and  S_1 
REMARK    3  A    between atoms: C_3  and  N_2 
REMARK    4  A    between atoms: O_19  and  C_13 
REMARK    5  A    between atoms: C_20  and  O_19 
ROOT
ATOM      1  S   UNL d   1      57.274  -0.218  31.545  0.00  0.00     0.327 S 
ATOM      2  O   UNL d   1      57.626  -0.941  31.733  0.00  0.00    -0.186 OA
ATOM      3  O   UNL d   1      56.924   0.506  31.353  0.00  0.00    -0.186 OA
ENDROOT
BRANCH   1   4
ATOM      4  N   UNL d   1      56.753  -0.300  32.182  0.00  0.00    -0.314 NA
BRANCH   4   5
ATOM      5  C   UNL d   1      56.236  -0.394  32.819  0.00  0.00     0.185 A 
ATOM      6  C   UNL d   1      56.190   0.188  33.400  0.00  0.00     0.048 A 
ATOM      7  C   UNL d   1      55.678   0.094  34.031  0.00  0.00     0.060 A 
ATOM      8 CL   UNL d   1      55.630   0.676  34.614  0.00  0.00    -0.082 Cl
ATOM      9  C   UNL d   1      55.209  -0.582  34.085  0.00  0.00     0.015 A 
ATOM     10  C   UNL d   1      55.256  -1.163  33.502  0.00  0.00     0.046 A 
ATOM     11  C   UNL d   1      55.774  -1.069  32.864  0.00  0.00     0.226 A 
ATOM     12  O   UNL d   1      55.822  -1.650  32.281  0.00  0.00    -0.284 OA
ENDBRANCH   4   5
ENDBRANCH   1   4
BRANCH   1  13
ATOM     13  C   UNL d   1      57.792  -0.132  30.906  0.00  0.00     0.117 A 
ATOM     14  C   UNL d   1      57.945  -0.773  30.415  0.00  0.00     0.016 A 
ATOM     15  C   UNL d   1      58.462  -0.692  29.776  0.00  0.00     0.025 A 
ATOM     16  C   UNL d   1      58.829   0.040  29.630  0.00  0.00     0.100 A 
ATOM     17  C   UNL d   1      58.669   0.681  30.131  0.00  0.00     0.025 A 
ATOM     18  C   UNL d   1      58.153   0.595  30.766  0.00  0.00     0.016 A 
BRANCH  16  19
ATOM     19  O   UNL d   1      59.347   0.126  28.991  0.00  0.00    -0.305 OA
BRANCH  19  20
ATOM     20  C   UNL d   1      60.158   0.177  29.125  0.00  0.00     0.123 C 
ATOM     21  C   UNL d   1      60.687  -0.257  28.661  0.00  0.00     0.029 C 
ENDBRANCH  19  20
ENDBRANCH  16  19
ENDBRANCH   1  13
TORSDOF 5
ENDMDL
