MODEL 1
REMARK VINA RESULT:      80.3      0.000      0.000
REMARK  3 active torsions:
REMARK  status: ('A' for Active; 'I' for Inactive)
REMARK    1  A    between atoms: C_2  and  C_1 
REMARK    2  A    between atoms: N_12  and  C_6 
REMARK    3  A    between atoms: C_15  and  N_12 
ROOT
ATOM      1  C   UNL d   1      60.901  47.868  50.565  0.00  0.00     0.082 A 
ATOM      2  C   UNL d   1      61.426  48.038  49.947  0.00  0.00     0.302 A 
ATOM      3  C   UNL d   1      60.761  47.077  50.799  0.00  0.00     0.009 A 
ATOM      4  O   UNL d   1      61.816  47.416  49.555  0.00  0.00    -0.273 OA
ATOM      5  C   UNL d   1      61.158  46.470  50.396  0.00  0.00     0.025 A 
ATOM      6  C   UNL d   1      61.680  46.641  49.780  0.00  0.00     0.103 A 
ATOM      7  O   UNL d   1      61.562  48.814  49.720  0.00  0.00    -0.259 OA
ATOM      8  C   UNL d   1      61.024  45.687  50.621  0.00  0.00     0.026 A 
ATOM      9  C   UNL d   1      62.067  46.017  49.392  0.00  0.00     0.027 A 
ATOM     10  C   UNL d   1      61.409  45.076  50.234  0.00  0.00     0.094 A 
ATOM     11  C   UNL d   1      61.932  45.241  49.618  0.00  0.00     0.026 A 
ATOM     12  O   UNL d   1      61.276  44.302  50.456  0.00  0.00    -0.328 OA
ATOM     13  C   UNL d   1      61.132  43.524  50.692  0.00  0.00     0.181 C 
ENDROOT
BRANCH   1  14
ATOM     14  C   UNL d   1      60.517  48.479  50.952  0.00  0.00     0.095 A 
ATOM     15  N   UNL d   1      59.728  48.674  50.875  0.00  0.00    -0.221 NA
ATOM     16  C   UNL d   1      59.579  49.317  51.360  0.00  0.00     0.194 A 
ATOM     17  S   UNL d   1      60.282  49.524  51.741  0.00  0.00    -0.046 SA
ATOM     18  C   UNL d   1      60.865  49.001  51.487  0.00  0.00     0.058 A 
BRANCH  16  19
ATOM     19  N   UNL d   1      58.861  49.696  51.456  0.00  0.00    -0.221 NA
BRANCH  19  20
ATOM     20  C   UNL d   1      58.294  49.643  50.869  0.00  0.00     0.087 A 
ATOM     21  C   UNL d   1      57.500  49.540  51.071  0.00  0.00     0.061 A 
ATOM     22  C   UNL d   1      56.932  49.487  50.485  0.00  0.00     0.197 A 
ATOM     23  O   UNL d   1      56.144  49.385  50.690  0.00  0.00    -0.286 OA
ATOM     24  C   UNL d   1      57.154  49.537  49.688  0.00  0.00     0.042 A 
ATOM     25  C   UNL d   1      57.940  49.639  49.489  0.00  0.00     0.005 A 
ATOM     26  C   UNL d   1      58.517  49.693  50.076  0.00  0.00     0.019 A 
ENDBRANCH  19  20
ENDBRANCH  16  19
ENDBRANCH   1  14
TORSDOF 3
ENDMDL
MODEL 2
REMARK VINA RESULT:      81.4      2.618      3.503
REMARK  3 active torsions:
REMARK  status: ('A' for Active; 'I' for Inactive)
REMARK    1  A    between atoms: C_2  and  C_1 
REMARK    2  A    between atoms: N_12  and  C_6 
REMARK    3  A    between atoms: C_15  and  N_12 
ROOT
ATOM      1  C   UNL d   1      59.149  49.456  50.483  0.00  0.00     0.082 A 
ATOM      2  C   UNL d   1      59.628  49.269  49.833  0.00  0.00     0.302 A 
ATOM      3  C   UNL d   1      59.484  49.560  51.242  0.00  0.00     0.009 A 
ATOM      4  O   UNL d   1      60.449  49.186  49.937  0.00  0.00    -0.273 OA
ATOM      5  C   UNL d   1      60.305  49.473  51.327  0.00  0.00     0.025 A 
ATOM      6  C   UNL d   1      60.781  49.287  50.679  0.00  0.00     0.103 A 
ATOM      7  O   UNL d   1      59.297  49.167  49.090  0.00  0.00    -0.259 OA
ATOM      8  C   UNL d   1      60.643  49.575  52.074  0.00  0.00     0.026 A 
ATOM      9  C   UNL d   1      61.600  49.204  50.787  0.00  0.00     0.027 A 
ATOM     10  C   UNL d   1      61.452  49.492  52.174  0.00  0.00     0.094 A 
ATOM     11  C   UNL d   1      61.932  49.306  51.529  0.00  0.00     0.026 A 
ATOM     12  O   UNL d   1      61.785  49.592  52.912  0.00  0.00    -0.328 OA
ATOM     13  C   UNL d   1      62.110  49.697  53.664  0.00  0.00     0.181 C 
ENDROOT
BRANCH   1  14
ATOM     14  C   UNL d   1      58.341  49.539  50.383  0.00  0.00     0.095 A 
ATOM     15  N   UNL d   1      57.781  49.538  50.977  0.00  0.00    -0.221 NA
ATOM     16  C   UNL d   1      57.045  49.636  50.630  0.00  0.00     0.194 A 
ATOM     17  S   UNL d   1      57.149  49.697  49.813  0.00  0.00    -0.046 SA
ATOM     18  C   UNL d   1      57.956  49.636  49.660  0.00  0.00     0.058 A 
BRANCH  16  19
ATOM     19  N   UNL d   1      56.327  49.668  51.018  0.00  0.00    -0.221 NA
BRANCH  19  20
ATOM     20  C   UNL d   1      56.233  49.276  51.730  0.00  0.00     0.087 A 
ATOM     21  C   UNL d   1      56.186  48.452  51.744  0.00  0.00     0.061 A 
ATOM     22  C   UNL d   1      56.092  48.060  52.455  0.00  0.00     0.197 A 
ATOM     23  O   UNL d   1      56.045  47.240  52.465  0.00  0.00    -0.286 OA
ATOM     24  C   UNL d   1      56.044  48.490  53.162  0.00  0.00     0.042 A 
ATOM     25  C   UNL d   1      56.091  49.306  53.147  0.00  0.00     0.005 A 
ATOM     26  C   UNL d   1      56.186  49.707  52.433  0.00  0.00     0.019 A 
ENDBRANCH  19  20
ENDBRANCH  16  19
ENDBRANCH   1  14
TORSDOF 3
ENDMDL
