MODEL 1
REMARK VINA RESULT:      -9.6      0.000      0.000
REMARK  1 active torsions:
REMARK  status: ('A' for Active; 'I' for Inactive)
REMARK    1  A    between atoms: C_12  and  C_8 
ROOT
ATOM      1  N   UNL d   1      53.412  31.044  54.007  0.00  0.00    -0.123 N 
ATOM      2  N   UNL d   1      52.668  30.461  52.945  0.00  0.00    -0.180 NA
ATOM      3  C   UNL d   1      52.982  31.118  53.306  0.00  0.00     0.217 A 
ATOM      4  N   UNL d   1      53.524  30.297  54.346  0.00  0.00    -0.141 NA
ATOM      5  N   UNL d   1      53.734  31.698  54.381  0.00  0.00    -0.146 NA
ATOM      6  C   UNL d   1      52.773  29.721  53.271  0.00  0.00     0.300 A 
ATOM      7  C   UNL d   1      53.201  29.639  53.971  0.00  0.00     0.161 A 
ATOM      8  C   UNL d   1      53.623  32.452  54.043  0.00  0.00     0.110 A 
ATOM      9  S   UNL d   1      52.878  31.862  52.980  0.00  0.00    -0.045 SA
ATOM     10  C   UNL d   1      53.195  32.534  53.342  0.00  0.00     0.059 A 
ATOM     11  O   UNL d   1      52.452  29.054  52.902  0.00  0.00    -0.263 OA
ATOM     12  C   UNL d   1      53.309  28.890  54.303  0.00  0.00     0.028 C 
ENDROOT
BRANCH   8  13
ATOM     13  C   UNL d   1      53.942  33.115  54.410  0.00  0.00     0.020 A 
ATOM     14  C   UNL d   1      53.460  33.767  54.567  0.00  0.00     0.002 A 
ATOM     15  C   UNL d   1      53.780  34.435  54.937  0.00  0.00     0.000 A 
ATOM     16  C   UNL d   1      54.577  34.447  55.147  0.00  0.00     0.000 A 
ATOM     17  C   UNL d   1      55.055  33.791  54.988  0.00  0.00     0.000 A 
ATOM     18  C   UNL d   1      54.736  33.127  54.620  0.00  0.00     0.002 A 
ENDBRANCH   8  13
TORSDOF 1
ENDMDL
MODEL 2
REMARK VINA RESULT:      -9.3      2.122      4.073
REMARK  1 active torsions:
REMARK  status: ('A' for Active; 'I' for Inactive)
REMARK    1  A    between atoms: C_12  and  C_8 
ROOT
ATOM      1  N   UNL d   1      52.984  33.266  53.855  0.00  0.00    -0.123 N 
ATOM      2  N   UNL d   1      53.766  34.249  54.522  0.00  0.00    -0.180 NA
ATOM      3  C   UNL d   1      53.647  33.476  54.300  0.00  0.00     0.217 A 
ATOM      4  N   UNL d   1      52.436  33.845  53.632  0.00  0.00    -0.141 NA
ATOM      5  N   UNL d   1      52.853  32.490  53.626  0.00  0.00    -0.146 NA
ATOM      6  C   UNL d   1      53.231  34.826  54.307  0.00  0.00     0.300 A 
ATOM      7  C   UNL d   1      52.567  34.624  53.862  0.00  0.00     0.161 A 
ATOM      8  C   UNL d   1      53.403  31.904  53.849  0.00  0.00     0.110 A 
ATOM      9  S   UNL d   1      54.182  32.895  54.516  0.00  0.00    -0.045 SA
ATOM     10  C   UNL d   1      54.068  32.106  54.294  0.00  0.00     0.059 A 
ATOM     11  O   UNL d   1      53.353  35.612  54.533  0.00  0.00    -0.263 OA
ATOM     12  C   UNL d   1      52.024  35.208  53.643  0.00  0.00     0.028 C 
ENDROOT
BRANCH   8  13
ATOM     13  C   UNL d   1      53.281  31.122  53.623  0.00  0.00     0.020 A 
ATOM     14  C   UNL d   1      53.464  30.512  54.149  0.00  0.00     0.002 A 
ATOM     15  C   UNL d   1      53.341  29.726  53.924  0.00  0.00     0.000 A 
ATOM     16  C   UNL d   1      53.037  29.554  53.176  0.00  0.00     0.000 A 
ATOM     17  C   UNL d   1      52.855  30.169  52.654  0.00  0.00     0.000 A 
ATOM     18  C   UNL d   1      52.977  30.952  52.880  0.00  0.00     0.002 A 
ENDBRANCH   8  13
TORSDOF 1
ENDMDL
MODEL 3
REMARK VINA RESULT:      -9.2      2.819      3.969
REMARK  1 active torsions:
REMARK  status: ('A' for Active; 'I' for Inactive)
REMARK    1  A    between atoms: C_12  and  C_8 
ROOT
ATOM      1  N   UNL d   1      53.033  33.694  54.178  0.00  0.00    -0.123 N 
ATOM      2  N   UNL d   1      54.050  34.442  54.833  0.00  0.00    -0.180 NA
ATOM      3  C   UNL d   1      53.395  34.415  54.352  0.00  0.00     0.217 A 
ATOM      4  N   UNL d   1      53.337  32.993  54.495  0.00  0.00    -0.141 NA
ATOM      5  N   UNL d   1      52.372  33.654  53.695  0.00  0.00    -0.146 NA
ATOM      6  C   UNL d   1      54.357  33.756  55.150  0.00  0.00     0.300 A 
ATOM      7  C   UNL d   1      54.000  33.031  54.981  0.00  0.00     0.161 A 
ATOM      8  C   UNL d   1      52.063  34.359  53.373  0.00  0.00     0.110 A 
ATOM      9  S   UNL d   1      53.086  35.103  54.032  0.00  0.00    -0.045 SA
ATOM     10  C   UNL d   1      52.420  35.084  53.542  0.00  0.00     0.059 A 
ATOM     11  O   UNL d   1      55.023  33.784  55.639  0.00  0.00    -0.263 OA
ATOM     12  C   UNL d   1      54.309  32.335  55.301  0.00  0.00     0.028 C 
ENDROOT
BRANCH   8  13
ATOM     13  C   UNL d   1      51.401  34.330  52.887  0.00  0.00     0.020 A 
ATOM     14  C   UNL d   1      50.649  34.424  53.215  0.00  0.00     0.002 A 
ATOM     15  C   UNL d   1      49.981  34.394  52.727  0.00  0.00     0.000 A 
ATOM     16  C   UNL d   1      50.069  34.271  51.916  0.00  0.00     0.000 A 
ATOM     17  C   UNL d   1      50.824  34.178  51.593  0.00  0.00     0.000 A 
ATOM     18  C   UNL d   1      51.488  34.207  52.080  0.00  0.00     0.002 A 
ENDBRANCH   8  13
TORSDOF 1
ENDMDL
MODEL 4
REMARK VINA RESULT:      -8.7      1.918      2.668
REMARK  1 active torsions:
REMARK  status: ('A' for Active; 'I' for Inactive)
REMARK    1  A    between atoms: C_12  and  C_8 
ROOT
ATOM      1  N   UNL d   1      52.561  31.604  53.119  0.00  0.00    -0.123 N 
ATOM      2  N   UNL d   1      53.869  31.311  53.594  0.00  0.00    -0.180 NA
ATOM      3  C   UNL d   1      53.294  31.853  53.404  0.00  0.00     0.217 A 
ATOM      4  N   UNL d   1      52.408  30.796  53.025  0.00  0.00    -0.141 NA
ATOM      5  N   UNL d   1      51.973  32.141  52.925  0.00  0.00    -0.146 NA
ATOM      6  C   UNL d   1      53.728  30.512  53.504  0.00  0.00     0.300 A 
ATOM      7  C   UNL d   1      52.998  30.255  53.220  0.00  0.00     0.161 A 
ATOM      8  C   UNL d   1      52.124  32.956  53.019  0.00  0.00     0.110 A 
ATOM      9  S   UNL d   1      53.434  32.656  53.493  0.00  0.00    -0.045 SA
ATOM     10  C   UNL d   1      52.854  33.213  53.303  0.00  0.00     0.059 A 
ATOM     11  O   UNL d   1      54.314  29.962  53.697  0.00  0.00    -0.263 OA
ATOM     12  C   UNL d   1      52.853  29.447  53.129  0.00  0.00     0.028 C 
ENDROOT
BRANCH   8  13
ATOM     13  C   UNL d   1      51.541  33.503  52.826  0.00  0.00     0.020 A 
ATOM     14  C   UNL d   1      50.912  33.630  53.347  0.00  0.00     0.002 A 
ATOM     15  C   UNL d   1      50.325  34.180  53.155  0.00  0.00     0.000 A 
ATOM     16  C   UNL d   1      50.368  34.599  52.446  0.00  0.00     0.000 A 
ATOM     17  C   UNL d   1      51.000  34.467  51.928  0.00  0.00     0.000 A 
ATOM     18  C   UNL d   1      51.584  33.919  52.120  0.00  0.00     0.002 A 
ENDBRANCH   8  13
TORSDOF 1
ENDMDL
MODEL 5
REMARK VINA RESULT:      -8.0      2.721      3.512
REMARK  1 active torsions:
REMARK  status: ('A' for Active; 'I' for Inactive)
REMARK    1  A    between atoms: C_12  and  C_8 
ROOT
ATOM      1  N   UNL d   1      51.661  34.026  53.393  0.00  0.00    -0.123 N 
ATOM      2  N   UNL d   1      51.133  33.718  52.109  0.00  0.00    -0.180 NA
ATOM      3  C   UNL d   1      51.727  33.652  52.661  0.00  0.00     0.217 A 
ATOM      4  N   UNL d   1      50.986  34.472  53.570  0.00  0.00    -0.141 NA
ATOM      5  N   UNL d   1      52.252  33.966  53.958  0.00  0.00    -0.146 NA
ATOM      6  C   UNL d   1      50.465  34.156  52.274  0.00  0.00     0.300 A 
ATOM      7  C   UNL d   1      50.391  34.532  53.004  0.00  0.00     0.161 A 
ATOM      8  C   UNL d   1      52.933  33.517  53.783  0.00  0.00     0.110 A 
ATOM      9  S   UNL d   1      52.399  33.213  52.497  0.00  0.00    -0.045 SA
ATOM     10  C   UNL d   1      53.007  33.141  53.053  0.00  0.00     0.059 A 
ATOM     11  O   UNL d   1      49.862  34.223  51.712  0.00  0.00    -0.263 OA
ATOM     12  C   UNL d   1      49.715  34.976  53.173  0.00  0.00     0.028 C 
ENDROOT
BRANCH   8  13
ATOM     13  C   UNL d   1      53.533  33.451  54.343  0.00  0.00     0.020 A 
ATOM     14  C   UNL d   1      54.012  34.104  54.506  0.00  0.00     0.002 A 
ATOM     15  C   UNL d   1      54.616  34.039  55.069  0.00  0.00     0.000 A 
ATOM     16  C   UNL d   1      54.736  33.325  55.463  0.00  0.00     0.000 A 
ATOM     17  C   UNL d   1      54.252  32.675  55.296  0.00  0.00     0.000 A 
ATOM     18  C   UNL d   1      53.652  32.740  54.736  0.00  0.00     0.002 A 
ENDBRANCH   8  13
TORSDOF 1
ENDMDL
MODEL 6
REMARK VINA RESULT:      -7.4      2.102      3.828
REMARK  1 active torsions:
REMARK  status: ('A' for Active; 'I' for Inactive)
REMARK    1  A    between atoms: C_12  and  C_8 
ROOT
ATOM      1  N   UNL d   1      52.556  32.841  53.514  0.00  0.00    -0.123 N 
ATOM      2  N   UNL d   1      53.233  34.013  53.078  0.00  0.00    -0.180 NA
ATOM      3  C   UNL d   1      53.243  33.221  53.261  0.00  0.00     0.217 A 
ATOM      4  N   UNL d   1      51.850  33.267  53.582  0.00  0.00    -0.141 NA
ATOM      5  N   UNL d   1      52.554  32.043  53.701  0.00  0.00    -0.146 NA
ATOM      6  C   UNL d   1      52.541  34.441  53.142  0.00  0.00     0.300 A 
ATOM      7  C   UNL d   1      51.850  34.068  53.394  0.00  0.00     0.161 A 
ATOM      8  C   UNL d   1      53.264  31.610  53.634  0.00  0.00     0.110 A 
ATOM      9  S   UNL d   1      53.937  32.789  53.197  0.00  0.00    -0.045 SA
ATOM     10  C   UNL d   1      53.955  31.983  53.382  0.00  0.00     0.059 A 
ATOM     11  O   UNL d   1      52.532  35.247  52.956  0.00  0.00    -0.263 OA
ATOM     12  C   UNL d   1      51.149  34.500  53.460  0.00  0.00     0.028 C 
ENDROOT
BRANCH   8  13
ATOM     13  C   UNL d   1      53.273  30.809  53.819  0.00  0.00     0.020 A 
ATOM     14  C   UNL d   1      53.133  30.568  54.597  0.00  0.00     0.002 A 
ATOM     15  C   UNL d   1      53.141  29.763  54.786  0.00  0.00     0.000 A 
ATOM     16  C   UNL d   1      53.289  29.204  54.197  0.00  0.00     0.000 A 
ATOM     17  C   UNL d   1      53.428  29.450  53.420  0.00  0.00     0.000 A 
ATOM     18  C   UNL d   1      53.420  30.252  53.234  0.00  0.00     0.002 A 
ENDBRANCH   8  13
TORSDOF 1
ENDMDL
MODEL 7
REMARK VINA RESULT:      -6.9      5.235      6.080
REMARK  1 active torsions:
REMARK  status: ('A' for Active; 'I' for Inactive)
REMARK    1  A    between atoms: C_12  and  C_8 
ROOT
ATOM      1  N   UNL d   1      48.966  35.356  52.892  0.00  0.00    -0.123 N 
ATOM      2  N   UNL d   1      47.934  35.546  51.933  0.00  0.00    -0.180 NA
ATOM      3  C   UNL d   1      48.638  35.203  52.151  0.00  0.00     0.217 A 
ATOM      4  N   UNL d   1      48.577  35.861  53.419  0.00  0.00    -0.141 NA
ATOM      5  N   UNL d   1      49.675  35.016  53.124  0.00  0.00    -0.146 NA
ATOM      6  C   UNL d   1      47.543  36.046  52.445  0.00  0.00     0.300 A 
ATOM      7  C   UNL d   1      47.865  36.204  53.189  0.00  0.00     0.161 A 
ATOM      8  C   UNL d   1      50.070  34.506  52.595  0.00  0.00     0.110 A 
ATOM      9  S   UNL d   1      49.032  34.701  51.637  0.00  0.00    -0.045 SA
ATOM     10  C   UNL d   1      49.749  34.348  51.852  0.00  0.00     0.059 A 
ATOM     11  O   UNL d   1      46.827  36.394  52.223  0.00  0.00    -0.263 OA
ATOM     12  C   UNL d   1      47.470  36.709  53.709  0.00  0.00     0.028 C 
ENDROOT
BRANCH   8  13
ATOM     13  C   UNL d   1      50.782  34.160  52.817  0.00  0.00     0.020 A 
ATOM     14  C   UNL d   1      50.781  33.415  53.174  0.00  0.00     0.002 A 
ATOM     15  C   UNL d   1      51.496  33.065  53.398  0.00  0.00     0.000 A 
ATOM     16  C   UNL d   1      52.208  33.462  53.265  0.00  0.00     0.000 A 
ATOM     17  C   UNL d   1      52.203  34.207  52.908  0.00  0.00     0.000 A 
ATOM     18  C   UNL d   1      51.490  34.554  52.685  0.00  0.00     0.002 A 
ENDBRANCH   8  13
TORSDOF 1
ENDMDL
