MODEL 1
REMARK VINA RESULT:      42.5      0.000      0.000
REMARK  7 active torsions:
REMARK  status: ('A' for Active; 'I' for Inactive)
REMARK    1  A    between atoms: N_7  and  C_2 
REMARK    2  A    between atoms: N_9  and  C_3 
REMARK    3  A    between atoms: C_14  and  N_7 
REMARK    4  A    between atoms: C_8  and  C_12 
REMARK    5  A    between atoms: O_19  and  C_8 
REMARK    6  A    between atoms: C_17  and  N_9 
REMARK    7  A    between atoms: C_29  and  O_19 
ROOT
ATOM      1  N   UNL d   1      13.000  12.997  -3.516  0.00  0.00    -0.038 NA
ATOM      2  C   UNL d   1      13.045  13.406  -4.239  0.00  0.00     0.202 A 
ATOM      3  C   UNL d   1      13.162  12.185  -3.485  0.00  0.00     0.753 A 
ATOM      4  N   UNL d   1      13.370  11.781  -4.186  0.00  0.00    -0.038 NA
ATOM      5  C   UNL d   1      13.251  13.003  -4.928  0.00  0.00     0.154 A 
ATOM      6  C   UNL d   1      13.414  12.189  -4.900  0.00  0.00     0.202 A 
ATOM      7  N   UNL d   1      13.292  13.423  -5.639  0.00  0.00    -0.236 NA
ATOM      8  N   UNL d   1      13.619  11.794  -5.593  0.00  0.00    -0.222 NA
ATOM      9  C   UNL d   1      13.501  13.015  -6.335  0.00  0.00     0.120 A 
ATOM     10  C   UNL d   1      13.664  12.207  -6.316  0.00  0.00     0.121 A 
ENDROOT
BRANCH   3  11
ATOM     11  N   UNL d   1      13.117  11.784  -2.775  0.00  0.00    -0.059 NA
BRANCH  11  12
ATOM     12  C   UNL d   1      13.656  11.947  -2.172  0.00  0.00     0.100 A 
ATOM     13  C   UNL d   1      14.449  11.815  -2.271  0.00  0.00     0.020 A 
ATOM     14  C   UNL d   1      14.989  11.979  -1.663  0.00  0.00     0.007 A 
ATOM     15  C   UNL d   1      14.718  12.284  -0.944  0.00  0.00     0.064 A 
ATOM     16  C   UNL d   1      13.909  12.422  -0.833  0.00  0.00     0.007 A 
ATOM     17  C   UNL d   1      13.377  12.256  -1.441  0.00  0.00     0.020 A 
BRANCH  15  18
ATOM     18  C   UNL d   1      15.251  12.445  -0.346  0.00  0.00     0.300 C 
ATOM     19  O   UNL d   1      15.752  11.846  -0.065  0.00  0.00    -0.259 OA
BRANCH  18  20
ATOM     20  O   UNL d   1      15.300  13.200  -0.015  0.00  0.00    -0.271 OA
BRANCH  20  21
ATOM     21  C   UNL d   1      15.734  13.794  -0.388  0.00  0.00     0.126 C 
ATOM     22  C   UNL d   1      15.839  14.518  -0.015  0.00  0.00     0.029 C 
ENDBRANCH  20  21
ENDBRANCH  18  20
ENDBRANCH  15  18
ENDBRANCH  11  12
ENDBRANCH   3  11
BRANCH   2  23
ATOM     23  N   UNL d   1      12.883  14.218  -4.267  0.00  0.00    -0.225 NA
BRANCH  23  24
ATOM     24  C   UNL d   1      13.413  14.757  -3.940  0.00  0.00     0.083 A 
ATOM     25  C   UNL d   1      13.506  14.799  -3.115  0.00  0.00     0.020 A 
ATOM     26  C   UNL d   1      14.037  15.339  -2.793  0.00  0.00     0.013 A 
ATOM     27  C   UNL d   1      14.478  15.838  -3.280  0.00  0.00     0.058 A 
ATOM     28  C   UNL d   1      14.385  15.797  -4.105  0.00  0.00     0.013 A 
ATOM     29 CL   UNL d   1      15.012  16.381  -2.967  0.00  0.00    -0.082 Cl
ATOM     30  C   UNL d   1      13.853  15.255  -4.430  0.00  0.00     0.020 A 
ENDBRANCH  23  24
ENDBRANCH   2  23
TORSDOF 7
ENDMDL
