MODEL 1
REMARK VINA RESULT:      14.5      0.000      0.000
REMARK  3 active torsions:
REMARK  status: ('A' for Active; 'I' for Inactive)
REMARK    1  A    between atoms: C_11  and  N_1 
REMARK    2  A    between atoms: C_3  and  C_6 
REMARK    3  A    between atoms: C_6  and  N_5 
ROOT
ATOM      1  N   UNL d   1      45.518 -15.014  44.633  0.00  0.00    -0.301 N 
ATOM      2  N   UNL d   1      45.927 -16.622  44.736  0.00  0.00    -0.300 N 
ATOM      3  C   UNL d   1      46.298 -15.266  44.450  0.00  0.00     0.100 A 
ATOM      4  C   UNL d   1      44.958 -15.575  44.865  0.00  0.00     0.100 A 
ATOM      5  C   UNL d   1      45.147 -16.370  44.919  0.00  0.00     0.100 A 
ATOM      6  C   UNL d   1      46.500 -16.073  44.503  0.00  0.00     0.100 A 
ENDROOT
BRANCH   2   7
ATOM      7  C   UNL d   1      46.129 -17.429  44.788  0.00  0.00     0.080 C 
BRANCH   7   8
ATOM      8  C   UNL d   1      46.247 -17.871  44.102  0.00  0.00     0.019 A 
ATOM      9  C   UNL d   1      46.376 -18.699  44.156  0.00  0.00     0.022 A 
ATOM     10  C   UNL d   1      46.493 -19.141  43.470  0.00  0.00     0.120 A 
ATOM     11  C   UNL d   1      46.383 -19.059  44.892  0.00  0.00     0.003 A 
ATOM     12  N   UNL d   1      46.620 -19.950  43.511  0.00  0.00    -0.241 NA
ATOM     13  C   UNL d   1      46.484 -18.762  42.722  0.00  0.00     0.213 A 
ATOM     14  C   UNL d   1      46.629 -20.330  44.260  0.00  0.00     0.099 A 
ATOM     15  C   UNL d   1      46.512 -19.888  44.946  0.00  0.00     0.021 A 
ATOM     16  C   UNL d   1      46.356 -17.940  42.672  0.00  0.00     0.044 A 
ATOM     17  O   UNL d   1      46.602 -19.204  42.036  0.00  0.00    -0.285 OA
ATOM     18  C   UNL d   1      46.238 -17.498  43.357  0.00  0.00     0.005 A 
ENDBRANCH   7   8
ENDBRANCH   2   7
BRANCH   1  19
ATOM     19  C   UNL d   1      45.531 -14.187  44.518  0.00  0.00     0.064 A 
ATOM     20  C   UNL d   1      45.940 -13.586  44.887  0.00  0.00     0.018 A 
ATOM     21  C   UNL d   1      45.817 -12.786  44.622  0.00  0.00     0.002 A 
ATOM     22  C   UNL d   1      45.311 -12.622  44.024  0.00  0.00     0.000 A 
ATOM     23  C   UNL d   1      44.898 -13.243  43.654  0.00  0.00     0.002 A 
ATOM     24  C   UNL d   1      45.009 -14.019  43.902  0.00  0.00     0.018 A 
ENDBRANCH   1  19
TORSDOF 3
ENDMDL
