MODEL 1
REMARK VINA RESULT:       1.9      0.000      0.000
REMARK  6 active torsions:
REMARK  status: ('A' for Active; 'I' for Inactive)
REMARK    1  A    between atoms: C_10  and  C_2 
REMARK    2  A    between atoms: C_11  and  C_4 
REMARK    3  A    between atoms: N_12  and  C_10 
REMARK    4  A    between atoms: O_17  and  C_11 
REMARK    5  A    between atoms: C_14  and  N_12 
REMARK    6  A    between atoms: C_23  and  O_17 
ROOT
ATOM      1  C   UNL d   1      58.762  -0.720  30.473  0.00  0.00     0.035 A 
ATOM      2  C   UNL d   1      58.022  -1.089  30.609  0.00  0.00     0.060 A 
ATOM      3  C   UNL d   1      59.279  -1.012  29.901  0.00  0.00     0.100 A 
ATOM      4  C   UNL d   1      59.130  -0.053  30.823  0.00  0.00     0.088 A 
ATOM      5  O   UNL d   1      59.953  -0.549  29.887  0.00  0.00    -0.307 OA
ATOM      6  C   UNL d   1      59.865   0.043  30.454  0.00  0.00     0.105 A 
ATOM      7  C   UNL d   1      57.815  -1.742  30.170  0.00  0.00     0.197 A 
ATOM      8  C   UNL d   1      59.054  -1.677  29.463  0.00  0.00     0.026 A 
ATOM      9  C   UNL d   1      58.314  -2.046  29.599  0.00  0.00     0.041 A 
ATOM     10  O   UNL d   1      57.072  -2.113  30.307  0.00  0.00    -0.286 OA
ATOM     11  C   UNL d   1      60.421   0.647  30.634  0.00  0.00     0.027 C 
ATOM     12  C   UNL d   1      59.570  -1.967  28.893  0.00  0.00     0.002 A 
ATOM     13  C   UNL d   1      58.106  -2.698  29.163  0.00  0.00     0.003 A 
ATOM     14  C   UNL d   1      59.344  -2.631  28.458  0.00  0.00     0.000 A 
ATOM     15  C   UNL d   1      58.605  -3.000  28.594  0.00  0.00     0.000 A 
ENDROOT
BRANCH   2  16
ATOM     16  C   UNL d   1      57.501  -0.784  31.195  0.00  0.00     0.104 C 
BRANCH  16  17
ATOM     17  N   UNL d   1      56.876  -1.256  31.484  0.00  0.00    -0.225 NA
BRANCH  17  18
ATOM     18  C   UNL d   1      56.403  -0.985  32.106  0.00  0.00     0.163 A 
ATOM     19  N   UNL d   1      56.058  -0.240  32.055  0.00  0.00    -0.225 NA
ATOM     20  C   UNL d   1      55.590   0.024  32.674  0.00  0.00     0.101 A 
ATOM     21  C   UNL d   1      55.466  -0.446  33.334  0.00  0.00     0.021 A 
ATOM     22  C   UNL d   1      55.809  -1.191  33.390  0.00  0.00     0.005 A 
ATOM     23  C   UNL d   1      56.279  -1.456  32.767  0.00  0.00     0.039 A 
ENDBRANCH  17  18
ENDBRANCH  16  17
ENDBRANCH   2  16
BRANCH   4  24
ATOM     24  C   UNL d   1      58.820   0.429  31.432  0.00  0.00     0.302 C 
ATOM     25  O   UNL d   1      58.042   0.680  31.426  0.00  0.00    -0.259 OA
BRANCH  24  26
ATOM     26  O   UNL d   1      59.321   0.653  32.052  0.00  0.00    -0.271 OA
BRANCH  26  27
ATOM     27  C   UNL d   1      59.025   0.680  32.813  0.00  0.00     0.126 C 
ATOM     28  C   UNL d   1      59.546   0.506  33.447  0.00  0.00     0.029 C 
ENDBRANCH  26  27
ENDBRANCH  24  26
ENDBRANCH   4  24
TORSDOF 6
ENDMDL
MODEL 2
REMARK VINA RESULT:       2.7      8.379      9.761
REMARK  6 active torsions:
REMARK  status: ('A' for Active; 'I' for Inactive)
REMARK    1  A    between atoms: C_10  and  C_2 
REMARK    2  A    between atoms: C_11  and  C_4 
REMARK    3  A    between atoms: N_12  and  C_10 
REMARK    4  A    between atoms: O_17  and  C_11 
REMARK    5  A    between atoms: C_14  and  N_12 
REMARK    6  A    between atoms: C_23  and  O_17 
ROOT
ATOM      1  C   UNL d   1      58.588  -9.644  32.005  0.00  0.00     0.035 A 
ATOM      2  C   UNL d   1      59.414  -9.695  31.874  0.00  0.00     0.060 A 
ATOM      3  C   UNL d   1      58.287  -9.568  32.770  0.00  0.00     0.100 A 
ATOM      4  C   UNL d   1      57.934  -9.654  31.481  0.00  0.00     0.088 A 
ATOM      5  O   UNL d   1      57.471  -9.531  32.735  0.00  0.00    -0.307 OA
ATOM      6  C   UNL d   1      57.250  -9.583  31.943  0.00  0.00     0.105 A 
ATOM      7  C   UNL d   1      59.922  -9.669  32.509  0.00  0.00     0.197 A 
ATOM      8  C   UNL d   1      58.817  -9.544  33.405  0.00  0.00     0.026 A 
ATOM      9  C   UNL d   1      59.643  -9.595  33.274  0.00  0.00     0.041 A 
ATOM     10  O   UNL d   1      60.752  -9.721  32.377  0.00  0.00    -0.286 OA
ATOM     11  C   UNL d   1      56.464  -9.569  31.643  0.00  0.00     0.027 C 
ATOM     12  C   UNL d   1      58.516  -9.468  34.166  0.00  0.00     0.002 A 
ATOM     13  C   UNL d   1      60.150  -9.569  33.906  0.00  0.00     0.003 A 
ATOM     14  C   UNL d   1      59.046  -9.443  34.799  0.00  0.00     0.000 A 
ATOM     15  C   UNL d   1      59.872  -9.495  34.667  0.00  0.00     0.000 A 
ENDROOT
BRANCH   2  16
ATOM     16  C   UNL d   1      59.711  -9.772  31.091  0.00  0.00     0.104 C 
BRANCH  16  17
ATOM     17  N   UNL d   1      60.505  -9.573  30.924  0.00  0.00    -0.225 NA
BRANCH  17  18
ATOM     18  C   UNL d   1      60.716  -9.293  30.175  0.00  0.00     0.163 A 
ATOM     19  N   UNL d   1      60.862  -8.490  30.074  0.00  0.00    -0.225 NA
ATOM     20  C   UNL d   1      61.071  -8.215  29.330  0.00  0.00     0.101 A 
ATOM     21  C   UNL d   1      61.133  -8.733  28.697  0.00  0.00     0.021 A 
ATOM     22  C   UNL d   1      60.988  -9.536  28.793  0.00  0.00     0.005 A 
ATOM     23  C   UNL d   1      60.778  -9.810  29.542  0.00  0.00     0.039 A 
ENDBRANCH  17  18
ENDBRANCH  16  17
ENDBRANCH   2  16
BRANCH   4  24
ATOM     24  C   UNL d   1      57.959  -9.722  30.649  0.00  0.00     0.302 C 
ATOM     25  O   UNL d   1      58.667  -9.796  30.246  0.00  0.00    -0.259 OA
BRANCH  24  26
ATOM     26  O   UNL d   1      57.246  -9.712  30.230  0.00  0.00    -0.271 OA
BRANCH  26  27
ATOM     27  C   UNL d   1      57.257  -9.561  29.427  0.00  0.00     0.126 C 
ATOM     28  C   UNL d   1      56.586  -9.781  28.973  0.00  0.00     0.029 C 
ENDBRANCH  26  27
ENDBRANCH  24  26
ENDBRANCH   4  24
TORSDOF 6
ENDMDL
