MODEL 1
REMARK VINA RESULT:       9.3      0.000      0.000
REMARK  5 active torsions:
REMARK  status: ('A' for Active; 'I' for Inactive)
REMARK    1  A    between atoms: N_2  and  C_1 
REMARK    2  A    between atoms: C_10  and  C_5 
REMARK       I    between atoms: N_6  and  C_7 
REMARK    3  A    between atoms: C_8  and  N_6 
REMARK    4  A    between atoms: C_7  and  C_11 
REMARK    5  A    between atoms: C_11  and  C_10 
ROOT
ATOM      1  N   UNL d   1      46.395 -17.140  43.881  0.00  0.00    -0.208 NA
ATOM      2  C   UNL d   1      45.945 -16.871  44.518  0.00  0.00     0.279 C 
ATOM      3  O   UNL d   1      45.499 -17.392  44.955  0.00  0.00    -0.265 OA
ENDROOT
BRANCH   2   4
ATOM      4  C   UNL d   1      45.950 -16.069  44.710  0.00  0.00     0.063 C 
BRANCH   4   5
ATOM      5  C   UNL d   1      45.254 -15.681  44.884  0.00  0.00     0.011 C 
BRANCH   5   6
ATOM      6  C   UNL d   1      45.199 -14.847  44.802  0.00  0.00     0.031 A 
ATOM      7  S   UNL d   1      45.756 -14.281  44.587  0.00  0.00    -0.064 SA
ATOM      8  C   UNL d   1      45.377 -13.560  44.606  0.00  0.00     0.156 A 
ATOM      9  C   UNL d   1      44.606 -13.658  44.824  0.00  0.00     0.031 A 
ATOM     10  C   UNL d   1      44.494 -14.469  44.948  0.00  0.00     0.009 A 
BRANCH   8  11
ATOM     11  N   UNL d   1      45.743 -12.845  44.424  0.00  0.00    -0.107 N 
ATOM     12  O   UNL d   1      46.309 -12.514  44.926  0.00  0.00    -0.531 OA
ATOM     13  O   UNL d   1      45.538 -12.460  43.731  0.00  0.00    -0.531 OA
ENDBRANCH   8  11
ENDBRANCH   5   6
ENDBRANCH   4   5
ENDBRANCH   2   4
BRANCH   1  14
ATOM     14  C   UNL d   1      46.391 -17.943  43.690  0.00  0.00     0.085 A 
ATOM     15  C   UNL d   1      46.394 -18.176  42.896  0.00  0.00     0.018 A 
ATOM     16  C   UNL d   1      46.389 -18.961  42.708  0.00  0.00     0.002 A 
ATOM     17  C   UNL d   1      46.403 -17.592  42.297  0.00  0.00     0.002 C 
ATOM     18  C   UNL d   1      46.381 -19.530  43.310  0.00  0.00     0.000 A 
ATOM     19  C   UNL d   1      46.378 -19.296  44.112  0.00  0.00     0.002 A 
ATOM     20  C   UNL d   1      46.377 -20.328  43.101  0.00  0.00     0.000 C 
ATOM     21  C   UNL d   1      46.382 -18.506  44.279  0.00  0.00     0.019 A 
ENDBRANCH   1  14
TORSDOF 5
ENDMDL
