MODEL 1
REMARK VINA RESULT:      -5.9      0.000      0.000
REMARK  5 active torsions:
REMARK  status: ('A' for Active; 'I' for Inactive)
REMARK    1  A    between atoms: C_9  and  C_1 
REMARK    2  A    between atoms: C_6  and  C_4 
REMARK    3  A    between atoms: C_5  and  C_6 
REMARK    4  A    between atoms: C_8  and  C_5 
REMARK    5  A    between atoms: C_11  and  C_8 
ROOT
ATOM      1  C   UNL d   1     -41.530-122.945 -53.515  0.00  0.00     0.100 A 
ATOM      2  O   UNL d   1     -41.506-122.472 -52.810  0.00  0.00    -0.307 OA
ATOM      3  C   UNL d   1     -41.312-123.669 -53.337  0.00  0.00     0.027 A 
ATOM      4  C   UNL d   1     -41.254-122.991 -52.205  0.00  0.00     0.100 A 
ATOM      5  C   UNL d   1     -41.139-123.720 -52.543  0.00  0.00     0.027 A 
ENDROOT
BRANCH   4   6
ATOM      6  C   UNL d   1     -41.123-122.868 -51.400  0.00  0.00     0.028 C 
BRANCH   6   7
ATOM      7  C   UNL d   1     -41.696-123.062 -50.864  0.00  0.00     0.044 C 
BRANCH   7   8
ATOM      8  C   UNL d   1     -41.649-122.779 -50.091  0.00  0.00     0.196 C 
ATOM      9  O   UNL d   1     -41.130-122.138 -49.926  0.00  0.00    -0.287 OA
BRANCH   8  10
ATOM     10  C   UNL d   1     -42.100-123.120 -49.504  0.00  0.00     0.039 A 
ATOM     11  C   UNL d   1     -42.926-123.195 -49.583  0.00  0.00     0.003 A 
ATOM     12  C   UNL d   1     -43.380-123.539 -48.992  0.00  0.00     0.000 A 
ATOM     13  C   UNL d   1     -43.008-123.817 -48.303  0.00  0.00     0.000 A 
ATOM     14  C   UNL d   1     -42.187-123.744 -48.223  0.00  0.00     0.000 A 
ATOM     15  C   UNL d   1     -41.750-123.401 -48.816  0.00  0.00     0.003 A 
ENDBRANCH   8  10
ENDBRANCH   7   8
ENDBRANCH   6   7
ENDBRANCH   4   6
BRANCH   1  16
ATOM     16  C   UNL d   1     -41.769-122.536 -54.194  0.00  0.00     0.023 A 
ATOM     17  C   UNL d   1     -41.263-122.505 -54.860  0.00  0.00     0.002 A 
ATOM     18  C   UNL d   1     -41.508-122.094 -55.538  0.00  0.00     0.000 A 
ATOM     19  C   UNL d   1     -42.228-121.727 -55.555  0.00  0.00     0.000 A 
ATOM     20  C   UNL d   1     -42.740-121.755 -54.888  0.00  0.00     0.000 A 
ATOM     21  C   UNL d   1     -42.495-122.167 -54.210  0.00  0.00     0.002 A 
ENDBRANCH   1  16
TORSDOF 5
ENDMDL
MODEL 2
REMARK VINA RESULT:      -5.1      0.879      1.412
REMARK  5 active torsions:
REMARK  status: ('A' for Active; 'I' for Inactive)
REMARK    1  A    between atoms: C_9  and  C_1 
REMARK    2  A    between atoms: C_6  and  C_4 
REMARK    3  A    between atoms: C_5  and  C_6 
REMARK    4  A    between atoms: C_8  and  C_5 
REMARK    5  A    between atoms: C_11  and  C_8 
ROOT
ATOM      1  C   UNL d   1     -41.436-122.275 -52.874  0.00  0.00     0.100 A 
ATOM      2  O   UNL d   1     -41.676-122.975 -52.455  0.00  0.00    -0.307 OA
ATOM      3  C   UNL d   1     -41.123-121.778 -52.366  0.00  0.00     0.027 A 
ATOM      4  C   UNL d   1     -41.472-122.835 -51.657  0.00  0.00     0.100 A 
ATOM      5  C   UNL d   1     -41.134-122.099 -51.618  0.00  0.00     0.027 A 
ENDROOT
BRANCH   4   6
ATOM      6  C   UNL d   1     -41.560-123.300 -50.982  0.00  0.00     0.028 C 
BRANCH   6   7
ATOM      7  C   UNL d   1     -41.758-122.954 -50.278  0.00  0.00     0.044 C 
BRANCH   7   8
ATOM      8  C   UNL d   1     -42.228-123.363 -49.737  0.00  0.00     0.196 C 
ATOM      9  O   UNL d   1     -42.875-123.817 -50.024  0.00  0.00    -0.287 OA
BRANCH   8  10
ATOM     10  C   UNL d   1     -42.061-123.322 -48.940  0.00  0.00     0.039 A 
ATOM     11  C   UNL d   1     -41.345-123.618 -48.633  0.00  0.00     0.003 A 
ATOM     12  C   UNL d   1     -41.178-123.575 -47.830  0.00  0.00     0.000 A 
ATOM     13  C   UNL d   1     -41.732-123.231 -47.316  0.00  0.00     0.000 A 
ATOM     14  C   UNL d   1     -42.444-122.936 -47.620  0.00  0.00     0.000 A 
ATOM     15  C   UNL d   1     -42.597-122.985 -48.417  0.00  0.00     0.003 A 
ENDBRANCH   8  10
ENDBRANCH   7   8
ENDBRANCH   6   7
ENDBRANCH   4   6
BRANCH   1  16
ATOM     16  C   UNL d   1     -41.588-122.293 -53.686  0.00  0.00     0.023 A 
ATOM     17  C   UNL d   1     -42.140-121.756 -54.017  0.00  0.00     0.002 A 
ATOM     18  C   UNL d   1     -42.289-121.778 -54.833  0.00  0.00     0.000 A 
ATOM     19  C   UNL d   1     -41.906-122.312 -55.304  0.00  0.00     0.000 A 
ATOM     20  C   UNL d   1     -41.351-122.854 -54.976  0.00  0.00     0.000 A 
ATOM     21  C   UNL d   1     -41.202-122.831 -54.160  0.00  0.00     0.002 A 
ENDBRANCH   1  16
TORSDOF 5
ENDMDL
MODEL 3
REMARK VINA RESULT:      -4.8      0.846      5.219
REMARK  5 active torsions:
REMARK  status: ('A' for Active; 'I' for Inactive)
REMARK    1  A    between atoms: C_9  and  C_1 
REMARK    2  A    between atoms: C_6  and  C_4 
REMARK    3  A    between atoms: C_5  and  C_6 
REMARK    4  A    between atoms: C_8  and  C_5 
REMARK    5  A    between atoms: C_11  and  C_8 
ROOT
ATOM      1  C   UNL d   1     -41.729-123.257 -49.439  0.00  0.00     0.100 A 
ATOM      2  O   UNL d   1     -41.438-122.564 -49.836  0.00  0.00    -0.307 OA
ATOM      3  C   UNL d   1     -41.840-123.817 -49.967  0.00  0.00     0.027 A 
ATOM      4  C   UNL d   1     -41.392-122.775 -50.643  0.00  0.00     0.100 A 
ATOM      5  C   UNL d   1     -41.641-123.545 -50.708  0.00  0.00     0.027 A 
ENDROOT
BRANCH   4   6
ATOM      6  C   UNL d   1     -41.152-122.348 -51.306  0.00  0.00     0.028 C 
BRANCH   6   7
ATOM      7  C   UNL d   1     -41.432-122.548 -52.038  0.00  0.00     0.044 C 
BRANCH   7   8
ATOM      8  C   UNL d   1     -41.352-122.021 -52.667  0.00  0.00     0.196 C 
ATOM      9  O   UNL d   1     -41.130-121.226 -52.504  0.00  0.00    -0.287 OA
BRANCH   8  10
ATOM     10  C   UNL d   1     -41.488-122.274 -53.430  0.00  0.00     0.039 A 
ATOM     11  C   UNL d   1     -41.202-123.009 -53.699  0.00  0.00     0.003 A 
ATOM     12  C   UNL d   1     -41.340-123.263 -54.467  0.00  0.00     0.000 A 
ATOM     13  C   UNL d   1     -41.773-122.778 -54.985  0.00  0.00     0.000 A 
ATOM     14  C   UNL d   1     -42.058-122.048 -54.719  0.00  0.00     0.000 A 
ATOM     15  C   UNL d   1     -41.914-121.808 -53.956  0.00  0.00     0.003 A 
ENDBRANCH   8  10
ENDBRANCH   7   8
ENDBRANCH   6   7
ENDBRANCH   4   6
BRANCH   1  16
ATOM     16  C   UNL d   1     -41.819-123.172 -48.622  0.00  0.00     0.023 A 
ATOM     17  C   UNL d   1     -42.583-123.056 -48.298  0.00  0.00     0.002 A 
ATOM     18  C   UNL d   1     -42.667-122.970 -47.477  0.00  0.00     0.000 A 
ATOM     19  C   UNL d   1     -42.019-122.999 -46.995  0.00  0.00     0.000 A 
ATOM     20  C   UNL d   1     -41.250-123.115 -47.315  0.00  0.00     0.000 A 
ATOM     21  C   UNL d   1     -41.165-123.200 -48.137  0.00  0.00     0.002 A 
ENDBRANCH   1  16
TORSDOF 5
ENDMDL
