MODEL 1
REMARK VINA RESULT:      36.7      0.000      0.000
REMARK  7 active torsions:
REMARK  status: ('A' for Active; 'I' for Inactive)
REMARK    1  A    between atoms: C_2  and  N_1 
REMARK    2  A    between atoms: C_4  and  O_6 
REMARK    3  A    between atoms: C_11  and  C_4 
REMARK    4  A    between atoms: O_6  and  C_12 
REMARK    5  A    between atoms: O_10  and  C_11 
REMARK    6  A    between atoms: C_13  and  O_10 
REMARK    7  A    between atoms: C_21  and  C_16 
ROOT
ATOM      1  C   UNL d   1      15.159  16.038  -0.620  0.00  0.00     0.325 C 
ATOM      2  O   UNL d   1      15.832  16.500  -0.464  0.00  0.00    -0.256 OA
ENDROOT
BRANCH   1   3
ATOM      3  O   UNL d   1      14.813  15.588  -0.020  0.00  0.00    -0.272 OA
BRANCH   3   4
ATOM      4  C   UNL d   1      14.847  14.765  -0.051  0.00  0.00     0.103 A 
ATOM      5  C   UNL d   1      15.573  14.384  -0.118  0.00  0.00     0.026 A 
ATOM      6  C   UNL d   1      15.590  13.542  -0.148  0.00  0.00     0.026 A 
ATOM      7  C   UNL d   1      14.899  13.099  -0.113  0.00  0.00     0.127 A 
ATOM      8  C   UNL d   1      14.151  13.496  -0.044  0.00  0.00     0.026 A 
ATOM      9  C   UNL d   1      14.150  14.333  -0.014  0.00  0.00     0.026 A 
BRANCH   7  10
ATOM     10  N   UNL d   1      14.933  12.276  -0.144  0.00  0.00    -0.114 N 
ATOM     11  O   UNL d   1      15.628  11.835  -0.039  0.00  0.00    -0.532 OA
ATOM     12  O   UNL d   1      14.293  11.789  -0.282  0.00  0.00    -0.532 OA
ENDBRANCH   7  10
ENDBRANCH   3   4
ENDBRANCH   1   3
BRANCH   1  13
ATOM     13  C   UNL d   1      14.835  16.030  -1.379  0.00  0.00     0.191 C 
BRANCH  13  14
ATOM     14  O   UNL d   1      14.923  16.687  -1.872  0.00  0.00    -0.300 OA
BRANCH  14  15
ATOM     15  C   UNL d   1      14.926  16.587  -2.719  0.00  0.00     0.100 A 
ATOM     16  C   UNL d   1      14.509  15.968  -3.064  0.00  0.00     0.025 A 
ATOM     17  C   UNL d   1      14.512  15.871  -3.883  0.00  0.00     0.002 A 
ATOM     18  C   UNL d   1      14.934  16.392  -4.358  0.00  0.00     0.000 A 
ATOM     19  C   UNL d   1      15.355  17.015  -4.015  0.00  0.00     0.002 A 
ATOM     20  C   UNL d   1      15.351  17.112  -3.196  0.00  0.00     0.025 A 
BRANCH  18  21
ATOM     21  C   UNL d   1      14.938  16.292  -5.200  0.00  0.00     0.000 C 
ATOM     22  C   UNL d   1      14.284  16.527  -5.647  0.00  0.00     0.000 C 
ENDBRANCH  18  21
ENDBRANCH  14  15
ENDBRANCH  13  14
ENDBRANCH   1  13
TORSDOF 7
ENDMDL
