MODEL 1
REMARK VINA RESULT:      -8.8      0.000      0.000
REMARK  3 active torsions:
REMARK  status: ('A' for Active; 'I' for Inactive)
REMARK    1  A    between atoms: N_7  and  C_1 
REMARK    2  A    between atoms: C_11  and  N_3 
REMARK       I    between atoms: C_9  and  N_7 
REMARK    3  A    between atoms: C_12  and  C_9 
ROOT
ATOM      1  C   UNL d   1     -49.581  13.532  23.191  0.00  0.00     0.165 A 
ATOM      2  C   UNL d   1     -49.701  12.775  23.323  0.00  0.00     0.067 A 
ATOM      3  N   UNL d   1     -50.268  13.894  23.240  0.00  0.00    -0.238 N 
ATOM      4  C   UNL d   1     -50.468  12.668  23.455  0.00  0.00     0.116 A 
ATOM      5  N   UNL d   1     -50.814  13.361  23.403  0.00  0.00    -0.168 NA
ATOM      6  S   UNL d   1     -49.891  11.550  23.537  0.00  0.00     0.213 S 
ATOM      7  C   UNL d   1     -50.581  11.913  23.586  0.00  0.00     0.120 A 
ATOM      8  C   UNL d   1     -49.348  12.084  23.374  0.00  0.00     0.103 A 
ATOM      9  O   UNL d   1     -50.487  11.080  23.698  0.00  0.00    -0.217 OA
ATOM     10  O   UNL d   1     -49.275  11.284  23.484  0.00  0.00    -0.217 OA
ENDROOT
BRANCH   1  11
ATOM     11  N   UNL d   1     -48.885  13.452  23.097  0.00  0.00    -0.189 NA
ATOM     12  C   UNL d   1     -48.166  13.921  22.572  0.00  0.00     0.281 C 
ATOM     13  O   UNL d   1     -48.322  14.527  22.135  0.00  0.00    -0.265 OA
BRANCH  12  14
ATOM     14  C   UNL d   1     -47.393  13.645  22.614  0.00  0.00     0.058 A 
ATOM     15  C   UNL d   1     -47.033  13.303  21.931  0.00  0.00     0.005 A 
ATOM     16  C   UNL d   1     -47.453  13.244  21.222  0.00  0.00     0.000 C 
ATOM     17  C   UNL d   1     -46.248  13.024  21.977  0.00  0.00     0.000 A 
ATOM     18  C   UNL d   1     -45.826  13.086  22.699  0.00  0.00     0.000 A 
ATOM     19  C   UNL d   1     -46.191  13.424  23.362  0.00  0.00     0.000 A 
ATOM     20  C   UNL d   1     -46.976  13.704  23.321  0.00  0.00     0.005 A 
ENDBRANCH  12  14
ENDBRANCH   1  11
BRANCH   3  21
ATOM     21  C   UNL d   1     -50.399  14.710  23.136  0.00  0.00     0.088 C 
ATOM     22  C   UNL d   1     -50.262  15.317  23.692  0.00  0.00     0.025 C 
ATOM     23  C   UNL d   1     -50.698  14.890  22.384  0.00  0.00     0.025 C 
ATOM     24  C   UNL d   1     -50.490  15.530  23.141  0.00  0.00     0.025 C 
ENDBRANCH   3  21
TORSDOF 3
ENDMDL
MODEL 2
REMARK VINA RESULT:      -8.3      1.831      4.164
REMARK  3 active torsions:
REMARK  status: ('A' for Active; 'I' for Inactive)
REMARK    1  A    between atoms: N_7  and  C_1 
REMARK    2  A    between atoms: C_11  and  N_3 
REMARK       I    between atoms: C_9  and  N_7 
REMARK    3  A    between atoms: C_12  and  C_9 
ROOT
ATOM      1  C   UNL d   1     -47.256  12.819  23.072  0.00  0.00     0.165 A 
ATOM      2  C   UNL d   1     -47.246  13.582  22.921  0.00  0.00     0.067 A 
ATOM      3  N   UNL d   1     -46.518  12.579  23.135  0.00  0.00    -0.238 N 
ATOM      4  C   UNL d   1     -46.497  13.816  22.891  0.00  0.00     0.116 A 
ATOM      5  N   UNL d   1     -46.051  13.195  23.024  0.00  0.00    -0.168 NA
ATOM      6  S   UNL d   1     -47.235  14.816  22.677  0.00  0.00     0.213 S 
ATOM      7  C   UNL d   1     -46.494  14.577  22.741  0.00  0.00     0.120 A 
ATOM      8  C   UNL d   1     -47.699  14.200  22.789  0.00  0.00     0.103 A 
ATOM      9  O   UNL d   1     -46.710  15.377  22.578  0.00  0.00    -0.217 OA
ATOM     10  O   UNL d   1     -47.889  14.973  22.632  0.00  0.00    -0.217 OA
ENDROOT
BRANCH   1  11
ATOM     11  N   UNL d   1     -47.961  12.779  23.064  0.00  0.00    -0.189 NA
ATOM     12  C   UNL d   1     -48.646  12.106  22.764  0.00  0.00     0.281 C 
ATOM     13  O   UNL d   1     -48.441  11.439  22.453  0.00  0.00    -0.265 OA
BRANCH  12  14
ATOM     14  C   UNL d   1     -49.445  12.277  22.854  0.00  0.00     0.058 A 
ATOM     15  C   UNL d   1     -49.944  12.312  22.175  0.00  0.00     0.005 A 
ATOM     16  C   UNL d   1     -49.636  12.176  21.421  0.00  0.00     0.000 C 
ATOM     17  C   UNL d   1     -50.755  12.486  22.270  0.00  0.00     0.000 A 
ATOM     18  C   UNL d   1     -51.064  12.624  23.038  0.00  0.00     0.000 A 
ATOM     19  C   UNL d   1     -50.562  12.587  23.696  0.00  0.00     0.000 A 
ATOM     20  C   UNL d   1     -49.751  12.413  23.606  0.00  0.00     0.005 A 
ENDBRANCH  12  14
ENDBRANCH   1  11
BRANCH   3  21
ATOM     21  C   UNL d   1     -46.268  11.801  23.295  0.00  0.00     0.088 C 
ATOM     22  C   UNL d   1     -46.695  11.207  23.697  0.00  0.00     0.025 C 
ATOM     23  C   UNL d   1     -45.508  11.646  23.003  0.00  0.00     0.025 C 
ATOM     24  C   UNL d   1     -46.123  11.016  23.503  0.00  0.00     0.025 C 
ENDBRANCH   3  21
TORSDOF 3
ENDMDL
MODEL 3
REMARK VINA RESULT:      -8.0      1.382      2.483
REMARK  3 active torsions:
REMARK  status: ('A' for Active; 'I' for Inactive)
REMARK    1  A    between atoms: N_7  and  C_1 
REMARK    2  A    between atoms: C_11  and  N_3 
REMARK       I    between atoms: C_9  and  N_7 
REMARK    3  A    between atoms: C_12  and  C_9 
ROOT
ATOM      1  C   UNL d   1     -49.652  13.573  23.198  0.00  0.00     0.165 A 
ATOM      2  C   UNL d   1     -49.855  14.314  23.319  0.00  0.00     0.067 A 
ATOM      3  N   UNL d   1     -50.300  13.142  23.218  0.00  0.00    -0.238 N 
ATOM      4  C   UNL d   1     -50.635  14.342  23.414  0.00  0.00     0.116 A 
ATOM      5  N   UNL d   1     -50.905  13.618  23.351  0.00  0.00    -0.168 NA
ATOM      6  S   UNL d   1     -50.179  15.514  23.514  0.00  0.00     0.213 S 
ATOM      7  C   UNL d   1     -50.830  15.082  23.534  0.00  0.00     0.120 A 
ATOM      8  C   UNL d   1     -49.578  15.038  23.381  0.00  0.00     0.103 A 
ATOM      9  O   UNL d   1     -50.826  15.920  23.643  0.00  0.00    -0.217 OA
ATOM     10  O   UNL d   1     -49.591  15.841  23.488  0.00  0.00    -0.217 OA
ENDROOT
BRANCH   1  11
ATOM     11  N   UNL d   1     -48.965  13.723  23.137  0.00  0.00    -0.189 NA
ATOM     12  C   UNL d   1     -48.161  13.281  22.723  0.00  0.00     0.281 C 
ATOM     13  O   UNL d   1     -48.215  12.610  22.362  0.00  0.00    -0.265 OA
BRANCH  12  14
ATOM     14  C   UNL d   1     -47.428  13.651  22.774  0.00  0.00     0.058 A 
ATOM     15  C   UNL d   1     -46.805  13.284  23.210  0.00  0.00     0.005 A 
ATOM     16  C   UNL d   1     -46.926  12.558  23.584  0.00  0.00     0.000 C 
ATOM     17  C   UNL d   1     -46.062  13.662  23.260  0.00  0.00     0.000 A 
ATOM     18  C   UNL d   1     -45.944  14.399  22.878  0.00  0.00     0.000 A 
ATOM     19  C   UNL d   1     -46.565  14.748  22.454  0.00  0.00     0.000 A 
ATOM     20  C   UNL d   1     -47.308  14.375  22.401  0.00  0.00     0.005 A 
ENDBRANCH  12  14
ENDBRANCH   1  11
BRANCH   3  21
ATOM     21  C   UNL d   1     -50.343  12.317  23.114  0.00  0.00     0.088 C 
ATOM     22  C   UNL d   1     -50.237  11.730  23.698  0.00  0.00     0.025 C 
ATOM     23  C   UNL d   1     -50.510  12.103  22.331  0.00  0.00     0.025 C 
ATOM     24  C   UNL d   1     -50.361  11.492  23.124  0.00  0.00     0.025 C 
ENDBRANCH   3  21
TORSDOF 3
ENDMDL
MODEL 4
REMARK VINA RESULT:      -7.9      1.538      3.889
REMARK  3 active torsions:
REMARK  status: ('A' for Active; 'I' for Inactive)
REMARK    1  A    between atoms: N_7  and  C_1 
REMARK    2  A    between atoms: C_11  and  N_3 
REMARK       I    between atoms: C_9  and  N_7 
REMARK    3  A    between atoms: C_12  and  C_9 
ROOT
ATOM      1  C   UNL d   1     -48.057  13.122  22.874  0.00  0.00     0.165 A 
ATOM      2  C   UNL d   1     -47.462  13.617  22.803  0.00  0.00     0.067 A 
ATOM      3  N   UNL d   1     -47.770  12.399  22.855  0.00  0.00    -0.238 N 
ATOM      4  C   UNL d   1     -46.801  13.196  22.739  0.00  0.00     0.116 A 
ATOM      5  N   UNL d   1     -46.995  12.446  22.772  0.00  0.00    -0.168 NA
ATOM      6  S   UNL d   1     -46.500  14.420  22.688  0.00  0.00     0.213 S 
ATOM      7  C   UNL d   1     -46.211  13.694  22.669  0.00  0.00     0.120 A 
ATOM      8  C   UNL d   1     -47.273  14.370  22.771  0.00  0.00     0.103 A 
ATOM      9  O   UNL d   1     -45.730  14.386  22.607  0.00  0.00    -0.217 OA
ATOM     10  O   UNL d   1     -46.797  15.024  22.711  0.00  0.00    -0.217 OA
ENDROOT
BRANCH   1  11
ATOM     11  N   UNL d   1     -48.539  13.636  22.918  0.00  0.00    -0.189 NA
ATOM     12  C   UNL d   1     -49.528  13.690  23.095  0.00  0.00     0.281 C 
ATOM     13  O   UNL d   1     -49.945  13.064  23.227  0.00  0.00    -0.265 OA
BRANCH  12  14
ATOM     14  C   UNL d   1     -49.897  14.425  23.098  0.00  0.00     0.058 A 
ATOM     15  C   UNL d   1     -50.446  14.619  22.487  0.00  0.00     0.005 A 
ATOM     16  C   UNL d   1     -50.614  14.077  21.887  0.00  0.00     0.000 C 
ATOM     17  C   UNL d   1     -50.818  15.366  22.492  0.00  0.00     0.000 A 
ATOM     18  C   UNL d   1     -50.644  15.913  23.104  0.00  0.00     0.000 A 
ATOM     19  C   UNL d   1     -50.104  15.709  23.698  0.00  0.00     0.000 A 
ATOM     20  C   UNL d   1     -49.729  14.964  23.697  0.00  0.00     0.005 A 
ENDBRANCH  12  14
ENDBRANCH   1  11
BRANCH   3  21
ATOM     21  C   UNL d   1     -48.212  11.695  22.913  0.00  0.00     0.088 C 
ATOM     22  C   UNL d   1     -48.535  11.250  22.286  0.00  0.00     0.025 C 
ATOM     23  C   UNL d   1     -48.317  11.450  23.698  0.00  0.00     0.025 C 
ATOM     24  C   UNL d   1     -48.655  11.002  22.856  0.00  0.00     0.025 C 
ENDBRANCH   3  21
TORSDOF 3
ENDMDL
MODEL 5
REMARK VINA RESULT:      -7.1      9.205     10.682
REMARK  3 active torsions:
REMARK  status: ('A' for Active; 'I' for Inactive)
REMARK    1  A    between atoms: N_7  and  C_1 
REMARK    2  A    between atoms: C_11  and  N_3 
REMARK       I    between atoms: C_9  and  N_7 
REMARK    3  A    between atoms: C_12  and  C_9 
ROOT
ATOM      1  C   UNL d   1     -39.691  14.639  18.012  0.00  0.00     0.165 A 
ATOM      2  C   UNL d   1     -39.211  14.029  18.062  0.00  0.00     0.067 A 
ATOM      3  N   UNL d   1     -39.946  14.682  17.278  0.00  0.00    -0.238 N 
ATOM      4  C   UNL d   1     -39.169  13.692  17.353  0.00  0.00     0.116 A 
ATOM      5  N   UNL d   1     -39.624  14.098  16.873  0.00  0.00    -0.168 NA
ATOM      6  S   UNL d   1     -38.434  13.043  18.147  0.00  0.00     0.213 S 
ATOM      7  C   UNL d   1     -38.690  13.085  17.409  0.00  0.00     0.120 A 
ATOM      8  C   UNL d   1     -38.757  13.627  18.549  0.00  0.00     0.103 A 
ATOM      9  O   UNL d   1     -38.155  12.491  17.681  0.00  0.00    -0.217 OA
ATOM     10  O   UNL d   1     -38.243  13.049  18.793  0.00  0.00    -0.217 OA
ENDROOT
BRANCH   1  11
ATOM     11  N   UNL d   1     -39.617  14.811  18.693  0.00  0.00    -0.189 NA
ATOM     12  C   UNL d   1     -40.193  15.238  19.400  0.00  0.00     0.281 C 
ATOM     13  O   UNL d   1     -40.906  15.464  19.251  0.00  0.00    -0.265 OA
BRANCH  12  14
ATOM     14  C   UNL d   1     -39.888  15.346  20.156  0.00  0.00     0.058 A 
ATOM     15  C   UNL d   1     -40.265  14.977  20.815  0.00  0.00     0.005 A 
ATOM     16  C   UNL d   1     -40.937  14.510  20.705  0.00  0.00     0.000 C 
ATOM     17  C   UNL d   1     -39.954  15.088  21.581  0.00  0.00     0.000 A 
ATOM     18  C   UNL d   1     -39.271  15.563  21.687  0.00  0.00     0.000 A 
ATOM     19  C   UNL d   1     -38.910  15.919  21.031  0.00  0.00     0.000 A 
ATOM     20  C   UNL d   1     -39.218  15.811  20.264  0.00  0.00     0.005 A 
ENDBRANCH  12  14
ENDBRANCH   1  11
BRANCH   3  21
ATOM     21  C   UNL d   1     -40.473  15.252  16.976  0.00  0.00     0.088 C 
ATOM     22  C   UNL d   1     -41.305  15.205  16.947  0.00  0.00     0.025 C 
ATOM     23  C   UNL d   1     -40.081  15.922  16.684  0.00  0.00     0.025 C 
ATOM     24  C   UNL d   1     -41.077  15.745  16.706  0.00  0.00     0.025 C 
ENDBRANCH   3  21
TORSDOF 3
ENDMDL
MODEL 6
REMARK VINA RESULT:      -5.8      1.592      3.199
REMARK  3 active torsions:
REMARK  status: ('A' for Active; 'I' for Inactive)
REMARK    1  A    between atoms: N_7  and  C_1 
REMARK    2  A    between atoms: C_11  and  N_3 
REMARK       I    between atoms: C_9  and  N_7 
REMARK    3  A    between atoms: C_12  and  C_9 
ROOT
ATOM      1  C   UNL d   1     -48.345  14.270  22.838  0.00  0.00     0.165 A 
ATOM      2  C   UNL d   1     -47.582  14.116  22.833  0.00  0.00     0.067 A 
ATOM      3  N   UNL d   1     -48.436  15.026  22.674  0.00  0.00    -0.238 N 
ATOM      4  C   UNL d   1     -47.199  14.782  22.666  0.00  0.00     0.116 A 
ATOM      5  N   UNL d   1     -47.729  15.340  22.569  0.00  0.00    -0.168 NA
ATOM      6  S   UNL d   1     -46.350  13.864  22.826  0.00  0.00     0.213 S 
ATOM      7  C   UNL d   1     -46.441  14.622  22.662  0.00  0.00     0.120 A 
ATOM      8  C   UNL d   1     -47.056  13.553  22.932  0.00  0.00     0.103 A 
ATOM      9  O   UNL d   1     -45.686  14.246  22.708  0.00  0.00    -0.217 OA
ATOM     10  O   UNL d   1     -46.324  13.207  22.971  0.00  0.00    -0.217 OA
ENDROOT
BRANCH   1  11
ATOM     11  N   UNL d   1     -48.524  13.605  22.995  0.00  0.00    -0.189 NA
ATOM     12  C   UNL d   1     -49.235  12.957  22.698  0.00  0.00     0.281 C 
ATOM     13  O   UNL d   1     -49.755  13.148  22.173  0.00  0.00    -0.265 OA
BRANCH  12  14
ATOM     14  C   UNL d   1     -49.256  12.205  23.028  0.00  0.00     0.058 A 
ATOM     15  C   UNL d   1     -49.976  11.916  23.363  0.00  0.00     0.005 A 
ATOM     16  C   UNL d   1     -50.656  12.384  23.361  0.00  0.00     0.000 C 
ATOM     17  C   UNL d   1     -49.995  11.152  23.698  0.00  0.00     0.000 A 
ATOM     18  C   UNL d   1     -49.301  10.681  23.698  0.00  0.00     0.000 A 
ATOM     19  C   UNL d   1     -48.601  10.977  23.366  0.00  0.00     0.000 A 
ATOM     20  C   UNL d   1     -48.577  11.740  23.030  0.00  0.00     0.005 A 
ENDBRANCH  12  14
ENDBRANCH   1  11
BRANCH   3  21
ATOM     21  C   UNL d   1     -49.163  15.430  22.621  0.00  0.00     0.088 C 
ATOM     22  C   UNL d   1     -49.645  15.684  23.253  0.00  0.00     0.025 C 
ATOM     23  C   UNL d   1     -49.389  15.574  21.837  0.00  0.00     0.025 C 
ATOM     24  C   UNL d   1     -49.882  15.828  22.683  0.00  0.00     0.025 C 
ENDBRANCH   3  21
TORSDOF 3
ENDMDL
