MODEL 1
REMARK VINA RESULT:      -8.5      0.000      0.000
REMARK  1 active torsions:
REMARK  status: ('A' for Active; 'I' for Inactive)
REMARK    1  A    between atoms: C_2  and  N_1 
ROOT
ATOM      1  C   UNL d   1      52.206  34.076  53.433  0.00  0.00     0.130 A 
ATOM      2  C   UNL d   1      52.402  34.801  53.702  0.00  0.00     0.067 A 
ATOM      3  C   UNL d   1      53.041  34.906  54.221  0.00  0.00     0.215 A 
ATOM      4  C   UNL d   1      53.481  34.250  54.462  0.00  0.00     0.120 A 
ATOM      5  C   UNL d   1      52.635  33.403  53.663  0.00  0.00     0.025 A 
ATOM      6  C   UNL d   1      53.274  33.486  54.178  0.00  0.00     0.022 A 
ATOM      7  N   UNL d   1      54.116  34.335  54.975  0.00  0.00    -0.241 NA
ATOM      8  O   UNL d   1      53.243  35.651  54.498  0.00  0.00    -0.285 OA
ATOM      9  C   UNL d   1      53.710  32.832  54.416  0.00  0.00     0.003 A 
ATOM     10  C   UNL d   1      54.546  33.663  55.205  0.00  0.00     0.099 A 
ATOM     11  C   UNL d   1      54.350  32.938  54.936  0.00  0.00     0.021 A 
ENDROOT
BRANCH   1  12
ATOM     12  N   UNL d   1      51.568  34.026  52.924  0.00  0.00    -0.114 N 
ATOM     13  O   UNL d   1      50.837  33.778  53.218  0.00  0.00    -0.532 OA
ATOM     14  O   UNL d   1      51.667  34.221  52.138  0.00  0.00    -0.532 OA
ENDBRANCH   1  12
TORSDOF 1
ENDMDL
MODEL 2
REMARK VINA RESULT:      -8.5      1.597      3.190
REMARK  1 active torsions:
REMARK  status: ('A' for Active; 'I' for Inactive)
REMARK    1  A    between atoms: C_2  and  N_1 
ROOT
ATOM      1  C   UNL d   1      53.756  33.063  54.269  0.00  0.00     0.130 A 
ATOM      2  C   UNL d   1      53.642  32.440  53.783  0.00  0.00     0.067 A 
ATOM      3  C   UNL d   1      53.071  32.466  53.181  0.00  0.00     0.215 A 
ATOM      4  C   UNL d   1      52.613  33.146  53.085  0.00  0.00     0.120 A 
ATOM      5  C   UNL d   1      53.306  33.757  54.188  0.00  0.00     0.025 A 
ATOM      6  C   UNL d   1      52.733  33.802  53.597  0.00  0.00     0.022 A 
ATOM      7  N   UNL d   1      52.044  33.189  52.495  0.00  0.00    -0.241 NA
ATOM      8  O   UNL d   1      52.954  31.826  52.682  0.00  0.00    -0.285 OA
ATOM      9  C   UNL d   1      52.279  34.479  53.502  0.00  0.00     0.003 A 
ATOM     10  C   UNL d   1      51.594  33.882  52.414  0.00  0.00     0.099 A 
ATOM     11  C   UNL d   1      51.707  34.505  52.900  0.00  0.00     0.021 A 
ENDROOT
BRANCH   1  12
ATOM     12  N   UNL d   1      54.331  32.988  54.845  0.00  0.00    -0.114 N 
ATOM     13  O   UNL d   1      55.073  33.328  54.721  0.00  0.00    -0.532 OA
ATOM     14  O   UNL d   1      54.160  32.579  55.530  0.00  0.00    -0.532 OA
ENDBRANCH   1  12
TORSDOF 1
ENDMDL
MODEL 3
REMARK VINA RESULT:      -8.5      1.896      2.313
REMARK  1 active torsions:
REMARK  status: ('A' for Active; 'I' for Inactive)
REMARK    1  A    between atoms: C_2  and  N_1 
ROOT
ATOM      1  C   UNL d   1      53.006  31.672  53.262  0.00  0.00     0.130 A 
ATOM      2  C   UNL d   1      52.469  32.234  53.082  0.00  0.00     0.067 A 
ATOM      3  C   UNL d   1      52.521  32.996  53.410  0.00  0.00     0.215 A 
ATOM      4  C   UNL d   1      53.137  33.173  53.929  0.00  0.00     0.120 A 
ATOM      5  C   UNL d   1      53.634  31.831  53.783  0.00  0.00     0.025 A 
ATOM      6  C   UNL d   1      53.703  32.581  54.119  0.00  0.00     0.022 A 
ATOM      7  N   UNL d   1      53.203  33.921  54.262  0.00  0.00    -0.241 NA
ATOM      8  O   UNL d   1      51.969  33.573  53.225  0.00  0.00    -0.285 OA
ATOM      9  C   UNL d   1      54.317  32.756  54.635  0.00  0.00     0.003 A 
ATOM     10  C   UNL d   1      53.831  34.080  54.782  0.00  0.00     0.099 A 
ATOM     11  C   UNL d   1      54.368  33.518  54.962  0.00  0.00     0.021 A 
ENDROOT
BRANCH   1  12
ATOM     12  N   UNL d   1      52.911  30.938  52.914  0.00  0.00    -0.114 N 
ATOM     13  O   UNL d   1      52.710  30.292  53.386  0.00  0.00    -0.532 OA
ATOM     14  O   UNL d   1      53.017  30.861  52.109  0.00  0.00    -0.532 OA
ENDBRANCH   1  12
TORSDOF 1
ENDMDL
MODEL 4
REMARK VINA RESULT:      -8.5      1.541      2.841
REMARK  1 active torsions:
REMARK  status: ('A' for Active; 'I' for Inactive)
REMARK    1  A    between atoms: C_2  and  N_1 
ROOT
ATOM      1  C   UNL d   1      53.881  33.413  54.431  0.00  0.00     0.130 A 
ATOM      2  C   UNL d   1      53.379  33.730  53.897  0.00  0.00     0.067 A 
ATOM      3  C   UNL d   1      52.979  33.251  53.349  0.00  0.00     0.215 A 
ATOM      4  C   UNL d   1      53.102  32.435  53.356  0.00  0.00     0.120 A 
ATOM      5  C   UNL d   1      54.018  32.594  54.455  0.00  0.00     0.025 A 
ATOM      6  C   UNL d   1      53.631  32.101  53.919  0.00  0.00     0.022 A 
ATOM      7  N   UNL d   1      52.715  31.948  52.822  0.00  0.00    -0.241 NA
ATOM      8  O   UNL d   1      52.464  33.577  52.800  0.00  0.00    -0.285 OA
ATOM      9  C   UNL d   1      53.754  31.290  53.928  0.00  0.00     0.003 A 
ATOM     10  C   UNL d   1      52.853  31.129  52.846  0.00  0.00     0.099 A 
ATOM     11  C   UNL d   1      53.354  30.811  53.379  0.00  0.00     0.021 A 
ENDROOT
BRANCH   1  12
ATOM     12  N   UNL d   1      54.250  33.927  54.949  0.00  0.00    -0.114 N 
ATOM     13  O   UNL d   1      55.073  33.917  55.007  0.00  0.00    -0.532 OA
ATOM     14  O   UNL d   1      53.797  34.438  55.396  0.00  0.00    -0.532 OA
ENDBRANCH   1  12
TORSDOF 1
ENDMDL
MODEL 5
REMARK VINA RESULT:      -8.0      1.393      2.309
REMARK  1 active torsions:
REMARK  status: ('A' for Active; 'I' for Inactive)
REMARK    1  A    between atoms: C_2  and  N_1 
ROOT
ATOM      1  C   UNL d   1      53.262  34.337  54.404  0.00  0.00     0.130 A 
ATOM      2  C   UNL d   1      53.816  34.021  54.883  0.00  0.00     0.067 A 
ATOM      3  C   UNL d   1      54.039  33.224  54.813  0.00  0.00     0.215 A 
ATOM      4  C   UNL d   1      53.681  32.752  54.239  0.00  0.00     0.120 A 
ATOM      5  C   UNL d   1      52.889  33.878  53.820  0.00  0.00     0.025 A 
ATOM      6  C   UNL d   1      53.096  33.084  53.734  0.00  0.00     0.022 A 
ATOM      7  N   UNL d   1      53.889  31.962  54.156  0.00  0.00    -0.241 NA
ATOM      8  O   UNL d   1      54.609  32.900  55.305  0.00  0.00    -0.285 OA
ATOM      9  C   UNL d   1      52.739  32.616  53.162  0.00  0.00     0.003 A 
ATOM     10  C   UNL d   1      53.516  31.503  53.572  0.00  0.00     0.099 A 
ATOM     11  C   UNL d   1      52.962  31.819  53.092  0.00  0.00     0.021 A 
ENDROOT
BRANCH   1  12
ATOM     12  N   UNL d   1      53.078  35.126  54.513  0.00  0.00    -0.114 N 
ATOM     13  O   UNL d   1      52.950  35.605  53.853  0.00  0.00    -0.532 OA
ATOM     14  O   UNL d   1      53.025  35.423  55.271  0.00  0.00    -0.532 OA
ENDBRANCH   1  12
TORSDOF 1
ENDMDL
