MODEL 1
REMARK VINA RESULT:      -3.2      0.000      0.000
REMARK  5 active torsions:
REMARK  status: ('A' for Active; 'I' for Inactive)
REMARK    1  A    between atoms: C_3  and  C_1 
REMARK    2  A    between atoms: N_2  and  C_7 
REMARK       I    between atoms: N_4  and  C_3 
REMARK    3  A    between atoms: C_9  and  N_4 
REMARK    4  A    between atoms: O_19  and  C_6 
REMARK    5  A    between atoms: O_20  and  C_10 
ROOT
ATOM      1  C   UNL d   1      57.729  -0.665  30.824  0.00  0.00     0.281 C 
ATOM      2  N   UNL d   1      57.771  -0.162  31.477  0.00  0.00    -0.206 NA
ATOM      3  O   UNL d   1      57.099  -1.151  30.733  0.00  0.00    -0.265 OA
ENDROOT
BRANCH   1   4
ATOM      4  C   UNL d   1      58.346  -0.659  30.267  0.00  0.00     0.080 A 
ATOM      5  C   UNL d   1      58.793   0.014  30.147  0.00  0.00     0.007 A 
ATOM      6  C   UNL d   1      59.412  -0.000  29.579  0.00  0.00     0.000 A 
ATOM      7  C   UNL d   1      59.858   0.682  29.465  0.00  0.00     0.000 A 
ATOM      8  C   UNL d   1      59.549  -0.697  29.158  0.00  0.00     0.002 A 
ATOM      9  C   UNL d   1      60.476   0.660  28.895  0.00  0.00     0.000 A 
ATOM     10  C   UNL d   1      60.608  -0.010  28.490  0.00  0.00     0.000 A 
ATOM     11  C   UNL d   1      60.160  -0.693  28.605  0.00  0.00     0.000 A 
ATOM     12  C   UNL d   1      59.087  -1.360  29.295  0.00  0.00     0.024 A 
ATOM     13  C   UNL d   1      58.480  -1.332  29.859  0.00  0.00     0.099 A 
BRANCH  13  14
ATOM     14  O   UNL d   1      57.998  -1.998  30.012  0.00  0.00    -0.328 OA
ATOM     15  C   UNL d   1      58.170  -2.723  29.634  0.00  0.00     0.181 C 
ENDBRANCH  13  14
ENDBRANCH   1   4
BRANCH   2  16
ATOM     16  C   UNL d   1      57.191  -0.148  32.028  0.00  0.00     0.107 A 
ATOM     17  C   UNL d   1      57.313   0.270  32.722  0.00  0.00     0.113 A 
ATOM     18  C   UNL d   1      56.722   0.293  33.301  0.00  0.00     0.049 A 
ATOM     19  C   UNL d   1      56.003  -0.103  33.189  0.00  0.00     0.129 A 
ATOM     20  C   UNL d   1      55.883  -0.521  32.491  0.00  0.00     0.025 A 
ATOM     21  C   UNL d   1      56.467  -0.547  31.913  0.00  0.00     0.023 A 
BRANCH  17  22
ATOM     22  O   UNL d   1      58.038   0.675  32.849  0.00  0.00    -0.327 OA
ATOM     23  C   UNL d   1      58.368   0.682  33.619  0.00  0.00     0.181 C 
ENDBRANCH  17  22
BRANCH  19  24
ATOM     24  N   UNL d   1      55.423  -0.066  33.784  0.00  0.00    -0.114 N 
ATOM     25  O   UNL d   1      54.632  -0.062  33.549  0.00  0.00    -0.532 OA
ATOM     26  O   UNL d   1      55.643  -0.035  34.574  0.00  0.00    -0.532 OA
ENDBRANCH  19  24
ENDBRANCH   2  16
TORSDOF 5
ENDMDL
MODEL 2
REMARK VINA RESULT:      -2.6      1.371      1.572
REMARK  5 active torsions:
REMARK  status: ('A' for Active; 'I' for Inactive)
REMARK    1  A    between atoms: C_3  and  C_1 
REMARK    2  A    between atoms: N_2  and  C_7 
REMARK       I    between atoms: N_4  and  C_3 
REMARK    3  A    between atoms: C_9  and  N_4 
REMARK    4  A    between atoms: O_19  and  C_6 
REMARK    5  A    between atoms: O_20  and  C_10 
ROOT
ATOM      1  C   UNL d   1      57.611   0.500  31.360  0.00  0.00     0.281 C 
ATOM      2  N   UNL d   1      57.676   0.680  32.163  0.00  0.00    -0.206 NA
ATOM      3  O   UNL d   1      56.902   0.291  31.053  0.00  0.00    -0.265 OA
ENDROOT
BRANCH   1   4
ATOM      4  C   UNL d   1      58.288   0.539  30.879  0.00  0.00     0.080 A 
ATOM      5  C   UNL d   1      59.034   0.568  31.210  0.00  0.00     0.007 A 
ATOM      6  C   UNL d   1      59.705   0.607  30.707  0.00  0.00     0.000 A 
ATOM      7  C   UNL d   1      60.453   0.635  31.050  0.00  0.00     0.000 A 
ATOM      8  C   UNL d   1      59.590   0.615  29.890  0.00  0.00     0.002 A 
ATOM      9  C   UNL d   1      61.121   0.674  30.540  0.00  0.00     0.000 A 
ATOM     10  C   UNL d   1      61.010   0.682  29.753  0.00  0.00     0.000 A 
ATOM     11  C   UNL d   1      60.259   0.653  29.412  0.00  0.00     0.000 A 
ATOM     12  C   UNL d   1      58.832   0.585  29.580  0.00  0.00     0.024 A 
ATOM     13  C   UNL d   1      58.178   0.547  30.088  0.00  0.00     0.099 A 
BRANCH  13  14
ATOM     14  O   UNL d   1      57.397   0.517  29.791  0.00  0.00    -0.328 OA
ATOM     15  C   UNL d   1      57.263   0.656  28.978  0.00  0.00     0.181 C 
ENDBRANCH  13  14
ENDBRANCH   1   4
BRANCH   2  16
ATOM     16  C   UNL d   1      57.041   0.651  32.647  0.00  0.00     0.107 A 
ATOM     17  C   UNL d   1      57.159   0.649  33.458  0.00  0.00     0.113 A 
ATOM     18  C   UNL d   1      56.511   0.619  33.972  0.00  0.00     0.049 A 
ATOM     19  C   UNL d   1      55.737   0.589  33.677  0.00  0.00     0.129 A 
ATOM     20  C   UNL d   1      55.621   0.591  32.863  0.00  0.00     0.025 A 
ATOM     21  C   UNL d   1      56.261   0.621  32.349  0.00  0.00     0.023 A 
BRANCH  17  22
ATOM     22  O   UNL d   1      57.939   0.679  33.771  0.00  0.00    -0.327 OA
ATOM     23  C   UNL d   1      58.051   0.540  34.590  0.00  0.00     0.181 C 
ENDBRANCH  17  22
BRANCH  19  24
ATOM     24  N   UNL d   1      55.101   0.559  34.212  0.00  0.00    -0.114 N 
ATOM     25  O   UNL d   1      55.266   0.679  35.012  0.00  0.00    -0.532 OA
ATOM     26  O   UNL d   1      54.340   0.414  33.941  0.00  0.00    -0.532 OA
ENDBRANCH  19  24
ENDBRANCH   2  16
TORSDOF 5
ENDMDL
MODEL 3
REMARK VINA RESULT:      -2.6      1.424      5.130
REMARK  5 active torsions:
REMARK  status: ('A' for Active; 'I' for Inactive)
REMARK    1  A    between atoms: C_3  and  C_1 
REMARK    2  A    between atoms: N_2  and  C_7 
REMARK       I    between atoms: N_4  and  C_3 
REMARK    3  A    between atoms: C_9  and  N_4 
REMARK    4  A    between atoms: O_19  and  C_6 
REMARK    5  A    between atoms: O_20  and  C_10 
ROOT
ATOM      1  C   UNL d   1      57.606   0.434  32.383  0.00  0.00     0.281 C 
ATOM      2  N   UNL d   1      57.404   0.116  31.649  0.00  0.00    -0.206 NA
ATOM      3  O   UNL d   1      58.354   0.682  32.521  0.00  0.00    -0.265 OA
ENDROOT
BRANCH   1   4
ATOM      4  C   UNL d   1      57.023   0.493  32.974  0.00  0.00     0.080 A 
ATOM      5  C   UNL d   1      56.230   0.507  32.778  0.00  0.00     0.007 A 
ATOM      6  C   UNL d   1      55.657   0.567  33.389  0.00  0.00     0.000 A 
ATOM      7  C   UNL d   1      54.861   0.580  33.182  0.00  0.00     0.000 A 
ATOM      8  C   UNL d   1      55.914   0.609  34.172  0.00  0.00     0.002 A 
ATOM      9  C   UNL d   1      54.292   0.640  33.800  0.00  0.00     0.000 A 
ATOM     10  C   UNL d   1      54.540   0.681  34.554  0.00  0.00     0.000 A 
ATOM     11  C   UNL d   1      55.339   0.668  34.759  0.00  0.00     0.000 A 
ATOM     12  C   UNL d   1      56.715   0.594  34.346  0.00  0.00     0.024 A 
ATOM     13  C   UNL d   1      57.270   0.534  33.732  0.00  0.00     0.099 A 
BRANCH  13  14
ATOM     14  O   UNL d   1      58.091   0.516  33.889  0.00  0.00    -0.328 OA
ATOM     15  C   UNL d   1      58.364   0.682  34.661  0.00  0.00     0.181 C 
ENDBRANCH  13  14
ENDBRANCH   1   4
BRANCH   2  16
ATOM     16  C   UNL d   1      57.945   0.048  31.064  0.00  0.00     0.107 A 
ATOM     17  C   UNL d   1      58.004  -0.661  30.658  0.00  0.00     0.113 A 
ATOM     18  C   UNL d   1      58.559  -0.746  30.051  0.00  0.00     0.049 A 
ATOM     19  C   UNL d   1      59.062  -0.120  29.844  0.00  0.00     0.129 A 
ATOM     20  C   UNL d   1      59.001   0.591  30.254  0.00  0.00     0.025 A 
ATOM     21  C   UNL d   1      58.451   0.680  30.858  0.00  0.00     0.023 A 
BRANCH  17  22
ATOM     22  O   UNL d   1      57.501  -1.304  30.857  0.00  0.00    -0.327 OA
ATOM     23  C   UNL d   1      57.469  -1.966  30.343  0.00  0.00     0.181 C 
ENDBRANCH  17  22
BRANCH  19  24
ATOM     24  N   UNL d   1      59.613  -0.228  29.230  0.00  0.00    -0.114 N 
ATOM     25  O   UNL d   1      59.328  -0.225  28.455  0.00  0.00    -0.532 OA
ATOM     26  O   UNL d   1      60.408  -0.332  29.403  0.00  0.00    -0.532 OA
ENDBRANCH  19  24
ENDBRANCH   2  16
TORSDOF 5
ENDMDL
