MODEL 1
REMARK VINA RESULT:      71.7      0.000      0.000
REMARK  4 active torsions:
REMARK  status: ('A' for Active; 'I' for Inactive)
REMARK    1  A    between atoms: S_2  and  N_1 
REMARK    2  A    between atoms: C_7  and  S_2 
REMARK    3  A    between atoms: C_10  and  C_3 
REMARK    4  A    between atoms: C_14  and  C_10 
ROOT
ATOM      1  N   UNL d   1     -50.284  25.319  33.669  0.00  0.00    -0.214 N 
ATOM      2  C   UNL d   1     -50.939  24.838  33.488  0.00  0.00     0.157 A 
ATOM      3  N   UNL d   1     -50.680  24.052  33.519  0.00  0.00    -0.226 NA
ATOM      4  C   UNL d   1     -49.634  24.827  33.808  0.00  0.00     0.094 A 
ATOM      5  C   UNL d   1     -49.871  24.042  33.717  0.00  0.00     0.100 A 
ATOM      6  C   UNL d   1     -48.847  24.998  34.009  0.00  0.00     0.020 A 
ATOM      7  C   UNL d   1     -49.329  23.418  33.825  0.00  0.00     0.021 A 
ATOM      8  C   UNL d   1     -48.300  24.378  34.118  0.00  0.00     0.002 A 
ATOM      9  C   UNL d   1     -48.560  23.594  34.021  0.00  0.00     0.002 A 
ENDROOT
BRANCH   1  10
ATOM     10  S   UNL d   1     -50.305  26.143  33.698  0.00  0.00     0.272 S 
ATOM     11  O   UNL d   1     -51.041  26.087  34.073  0.00  0.00    -0.200 OA
ATOM     12  O   UNL d   1     -49.574  26.195  33.325  0.00  0.00    -0.200 OA
BRANCH  10  13
ATOM     13  C   UNL d   1     -50.338  26.965  33.733  0.00  0.00     0.104 A 
ATOM     14  C   UNL d   1     -50.952  27.357  33.345  0.00  0.00     0.013 A 
ATOM     15  C   UNL d   1     -50.988  28.182  33.377  0.00  0.00     0.007 A 
ATOM     16  C   UNL d   1     -50.420  28.587  33.789  0.00  0.00     0.035 A 
ATOM     17  C   UNL d   1     -49.813  28.203  34.172  0.00  0.00     0.007 A 
ATOM     18 BR   UNL d   1     -50.456  29.431  33.823  0.00  0.00    -0.049 Br
ATOM     19  C   UNL d   1     -49.777  27.384  34.140  0.00  0.00     0.013 A 
ENDBRANCH  10  13
ENDBRANCH   1  10
BRANCH   2  20
ATOM     20  C   UNL d   1     -51.717  25.108  33.307  0.00  0.00     0.038 C 
BRANCH  20  21
ATOM     21  C   UNL d   1     -52.358  24.588  33.341  0.00  0.00     0.003 A 
ATOM     22  C   UNL d   1     -52.229  23.764  33.334  0.00  0.00     0.000 A 
ATOM     23  C   UNL d   1     -52.865  23.248  33.367  0.00  0.00     0.000 A 
ATOM     24  C   UNL d   1     -53.636  23.535  33.407  0.00  0.00     0.000 A 
ATOM     25  C   UNL d   1     -53.763  24.354  33.414  0.00  0.00     0.000 A 
ATOM     26  C   UNL d   1     -53.128  24.877  33.381  0.00  0.00     0.000 A 
ENDBRANCH  20  21
ENDBRANCH   2  20
TORSDOF 4
ENDMDL
