MODEL 1
REMARK VINA RESULT:      -7.7      0.000      0.000
REMARK  4 active torsions:
REMARK  status: ('A' for Active; 'I' for Inactive)
REMARK       I    between atoms: N_3  and  C_1 
REMARK    1  A    between atoms: C_13  and  C_1 
REMARK    2  A    between atoms: C_2  and  N_5 
REMARK    3  A    between atoms: C_14  and  N_3 
REMARK    4  A    between atoms: C_4  and  C_14 
REMARK       I    between atoms: N_5  and  C_4 
ROOT
ATOM      1  C   UNL d   1      51.339  33.778  52.703  0.00  0.00     0.299 C 
ATOM      2  N   UNL d   1      50.541  33.599  52.802  0.00  0.00    -0.207 NA
ATOM      3  O   UNL d   1      51.572  34.500  52.380  0.00  0.00    -0.263 OA
ENDROOT
BRANCH   1   4
ATOM      4  C   UNL d   1      51.911  33.228  52.928  0.00  0.00     0.165 C 
BRANCH   4   5
ATOM      5  N   UNL d   1      52.551  33.468  53.396  0.00  0.00    -0.201 NA
ATOM      6  C   UNL d   1      53.104  32.902  53.636  0.00  0.00     0.279 C 
ATOM      7  O   UNL d   1      53.017  32.113  53.412  0.00  0.00    -0.265 OA
BRANCH   6   8
ATOM      8  C   UNL d   1      53.750  33.133  54.105  0.00  0.00     0.058 A 
ATOM      9  C   UNL d   1      53.630  33.374  54.884  0.00  0.00     0.005 A 
ATOM     10  C   UNL d   1      54.269  33.599  55.339  0.00  0.00     0.000 A 
ATOM     11  C   UNL d   1      55.031  33.586  55.023  0.00  0.00     0.000 A 
ATOM     12  C   UNL d   1      55.154  33.348  54.252  0.00  0.00     0.000 A 
ATOM     13  C   UNL d   1      54.512  33.120  53.789  0.00  0.00     0.005 A 
ENDBRANCH   6   8
ENDBRANCH   4   5
ENDBRANCH   1   4
BRANCH   2  14
ATOM     14  C   UNL d   1      49.970  34.153  52.575  0.00  0.00     0.086 A 
ATOM     15  C   UNL d   1      49.689  34.160  51.799  0.00  0.00     0.031 A 
ATOM     16  C   UNL d   1      49.120  34.718  51.585  0.00  0.00     0.060 A 
ATOM     17 CL   UNL d   1      48.886  34.680  50.831  0.00  0.00    -0.082 Cl
ATOM     18  C   UNL d   1      48.833  35.262  52.132  0.00  0.00     0.023 A 
ATOM     19  C   UNL d   1      49.122  35.248  52.911  0.00  0.00     0.060 A 
ATOM     20  C   UNL d   1      49.691  34.694  53.133  0.00  0.00     0.031 A 
ATOM     21 CL   UNL d   1      48.838  35.792  53.466  0.00  0.00    -0.082 Cl
ENDBRANCH   2  14
TORSDOF 4
ENDMDL
MODEL 2
REMARK VINA RESULT:      -7.5      1.448      1.897
REMARK  4 active torsions:
REMARK  status: ('A' for Active; 'I' for Inactive)
REMARK       I    between atoms: N_3  and  C_1 
REMARK    1  A    between atoms: C_13  and  C_1 
REMARK    2  A    between atoms: C_2  and  N_5 
REMARK    3  A    between atoms: C_14  and  N_3 
REMARK    4  A    between atoms: C_4  and  C_14 
REMARK       I    between atoms: N_5  and  C_4 
ROOT
ATOM      1  C   UNL d   1      51.172  33.590  52.922  0.00  0.00     0.299 C 
ATOM      2  N   UNL d   1      51.025  34.253  52.455  0.00  0.00    -0.207 NA
ATOM      3  O   UNL d   1      50.553  33.187  53.289  0.00  0.00    -0.263 OA
ENDROOT
BRANCH   1   4
ATOM      4  C   UNL d   1      51.947  33.327  53.024  0.00  0.00     0.165 C 
BRANCH   4   5
ATOM      5  N   UNL d   1      52.094  32.524  53.159  0.00  0.00    -0.201 NA
ATOM      6  C   UNL d   1      52.875  32.252  53.140  0.00  0.00     0.279 C 
ATOM      7  O   UNL d   1      53.495  32.776  52.988  0.00  0.00    -0.265 OA
BRANCH   6   8
ATOM      8  C   UNL d   1      53.034  31.448  53.274  0.00  0.00     0.058 A 
ATOM      9  C   UNL d   1      53.482  31.218  53.926  0.00  0.00     0.005 A 
ATOM     10  C   UNL d   1      53.634  30.426  54.051  0.00  0.00     0.000 A 
ATOM     11  C   UNL d   1      53.340  29.857  53.529  0.00  0.00     0.000 A 
ATOM     12  C   UNL d   1      52.896  30.081  52.883  0.00  0.00     0.000 A 
ATOM     13  C   UNL d   1      52.741  30.879  52.753  0.00  0.00     0.005 A 
ENDBRANCH   6   8
ENDBRANCH   4   5
ENDBRANCH   1   4
BRANCH   2  14
ATOM     14  C   UNL d   1      50.246  34.514  52.355  0.00  0.00     0.086 A 
ATOM     15  C   UNL d   1      49.845  34.353  51.653  0.00  0.00     0.031 A 
ATOM     16  C   UNL d   1      49.069  34.618  51.565  0.00  0.00     0.060 A 
ATOM     17 CL   UNL d   1      48.732  34.437  50.874  0.00  0.00    -0.082 Cl
ATOM     18  C   UNL d   1      48.695  35.038  52.167  0.00  0.00     0.023 A 
ATOM     19  C   UNL d   1      49.106  35.195  52.871  0.00  0.00     0.060 A 
ATOM     20  C   UNL d   1      49.882  34.933  52.966  0.00  0.00     0.031 A 
ATOM     21 CL   UNL d   1      48.736  35.617  53.480  0.00  0.00    -0.082 Cl
ENDBRANCH   2  14
TORSDOF 4
ENDMDL
MODEL 3
REMARK VINA RESULT:      -7.4      2.093      5.238
REMARK  4 active torsions:
REMARK  status: ('A' for Active; 'I' for Inactive)
REMARK       I    between atoms: N_3  and  C_1 
REMARK    1  A    between atoms: C_13  and  C_1 
REMARK    2  A    between atoms: C_2  and  N_5 
REMARK    3  A    between atoms: C_14  and  N_3 
REMARK    4  A    between atoms: C_4  and  C_14 
REMARK       I    between atoms: N_5  and  C_4 
ROOT
ATOM      1  C   UNL d   1      50.666  34.050  52.773  0.00  0.00     0.299 C 
ATOM      2  N   UNL d   1      51.440  34.199  52.532  0.00  0.00    -0.207 NA
ATOM      3  O   UNL d   1      50.513  33.641  53.473  0.00  0.00    -0.263 OA
ENDROOT
BRANCH   1   4
ATOM      4  C   UNL d   1      50.037  34.312  52.308  0.00  0.00     0.165 C 
BRANCH   4   5
ATOM      5  N   UNL d   1      49.478  34.833  52.628  0.00  0.00    -0.201 NA
ATOM      6  C   UNL d   1      48.842  35.073  52.157  0.00  0.00     0.279 C 
ATOM      7  O   UNL d   1      48.769  34.798  51.383  0.00  0.00    -0.265 OA
BRANCH   6   8
ATOM      8  C   UNL d   1      48.275  35.595  52.469  0.00  0.00     0.058 A 
ATOM      9  C   UNL d   1      48.374  35.909  53.224  0.00  0.00     0.005 A 
ATOM     10  C   UNL d   1      47.813  36.421  53.523  0.00  0.00     0.000 A 
ATOM     11  C   UNL d   1      47.151  36.624  53.074  0.00  0.00     0.000 A 
ATOM     12  C   UNL d   1      47.050  36.315  52.326  0.00  0.00     0.000 A 
ATOM     13  C   UNL d   1      47.614  35.798  52.020  0.00  0.00     0.005 A 
ENDBRANCH   6   8
ENDBRANCH   4   5
ENDBRANCH   1   4
BRANCH   2  14
ATOM     14  C   UNL d   1      52.068  33.934  53.002  0.00  0.00     0.086 A 
ATOM     15  C   UNL d   1      52.387  34.429  53.580  0.00  0.00     0.031 A 
ATOM     16  C   UNL d   1      53.012  34.153  54.041  0.00  0.00     0.060 A 
ATOM     17 CL   UNL d   1      53.279  34.667  54.579  0.00  0.00    -0.082 Cl
ATOM     18  C   UNL d   1      53.319  33.397  53.931  0.00  0.00     0.023 A 
ATOM     19  C   UNL d   1      52.992  32.906  53.346  0.00  0.00     0.060 A 
ATOM     20  C   UNL d   1      52.366  33.174  52.881  0.00  0.00     0.031 A 
ATOM     21 CL   UNL d   1      53.295  32.144  53.230  0.00  0.00    -0.082 Cl
ENDBRANCH   2  14
TORSDOF 4
ENDMDL
MODEL 4
REMARK VINA RESULT:      -7.4      2.176      5.200
REMARK  4 active torsions:
REMARK  status: ('A' for Active; 'I' for Inactive)
REMARK       I    between atoms: N_3  and  C_1 
REMARK    1  A    between atoms: C_13  and  C_1 
REMARK    2  A    between atoms: C_2  and  N_5 
REMARK    3  A    between atoms: C_14  and  N_3 
REMARK    4  A    between atoms: C_4  and  C_14 
REMARK       I    between atoms: N_5  and  C_4 
ROOT
ATOM      1  C   UNL d   1      51.666  33.842  52.990  0.00  0.00     0.299 C 
ATOM      2  N   UNL d   1      51.890  33.364  53.622  0.00  0.00    -0.207 NA
ATOM      3  O   UNL d   1      52.091  33.834  52.283  0.00  0.00    -0.263 OA
ENDROOT
BRANCH   1   4
ATOM      4  C   UNL d   1      51.009  34.336  53.066  0.00  0.00     0.165 C 
BRANCH   4   5
ATOM      5  N   UNL d   1      50.440  34.359  52.464  0.00  0.00    -0.201 NA
ATOM      6  C   UNL d   1      49.750  34.798  52.584  0.00  0.00     0.279 C 
ATOM      7  O   UNL d   1      49.633  35.205  53.292  0.00  0.00    -0.265 OA
BRANCH   6   8
ATOM      8  C   UNL d   1      49.173  34.828  51.987  0.00  0.00     0.058 A 
ATOM      9  C   UNL d   1      49.319  34.481  51.254  0.00  0.00     0.005 A 
ATOM     10  C   UNL d   1      48.748  34.515  50.672  0.00  0.00     0.000 A 
ATOM     11  C   UNL d   1      48.029  34.893  50.815  0.00  0.00     0.000 A 
ATOM     12  C   UNL d   1      47.881  35.238  51.539  0.00  0.00     0.000 A 
ATOM     13  C   UNL d   1      48.454  35.207  52.129  0.00  0.00     0.005 A 
ENDBRANCH   6   8
ENDBRANCH   4   5
ENDBRANCH   1   4
BRANCH   2  14
ATOM     14  C   UNL d   1      52.550  32.870  53.542  0.00  0.00     0.086 A 
ATOM     15  C   UNL d   1      53.292  33.132  53.789  0.00  0.00     0.031 A 
ATOM     16  C   UNL d   1      53.942  32.632  53.704  0.00  0.00     0.060 A 
ATOM     17 CL   UNL d   1      54.627  32.932  53.957  0.00  0.00    -0.082 Cl
ATOM     18  C   UNL d   1      53.857  31.880  53.379  0.00  0.00     0.023 A 
ATOM     19  C   UNL d   1      53.107  31.624  53.133  0.00  0.00     0.060 A 
ATOM     20  C   UNL d   1      52.452  32.119  53.214  0.00  0.00     0.031 A 
ATOM     21 CL   UNL d   1      53.014  30.870  52.804  0.00  0.00    -0.082 Cl
ENDBRANCH   2  14
TORSDOF 4
ENDMDL
