MODEL 1
REMARK VINA RESULT:      -1.1      0.000      0.000
REMARK  6 active torsions:
REMARK  status: ('A' for Active; 'I' for Inactive)
REMARK    1  A    between atoms: C_17  and  N_1 
REMARK    2  A    between atoms: N_9  and  C_8 
REMARK    3  A    between atoms: C_11  and  O_21 
REMARK    4  A    between atoms: C_15  and  C_11 
REMARK    5  A    between atoms: C_30  and  C_17 
REMARK    6  A    between atoms: O_21  and  C_30 
ROOT
ATOM      1  N   UNL d   1      33.079  20.430 -22.249  0.00  0.00    -0.238 N 
ATOM      2  C   UNL d   1      33.017  19.669 -21.941  0.00  0.00     0.267 A 
ATOM      3  C   UNL d   1      32.987  20.573 -23.054  0.00  0.00     0.267 A 
ATOM      4  C   UNL d   1      32.855  19.024 -22.461  0.00  0.00     0.057 A 
ATOM      5  C   UNL d   1      32.762  19.164 -23.269  0.00  0.00     0.011 A 
ATOM      6  C   UNL d   1      32.829  19.944 -23.561  0.00  0.00     0.057 A 
ATOM      7  C   UNL d   1      32.606  18.543 -23.769  0.00  0.00     0.016 A 
ATOM      8  C   UNL d   1      32.542  17.775 -23.467  0.00  0.00     0.064 A 
ATOM      9  C   UNL d   1      32.792  18.267 -22.165  0.00  0.00     0.006 A 
ATOM     10  C   UNL d   1      32.636  17.646 -22.665  0.00  0.00     0.018 A 
ATOM     11  O   UNL d   1      33.048  21.364 -23.398  0.00  0.00    -0.267 OA
ATOM     12  O   UNL d   1      33.114  19.553 -21.128  0.00  0.00    -0.267 OA
ATOM     13  C   UNL d   1      32.737  20.098 -24.377  0.00  0.00     0.005 A 
ATOM     14  C   UNL d   1      32.512  18.679 -24.580  0.00  0.00     0.002 A 
ATOM     15  C   UNL d   1      32.576  19.456 -24.893  0.00  0.00     0.000 A 
ENDROOT
BRANCH   1  16
ATOM     16  C   UNL d   1      33.241  21.075 -21.729  0.00  0.00     0.113 C 
BRANCH  16  17
ATOM     17  C   UNL d   1      32.620  21.446 -21.331  0.00  0.00     0.145 C 
BRANCH  17  18
ATOM     18  O   UNL d   1      32.777  22.055 -20.818  0.00  0.00    -0.269 OA
BRANCH  18  19
ATOM     19  C   UNL d   1      32.170  22.393 -20.396  0.00  0.00     0.300 C 
ATOM     20  O   UNL d   1      31.406  22.414 -20.698  0.00  0.00    -0.259 OA
BRANCH  19  21
ATOM     21  C   UNL d   1      32.321  22.720 -19.656  0.00  0.00     0.064 A 
ATOM     22  C   UNL d   1      33.016  22.527 -19.264  0.00  0.00     0.006 A 
ATOM     23  C   UNL d   1      33.171  22.863 -18.504  0.00  0.00     0.012 A 
ATOM     24  C   UNL d   1      32.623  23.379 -18.167  0.00  0.00     0.058 A 
ATOM     25  C   UNL d   1      31.936  23.565 -18.563  0.00  0.00     0.012 A 
ATOM     26 CL   UNL d   1      32.772  23.702 -17.437  0.00  0.00    -0.082 Cl
ATOM     27  C   UNL d   1      31.786  23.240 -19.299  0.00  0.00     0.006 A 
ENDBRANCH  19  21
ENDBRANCH  18  19
ENDBRANCH  17  18
ENDBRANCH  16  17
ENDBRANCH   1  16
BRANCH   8  28
ATOM     28  N   UNL d   1      32.383  17.138 -23.980  0.00  0.00    -0.300 N 
ATOM     29  C   UNL d   1      32.995  16.758 -24.363  0.00  0.00     0.107 A 
ATOM     30  C   UNL d   1      32.838  16.133 -24.866  0.00  0.00     0.142 A 
ATOM     31  O   UNL d   1      32.069  15.888 -24.987  0.00  0.00    -0.300 OA
ATOM     32  C   UNL d   1      31.447  16.269 -24.602  0.00  0.00     0.142 A 
ATOM     33  C   UNL d   1      31.603  16.894 -24.099  0.00  0.00     0.107 A 
ENDBRANCH   8  28
TORSDOF 6
ENDMDL
MODEL 2
REMARK VINA RESULT:      -0.8      2.299      6.054
REMARK  6 active torsions:
REMARK  status: ('A' for Active; 'I' for Inactive)
REMARK    1  A    between atoms: C_17  and  N_1 
REMARK    2  A    between atoms: N_9  and  C_8 
REMARK    3  A    between atoms: C_11  and  O_21 
REMARK    4  A    between atoms: C_15  and  C_11 
REMARK    5  A    between atoms: C_30  and  C_17 
REMARK    6  A    between atoms: O_21  and  C_30 
ROOT
ATOM      1  N   UNL d   1      33.145  20.019 -23.326  0.00  0.00    -0.238 N 
ATOM      2  C   UNL d   1      33.052  19.863 -22.524  0.00  0.00     0.267 A 
ATOM      3  C   UNL d   1      33.145  20.790 -23.614  0.00  0.00     0.267 A 
ATOM      4  C   UNL d   1      32.955  20.507 -21.986  0.00  0.00     0.057 A 
ATOM      5  C   UNL d   1      32.955  21.281 -22.271  0.00  0.00     0.011 A 
ATOM      6  C   UNL d   1      33.051  21.417 -23.090  0.00  0.00     0.057 A 
ATOM      7  C   UNL d   1      32.862  21.900 -21.753  0.00  0.00     0.016 A 
ATOM      8  C   UNL d   1      32.768  21.753 -20.944  0.00  0.00     0.064 A 
ATOM      9  C   UNL d   1      32.862  20.362 -21.188  0.00  0.00     0.006 A 
ATOM     10  C   UNL d   1      32.770  20.981 -20.671  0.00  0.00     0.018 A 
ATOM     11  O   UNL d   1      33.241  20.975 -24.453  0.00  0.00    -0.267 OA
ATOM     12  O   UNL d   1      33.055  19.080 -22.261  0.00  0.00    -0.267 OA
ATOM     13  C   UNL d   1      33.053  22.197 -23.390  0.00  0.00     0.005 A 
ATOM     14  C   UNL d   1      32.862  22.679 -22.035  0.00  0.00     0.002 A 
ATOM     15  C   UNL d   1      32.957  22.836 -22.855  0.00  0.00     0.000 A 
ENDROOT
BRANCH   1  16
ATOM     16  C   UNL d   1      33.241  19.375 -23.864  0.00  0.00     0.113 C 
BRANCH  16  17
ATOM     17  C   UNL d   1      32.769  18.703 -23.787  0.00  0.00     0.145 C 
BRANCH  17  18
ATOM     18  O   UNL d   1      32.244  18.510 -24.375  0.00  0.00    -0.269 OA
BRANCH  18  19
ATOM     19  C   UNL d   1      32.192  17.740 -24.633  0.00  0.00     0.300 C 
ATOM     20  O   UNL d   1      32.867  17.316 -24.833  0.00  0.00    -0.259 OA
BRANCH  19  21
ATOM     21  C   UNL d   1      31.455  17.379 -24.694  0.00  0.00     0.064 A 
ATOM     22  C   UNL d   1      31.413  16.570 -24.834  0.00  0.00     0.006 A 
ATOM     23  C   UNL d   1      30.657  16.199 -24.897  0.00  0.00     0.012 A 
ATOM     24  C   UNL d   1      29.973  16.652 -24.817  0.00  0.00     0.058 A 
ATOM     25  C   UNL d   1      30.024  17.454 -24.678  0.00  0.00     0.012 A 
ATOM     26 CL   UNL d   1      29.246  16.295 -24.878  0.00  0.00    -0.082 Cl
ATOM     27  C   UNL d   1      30.756  17.813 -24.617  0.00  0.00     0.006 A 
ENDBRANCH  19  21
ENDBRANCH  18  19
ENDBRANCH  17  18
ENDBRANCH  16  17
ENDBRANCH   1  16
BRANCH   8  28
ATOM     28  N   UNL d   1      32.673  22.388 -20.413  0.00  0.00    -0.300 N 
ATOM     29  C   UNL d   1      33.211  22.501 -19.810  0.00  0.00     0.107 A 
ATOM     30  C   UNL d   1      33.118  23.124 -19.290  0.00  0.00     0.142 A 
ATOM     31  O   UNL d   1      32.486  23.634 -19.371  0.00  0.00    -0.300 OA
ATOM     32  C   UNL d   1      31.939  23.523 -19.979  0.00  0.00     0.142 A 
ATOM     33  C   UNL d   1      32.032  22.901 -20.500  0.00  0.00     0.107 A 
ENDBRANCH   8  28
TORSDOF 6
ENDMDL
MODEL 3
REMARK VINA RESULT:       0.6      2.286      6.321
REMARK  6 active torsions:
REMARK  status: ('A' for Active; 'I' for Inactive)
REMARK    1  A    between atoms: C_17  and  N_1 
REMARK    2  A    between atoms: N_9  and  C_8 
REMARK    3  A    between atoms: C_11  and  O_21 
REMARK    4  A    between atoms: C_15  and  C_11 
REMARK    5  A    between atoms: C_30  and  C_17 
REMARK    6  A    between atoms: O_21  and  C_30 
ROOT
ATOM      1  N   UNL d   1      33.095  20.809 -21.869  0.00  0.00    -0.238 N 
ATOM      2  C   UNL d   1      33.104  20.531 -21.095  0.00  0.00     0.267 A 
ATOM      3  C   UNL d   1      32.971  21.606 -22.034  0.00  0.00     0.267 A 
ATOM      4  C   UNL d   1      32.983  21.072 -20.458  0.00  0.00     0.057 A 
ATOM      5  C   UNL d   1      32.858  21.872 -20.620  0.00  0.00     0.011 A 
ATOM      6  C   UNL d   1      32.853  22.133 -21.414  0.00  0.00     0.057 A 
ATOM      7  C   UNL d   1      32.742  22.392 -20.008  0.00  0.00     0.016 A 
ATOM      8  C   UNL d   1      32.749  22.120 -19.226  0.00  0.00     0.064 A 
ATOM      9  C   UNL d   1      32.990  20.805 -19.688  0.00  0.00     0.006 A 
ATOM     10  C   UNL d   1      32.874  21.325 -19.075  0.00  0.00     0.018 A 
ATOM     11  O   UNL d   1      32.958  21.920 -22.839  0.00  0.00    -0.267 OA
ATOM     12  O   UNL d   1      33.230  19.726 -20.957  0.00  0.00    -0.267 OA
ATOM     13  C   UNL d   1      32.728  22.941 -21.589  0.00  0.00     0.005 A 
ATOM     14  C   UNL d   1      32.617  23.195 -20.165  0.00  0.00     0.002 A 
ATOM     15  C   UNL d   1      32.608  23.479 -20.957  0.00  0.00     0.000 A 
ENDROOT
BRANCH   1  16
ATOM     16  C   UNL d   1      33.216  20.268 -22.506  0.00  0.00     0.113 C 
BRANCH  16  17
ATOM     17  C   UNL d   1      32.587  19.804 -22.773  0.00  0.00     0.145 C 
BRANCH  17  18
ATOM     18  O   UNL d   1      32.710  19.019 -22.942  0.00  0.00    -0.269 OA
BRANCH  18  19
ATOM     19  C   UNL d   1      32.540  18.736 -23.684  0.00  0.00     0.300 C 
ATOM     20  O   UNL d   1      32.541  19.234 -24.337  0.00  0.00    -0.259 OA
BRANCH  19  21
ATOM     21  C   UNL d   1      32.363  17.938 -23.786  0.00  0.00     0.064 A 
ATOM     22  C   UNL d   1      31.589  17.681 -23.686  0.00  0.00     0.006 A 
ATOM     23  C   UNL d   1      31.408  16.862 -23.791  0.00  0.00     0.012 A 
ATOM     24  C   UNL d   1      32.008  16.334 -23.990  0.00  0.00     0.058 A 
ATOM     25  C   UNL d   1      32.774  16.598 -24.086  0.00  0.00     0.012 A 
ATOM     26 CL   UNL d   1      31.834  15.547 -24.090  0.00  0.00    -0.082 Cl
ATOM     27  C   UNL d   1      32.949  17.390 -23.986  0.00  0.00     0.006 A 
ENDBRANCH  19  21
ENDBRANCH  18  19
ENDBRANCH  17  18
ENDBRANCH  16  17
ENDBRANCH   1  16
BRANCH   8  28
ATOM     28  N   UNL d   1      32.630  22.654 -18.598  0.00  0.00    -0.300 N 
ATOM     29  C   UNL d   1      31.914  23.036 -18.516  0.00  0.00     0.107 A 
ATOM     30  C   UNL d   1      31.797  23.560 -17.900  0.00  0.00     0.142 A 
ATOM     31  O   UNL d   1      32.396  23.702 -17.365  0.00  0.00    -0.300 OA
ATOM     32  C   UNL d   1      33.123  23.318 -17.443  0.00  0.00     0.142 A 
ATOM     33  C   UNL d   1      33.240  22.795 -18.059  0.00  0.00     0.107 A 
ENDBRANCH   8  28
TORSDOF 6
ENDMDL
