MODEL 1
REMARK VINA RESULT:       6.0      0.000      0.000
REMARK  5 active torsions:
REMARK  status: ('A' for Active; 'I' for Inactive)
REMARK    1  A    between atoms: C_23  and  N_10 
REMARK    2  A    between atoms: C_14  and  N_13 
REMARK    3  A    between atoms: N_15  and  C_28 
REMARK    4  A    between atoms: C_27  and  C_23 
REMARK    5  A    between atoms: C_28  and  C_27 
ROOT
ATOM      1  C   UNL d   1      58.786  -9.367  33.143  0.00  0.00     0.173 A 
ATOM      2  C   UNL d   1      59.431  -9.494  32.676  0.00  0.00     0.191 A 
ATOM      3  C   UNL d   1      58.600  -9.577  31.518  0.00  0.00     0.722 A 
ATOM      4  N   UNL d   1      57.931  -9.448  31.989  0.00  0.00    -0.131 N 
ATOM      5  N   UNL d   1      59.350  -9.600  31.862  0.00  0.00    -0.042 NA
ATOM      6  N   UNL d   1      60.182  -9.519  33.004  0.00  0.00    -0.240 N 
ATOM      7  N   UNL d   1      59.565  -9.278  34.308  0.00  0.00    -0.223 N 
ATOM      8  C   UNL d   1      60.254  -9.411  33.824  0.00  0.00     0.343 A 
ATOM      9  C   UNL d   1      58.825  -9.257  33.959  0.00  0.00     0.288 A 
ATOM     10  N   UNL d   1      58.519  -9.684  30.704  0.00  0.00    -0.139 N 
ATOM     11  C   UNL d   1      57.093  -9.532  30.822  0.00  0.00     0.116 A 
ATOM     12  C   UNL d   1      57.763  -9.661  30.351  0.00  0.00     0.100 A 
ATOM     13  O   UNL d   1      61.047  -9.441  34.151  0.00  0.00    -0.245 OA
ATOM     14  O   UNL d   1      58.156  -9.127  34.429  0.00  0.00    -0.265 OA
ATOM     15  C   UNL d   1      60.852  -9.649  32.533  0.00  0.00     0.105 C 
ATOM     16  C   UNL d   1      59.646  -9.171  35.122  0.00  0.00     0.107 C 
ATOM     17  C   UNL d   1      57.708  -9.771  29.533  0.00  0.00     0.021 C 
ENDROOT
BRANCH  10  18
ATOM     18  C   UNL d   1      59.184  -9.814  30.228  0.00  0.00     0.100 C 
BRANCH  18  19
ATOM     19  C   UNL d   1      59.204  -9.541  29.443  0.00  0.00     0.039 C 
BRANCH  19  20
ATOM     20  C   UNL d   1      59.895  -9.235  29.131  0.00  0.00     0.082 C 
BRANCH  20  21
ATOM     21  N   UNL d   1      59.975  -8.422  29.020  0.00  0.00    -0.300 N 
ATOM     22  C   UNL d   1      60.703  -8.060  29.165  0.00  0.00     0.100 A 
ATOM     23  C   UNL d   1      60.778  -7.243  29.052  0.00  0.00     0.100 A 
ATOM     24  N   UNL d   1      60.139  -6.796  28.797  0.00  0.00    -0.301 N 
ATOM     25  C   UNL d   1      59.412  -7.162  28.653  0.00  0.00     0.100 A 
ATOM     26  C   UNL d   1      59.330  -7.971  28.763  0.00  0.00     0.100 A 
BRANCH  24  27
ATOM     27  C   UNL d   1      60.220  -5.982  28.686  0.00  0.00     0.065 A 
ATOM     28  C   UNL d   1      59.560  -5.501  28.676  0.00  0.00     0.029 A 
ATOM     29  C   UNL d   1      59.638  -4.698  28.567  0.00  0.00     0.059 A 
ATOM     30 CL   UNL d   1      58.964  -4.206  28.557  0.00  0.00    -0.082 Cl
ATOM     31  C   UNL d   1      60.391  -4.366  28.464  0.00  0.00     0.011 A 
ATOM     32  C   UNL d   1      61.060  -4.848  28.473  0.00  0.00     0.002 A 
ATOM     33  C   UNL d   1      60.978  -5.661  28.584  0.00  0.00     0.018 A 
ENDBRANCH  24  27
ENDBRANCH  20  21
ENDBRANCH  19  20
ENDBRANCH  18  19
ENDBRANCH  10  18
TORSDOF 5
ENDMDL
