MODEL 1
REMARK VINA RESULT:      -2.5      0.000      0.000
REMARK  8 active torsions:
REMARK  status: ('A' for Active; 'I' for Inactive)
REMARK    1  A    between atoms: C_14  and  C_1 
REMARK    2  A    between atoms: C_6  and  C_2 
REMARK    3  A    between atoms: C_19  and  C_4 
REMARK       I    between atoms: N_13  and  C_6 
REMARK    4  A    between atoms: C_7  and  S_18 
REMARK    5  A    between atoms: C_26  and  N_13 
REMARK    6  A    between atoms: C_22  and  C_14 
REMARK    7  A    between atoms: S_18  and  C_22 
REMARK    8  A    between atoms: O_31  and  C_27 
ROOT
ATOM      1  C   UNL d   1      32.918  20.452 -22.104  0.00  0.00     0.076 A 
ATOM      2  C   UNL d   1      33.068  19.913 -23.398  0.00  0.00     0.092 A 
ATOM      3  C   UNL d   1      33.002  20.560 -22.911  0.00  0.00     0.018 A 
ATOM      4  C   UNL d   1      33.050  19.155 -23.084  0.00  0.00     0.120 A 
ATOM      5  N   UNL d   1      32.967  19.044 -22.283  0.00  0.00    -0.238 NA
ATOM      6  C   UNL d   1      32.900  19.694 -21.790  0.00  0.00     0.087 A 
ATOM      7  C   UNL d   1      33.152  20.021 -24.205  0.00  0.00     0.103 C 
ATOM      8  N   UNL d   1      33.235  20.126 -24.999  0.00  0.00    -0.191 NA
ATOM      9  C   UNL d   1      32.819  19.602 -21.017  0.00  0.00     0.021 C 
ENDROOT
BRANCH   4  10
ATOM     10  S   UNL d   1      33.117  18.504 -23.577  0.00  0.00    -0.063 SA
BRANCH  10  11
ATOM     11  C   UNL d   1      32.743  17.805 -23.387  0.00  0.00     0.079 C 
BRANCH  11  12
ATOM     12  C   UNL d   1      32.501  17.296 -23.973  0.00  0.00     0.207 C 
ATOM     13  O   UNL d   1      32.939  17.265 -24.722  0.00  0.00    -0.286 OA
BRANCH  12  14
ATOM     14  C   UNL d   1      31.920  16.779 -24.043  0.00  0.00     0.103 A 
ATOM     15  C   UNL d   1      31.877  15.971 -24.048  0.00  0.00     0.303 A 
ATOM     16  O   UNL d   1      31.155  15.612 -24.135  0.00  0.00    -0.273 OA
ATOM     17  O   UNL d   1      32.572  15.468 -23.965  0.00  0.00    -0.259 OA
ATOM     18  C   UNL d   1      30.476  16.061 -24.216  0.00  0.00     0.103 A 
ATOM     19  C   UNL d   1      30.515  16.868 -24.211  0.00  0.00     0.023 A 
ATOM     20  C   UNL d   1      29.733  15.677 -24.305  0.00  0.00     0.025 A 
ATOM     21  C   UNL d   1      31.246  17.234 -24.123  0.00  0.00     0.011 A 
ATOM     22  C   UNL d   1      29.822  17.334 -24.293  0.00  0.00     0.002 A 
ATOM     23  C   UNL d   1      29.086  16.967 -24.382  0.00  0.00     0.000 A 
ATOM     24  C   UNL d   1      29.044  16.129 -24.387  0.00  0.00     0.002 A 
ENDBRANCH  12  14
ENDBRANCH  11  12
ENDBRANCH  10  11
ENDBRANCH   4  10
BRANCH   3  25
ATOM     25  C   UNL d   1      33.019  21.316 -23.223  0.00  0.00     0.001 A 
ATOM     26  C   UNL d   1      32.842  21.442 -24.020  0.00  0.00     0.002 A 
ATOM     27  C   UNL d   1      32.860  22.207 -24.337  0.00  0.00     0.024 A 
ATOM     28  C   UNL d   1      33.055  22.846 -23.857  0.00  0.00     0.094 A 
ATOM     29  C   UNL d   1      33.233  22.727 -23.061  0.00  0.00     0.024 A 
ATOM     30  C   UNL d   1      33.215  21.961 -22.744  0.00  0.00     0.002 A 
BRANCH  28  31
ATOM     31  O   UNL d   1      33.065  23.584 -24.190  0.00  0.00    -0.328 OA
ATOM     32  C   UNL d   1      32.858  23.629 -25.082  0.00  0.00     0.181 C 
ENDBRANCH  28  31
ENDBRANCH   3  25
BRANCH   1  33
ATOM     33  C   UNL d   1      32.827  21.233 -21.411  0.00  0.00     0.281 C 
ATOM     34  N   UNL d   1      33.212  21.868 -21.172  0.00  0.00    -0.208 NA
ATOM     35  O   UNL d   1      32.069  21.265 -20.850  0.00  0.00    -0.265 OA
BRANCH  34  36
ATOM     36  C   UNL d   1      32.883  22.318 -20.577  0.00  0.00     0.085 A 
ATOM     37  C   UNL d   1      33.197  22.269 -19.815  0.00  0.00     0.019 A 
ATOM     38  C   UNL d   1      32.871  22.723 -19.199  0.00  0.00     0.002 A 
ATOM     39  C   UNL d   1      32.225  23.229 -19.357  0.00  0.00     0.000 A 
ATOM     40  C   UNL d   1      31.907  23.278 -20.130  0.00  0.00     0.002 A 
ATOM     41  C   UNL d   1      32.245  22.817 -20.736  0.00  0.00     0.019 A 
ENDBRANCH  34  36
ENDBRANCH   1  33
TORSDOF 8
ENDMDL
