MODEL 1
REMARK VINA RESULT:      26.4      0.000      0.000
REMARK  3 active torsions:
REMARK  status: ('A' for Active; 'I' for Inactive)
REMARK    1  A    between atoms: S_9  and  C_3 
REMARK    2  A    between atoms: C_12  and  S_9 
REMARK    3  A    between atoms: C_14  and  C_12 
ROOT
ATOM      1  C   UNL d   1      44.970 -14.910  44.672  0.00  0.00     0.155 A 
ATOM      2  C   UNL d   1      45.769 -14.781  44.490  0.00  0.00     0.107 A 
ATOM      3  C   UNL d   1      45.930 -16.176  44.229  0.00  0.00     0.182 A 
ATOM      4  N   UNL d   1      45.140 -16.307  44.409  0.00  0.00    -0.250 N 
ATOM      5  N   UNL d   1      46.252 -15.419  44.267  0.00  0.00    -0.220 NA
ATOM      6  C   UNL d   1      44.657 -15.669  44.632  0.00  0.00     0.285 A 
ATOM      7  N   UNL d   1      44.632 -14.185  44.873  0.00  0.00    -0.239 NA
ATOM      8  C   UNL d   1      45.929 -13.978  44.576  0.00  0.00     0.037 A 
ATOM      9  C   UNL d   1      45.222 -13.603  44.815  0.00  0.00     0.083 A 
ATOM     10  O   UNL d   1      43.857 -15.807  44.813  0.00  0.00    -0.265 OA
ATOM     11  C   UNL d   1      44.825 -17.075  44.368  0.00  0.00     0.104 C 
ATOM     12  C   UNL d   1      46.614 -13.532  44.473  0.00  0.00     0.003 A 
ATOM     13  C   UNL d   1      45.209 -12.784  44.947  0.00  0.00     0.019 A 
ATOM     14  C   UNL d   1      46.601 -12.714  44.605  0.00  0.00     0.000 A 
ATOM     15  C   UNL d   1      45.902 -12.345  44.841  0.00  0.00     0.002 A 
ENDROOT
BRANCH   3  16
ATOM     16  S   UNL d   1      46.409 -16.814  44.007  0.00  0.00    -0.050 SA
BRANCH  16  17
ATOM     17  C   UNL d   1      46.203 -17.586  44.220  0.00  0.00     0.032 C 
ATOM     18  C   UNL d   1      45.858 -17.734  44.954  0.00  0.00     0.007 C 
BRANCH  17  19
ATOM     19  C   UNL d   1      46.349 -18.197  43.686  0.00  0.00     0.006 A 
ATOM     20  C   UNL d   1      46.385 -18.971  43.956  0.00  0.00     0.001 A 
ATOM     21  C   UNL d   1      46.531 -19.599  43.430  0.00  0.00     0.000 A 
ATOM     22  C   UNL d   1      46.641 -19.437  42.632  0.00  0.00     0.000 A 
ATOM     23  C   UNL d   1      46.608 -18.666  42.352  0.00  0.00     0.000 A 
ATOM     24  C   UNL d   1      46.461 -18.044  42.883  0.00  0.00     0.001 A 
ENDBRANCH  17  19
ENDBRANCH  16  17
ENDBRANCH   3  16
TORSDOF 3
ENDMDL
