MODEL 1
REMARK VINA RESULT:      40.2      0.000      0.000
REMARK  2 active torsions:
REMARK  status: ('A' for Active; 'I' for Inactive)
REMARK    1  A    between atoms: C_8  and  N_2 
REMARK    2  A    between atoms: N_7  and  C_4 
ROOT
ATOM      1  C   UNL d   1      13.907  14.052  -3.413  0.00  0.00     0.358 A 
ATOM      2  N   UNL d   1      13.852  13.228  -3.451  0.00  0.00    -0.226 N 
ATOM      3  N   UNL d   1      14.178  14.413  -2.730  0.00  0.00    -0.174 NA
ATOM      4  C   UNL d   1      14.397  13.959  -2.080  0.00  0.00     0.158 A 
ATOM      5  C   UNL d   1      14.069  12.766  -2.805  0.00  0.00     0.271 A 
ATOM      6  C   UNL d   1      14.342  13.135  -2.118  0.00  0.00     0.099 A 
ATOM      7  O   UNL d   1      13.687  14.511  -4.068  0.00  0.00    -0.244 OA
ATOM      8  O   UNL d   1      14.014  11.941  -2.843  0.00  0.00    -0.266 OA
ENDROOT
BRANCH   2   9
ATOM      9  C   UNL d   1      13.579  12.863  -4.138  0.00  0.00     0.071 A 
ATOM     10  C   UNL d   1      13.838  13.128  -4.876  0.00  0.00     0.019 A 
ATOM     11  C   UNL d   1      13.570  12.769  -5.563  0.00  0.00     0.013 A 
ATOM     12  C   UNL d   1      13.037  12.139  -5.513  0.00  0.00     0.058 A 
ATOM     13  C   UNL d   1      12.783  11.880  -4.778  0.00  0.00     0.013 A 
ATOM     14 CL   UNL d   1      12.769  11.780  -6.197  0.00  0.00    -0.082 Cl
ATOM     15  C   UNL d   1      13.051  12.238  -4.089  0.00  0.00     0.019 A 
ENDBRANCH   2   9
BRANCH   4  16
ATOM     16  N   UNL d   1      14.670  14.320  -1.393  0.00  0.00    -0.285 N 
ATOM     17  C   UNL d   1      14.862  15.124  -1.408  0.00  0.00     0.108 A 
ATOM     18  C   UNL d   1      15.135  15.489  -0.720  0.00  0.00     0.142 A 
ATOM     19  O   UNL d   1      15.218  15.050  -0.014  0.00  0.00    -0.300 OA
ATOM     20  C   UNL d   1      15.022  14.250  -0.019  0.00  0.00     0.142 A 
ATOM     21  C   UNL d   1      14.749  13.886  -0.706  0.00  0.00     0.108 A 
ENDBRANCH   4  16
TORSDOF 2
ENDMDL
