MODEL 1
REMARK VINA RESULT:      -9.3      0.000      0.000
REMARK  5 active torsions:
REMARK  status: ('A' for Active; 'I' for Inactive)
REMARK    1  A    between atoms: C_3  and  C_1 
REMARK    2  A    between atoms: N_2  and  C_10 
REMARK    3  A    between atoms: N_6  and  C_3 
REMARK    4  A    between atoms: C_11  and  C_5 
REMARK    5  A    between atoms: C_20  and  N_7 
ROOT
ATOM      1  C   UNL d   1      53.118  32.981  53.679  0.00  0.00     0.126 A 
ATOM      2  O   UNL d   1      52.712  32.265  53.623  0.00  0.00    -0.305 OA
ATOM      3  C   UNL d   1      53.269  31.657  53.525  0.00  0.00     0.100 A 
ATOM      4  C   UNL d   1      53.925  32.817  53.616  0.00  0.00     0.029 A 
ATOM      5  C   UNL d   1      54.024  32.008  53.521  0.00  0.00     0.027 A 
ENDROOT
BRANCH   1   6
ATOM      6  C   UNL d   1      52.770  33.764  53.785  0.00  0.00     0.143 C 
ATOM      7  S   UNL d   1      53.145  34.313  54.273  0.00  0.00    -0.057 SA
BRANCH   6   8
ATOM      8  N   UNL d   1      52.049  33.944  53.383  0.00  0.00    -0.291 N 
ATOM      9  C   UNL d   1      51.317  33.804  53.725  0.00  0.00     0.100 A 
ATOM     10  C   UNL d   1      50.638  33.988  53.312  0.00  0.00     0.100 A 
ATOM     11  N   UNL d   1      50.656  34.308  52.570  0.00  0.00    -0.301 N 
ATOM     12  C   UNL d   1      51.398  34.460  52.200  0.00  0.00     0.100 A 
ATOM     13  C   UNL d   1      52.098  34.276  52.612  0.00  0.00     0.100 A 
BRANCH  11  14
ATOM     14  C   UNL d   1      49.952  34.487  52.169  0.00  0.00     0.064 A 
ATOM     15  C   UNL d   1      49.378  34.923  52.552  0.00  0.00     0.018 A 
ATOM     16  C   UNL d   1      48.669  35.115  52.177  0.00  0.00     0.002 A 
ATOM     17  C   UNL d   1      48.541  34.863  51.407  0.00  0.00     0.000 A 
ATOM     18  C   UNL d   1      49.121  34.419  51.011  0.00  0.00     0.002 A 
ATOM     19  C   UNL d   1      49.823  34.235  51.399  0.00  0.00     0.018 A 
ENDBRANCH  11  14
ENDBRANCH   6   8
ENDBRANCH   1   6
BRANCH   3  20
ATOM     20  C   UNL d   1      53.187  30.836  53.439  0.00  0.00     0.024 A 
ATOM     21  C   UNL d   1      53.288  30.335  54.094  0.00  0.00     0.025 A 
ATOM     22  C   UNL d   1      53.206  29.519  54.008  0.00  0.00     0.127 A 
ATOM     23  C   UNL d   1      53.021  29.185  53.266  0.00  0.00     0.024 A 
ATOM     24  C   UNL d   1      52.922  29.693  52.620  0.00  0.00     0.002 A 
ATOM     25  C   UNL d   1      53.004  30.509  52.706  0.00  0.00     0.002 A 
BRANCH  22  26
ATOM     26  N   UNL d   1      53.307  29.039  54.656  0.00  0.00    -0.114 N 
ATOM     27  O   UNL d   1      53.043  29.206  55.440  0.00  0.00    -0.532 OA
ATOM     28  O   UNL d   1      53.692  28.308  54.622  0.00  0.00    -0.532 OA
ENDBRANCH  22  26
ENDBRANCH   3  20
TORSDOF 5
ENDMDL
MODEL 2
REMARK VINA RESULT:      -7.7      2.244      5.787
REMARK  5 active torsions:
REMARK  status: ('A' for Active; 'I' for Inactive)
REMARK    1  A    between atoms: C_3  and  C_1 
REMARK    2  A    between atoms: N_2  and  C_10 
REMARK    3  A    between atoms: N_6  and  C_3 
REMARK    4  A    between atoms: C_11  and  C_5 
REMARK    5  A    between atoms: C_20  and  N_7 
ROOT
ATOM      1  C   UNL d   1      51.185  34.361  52.889  0.00  0.00     0.126 A 
ATOM      2  O   UNL d   1      50.770  34.447  52.181  0.00  0.00    -0.305 OA
ATOM      3  C   UNL d   1      49.974  34.595  52.363  0.00  0.00     0.100 A 
ATOM      4  C   UNL d   1      50.648  34.456  53.509  0.00  0.00     0.029 A 
ATOM      5  C   UNL d   1      49.903  34.599  53.193  0.00  0.00     0.027 A 
ENDROOT
BRANCH   1   6
ATOM      6  C   UNL d   1      52.029  34.201  52.975  0.00  0.00     0.143 C 
ATOM      7  S   UNL d   1      52.566  34.828  52.961  0.00  0.00    -0.057 SA
BRANCH   6   8
ATOM      8  N   UNL d   1      52.282  33.401  53.070  0.00  0.00    -0.291 N 
ATOM      9  C   UNL d   1      52.285  32.871  52.445  0.00  0.00     0.100 A 
ATOM     10  C   UNL d   1      52.535  32.104  52.567  0.00  0.00     0.100 A 
ATOM     11  N   UNL d   1      52.784  31.840  53.289  0.00  0.00    -0.301 N 
ATOM     12  C   UNL d   1      52.789  32.369  53.947  0.00  0.00     0.100 A 
ATOM     13  C   UNL d   1      52.536  33.154  53.833  0.00  0.00     0.100 A 
BRANCH  11  14
ATOM     14  C   UNL d   1      53.033  31.055  53.390  0.00  0.00     0.064 A 
ATOM     15  C   UNL d   1      52.491  30.452  53.302  0.00  0.00     0.018 A 
ATOM     16  C   UNL d   1      52.712  29.664  53.397  0.00  0.00     0.002 A 
ATOM     17  C   UNL d   1      53.492  29.485  53.583  0.00  0.00     0.000 A 
ATOM     18  C   UNL d   1      54.049  30.095  53.674  0.00  0.00     0.002 A 
ATOM     19  C   UNL d   1      53.813  30.876  53.576  0.00  0.00     0.018 A 
ENDBRANCH  11  14
ENDBRANCH   6   8
ENDBRANCH   1   6
BRANCH   3  20
ATOM     20  C   UNL d   1      49.309  34.726  51.884  0.00  0.00     0.024 A 
ATOM     21  C   UNL d   1      48.697  35.223  52.146  0.00  0.00     0.025 A 
ATOM     22  C   UNL d   1      48.036  35.353  51.670  0.00  0.00     0.127 A 
ATOM     23  C   UNL d   1      47.972  34.988  50.922  0.00  0.00     0.024 A 
ATOM     24  C   UNL d   1      48.587  34.495  50.672  0.00  0.00     0.002 A 
ATOM     25  C   UNL d   1      49.248  34.365  51.148  0.00  0.00     0.002 A 
BRANCH  22  26
ATOM     26  N   UNL d   1      47.444  35.841  51.936  0.00  0.00    -0.114 N 
ATOM     27  O   UNL d   1      47.523  36.663  52.109  0.00  0.00    -0.532 OA
ATOM     28  O   UNL d   1      46.670  35.582  52.073  0.00  0.00    -0.532 OA
ENDBRANCH  22  26
ENDBRANCH   3  20
TORSDOF 5
ENDMDL
MODEL 3
REMARK VINA RESULT:      -7.0      3.106      6.391
REMARK  5 active torsions:
REMARK  status: ('A' for Active; 'I' for Inactive)
REMARK    1  A    between atoms: C_3  and  C_1 
REMARK    2  A    between atoms: N_2  and  C_10 
REMARK    3  A    between atoms: N_6  and  C_3 
REMARK    4  A    between atoms: C_11  and  C_5 
REMARK    5  A    between atoms: C_20  and  N_7 
ROOT
ATOM      1  C   UNL d   1      50.026  34.682  52.628  0.00  0.00     0.126 A 
ATOM      2  O   UNL d   1      49.376  35.009  52.238  0.00  0.00    -0.305 OA
ATOM      3  C   UNL d   1      48.872  35.341  52.807  0.00  0.00     0.100 A 
ATOM      4  C   UNL d   1      49.925  34.811  53.437  0.00  0.00     0.029 A 
ATOM      5  C   UNL d   1      49.220  35.215  53.554  0.00  0.00     0.027 A 
ENDROOT
BRANCH   1   6
ATOM      6  C   UNL d   1      50.695  34.276  52.263  0.00  0.00     0.143 C 
ATOM      7  S   UNL d   1      50.650  34.047  51.471  0.00  0.00    -0.057 SA
BRANCH   6   8
ATOM      8  N   UNL d   1      51.381  34.124  52.731  0.00  0.00    -0.291 N 
ATOM      9  C   UNL d   1      51.959  34.693  52.848  0.00  0.00     0.100 A 
ATOM     10  C   UNL d   1      52.612  34.517  53.306  0.00  0.00     0.100 A 
ATOM     11  N   UNL d   1      52.714  33.795  53.654  0.00  0.00    -0.301 N 
ATOM     12  C   UNL d   1      52.132  33.195  53.547  0.00  0.00     0.100 A 
ATOM     13  C   UNL d   1      51.462  33.363  53.082  0.00  0.00     0.100 A 
BRANCH  11  14
ATOM     14  C   UNL d   1      53.386  33.639  54.115  0.00  0.00     0.064 A 
ATOM     15  C   UNL d   1      53.964  33.147  53.820  0.00  0.00     0.018 A 
ATOM     16  C   UNL d   1      54.642  32.975  54.257  0.00  0.00     0.002 A 
ATOM     17  C   UNL d   1      54.733  33.306  55.002  0.00  0.00     0.000 A 
ATOM     18  C   UNL d   1      54.148  33.809  55.310  0.00  0.00     0.002 A 
ATOM     19  C   UNL d   1      53.477  33.971  54.861  0.00  0.00     0.018 A 
ENDBRANCH  11  14
ENDBRANCH   6   8
ENDBRANCH   1   6
BRANCH   3  20
ATOM     20  C   UNL d   1      48.147  35.740  52.743  0.00  0.00     0.024 A 
ATOM     21  C   UNL d   1      47.628  35.564  52.119  0.00  0.00     0.025 A 
ATOM     22  C   UNL d   1      46.908  35.960  52.055  0.00  0.00     0.127 A 
ATOM     23  C   UNL d   1      46.690  36.541  52.613  0.00  0.00     0.024 A 
ATOM     24  C   UNL d   1      47.215  36.708  53.230  0.00  0.00     0.002 A 
ATOM     25  C   UNL d   1      47.935  36.312  53.294  0.00  0.00     0.002 A 
BRANCH  22  26
ATOM     26  N   UNL d   1      46.407  35.779  51.440  0.00  0.00    -0.114 N 
ATOM     27  O   UNL d   1      46.419  35.067  50.988  0.00  0.00    -0.532 OA
ATOM     28  O   UNL d   1      45.811  36.288  51.177  0.00  0.00    -0.532 OA
ENDBRANCH  22  26
ENDBRANCH   3  20
TORSDOF 5
ENDMDL
