MODEL 1
REMARK VINA RESULT:      -5.6      0.000      0.000
REMARK  5 active torsions:
REMARK  status: ('A' for Active; 'I' for Inactive)
REMARK    1  A    between atoms: C_6  and  N_2 
REMARK    2  A    between atoms: C_7  and  C_6 
REMARK    3  A    between atoms: C_8  and  C_7 
REMARK       I    between atoms: N_10  and  C_8 
REMARK    4  A    between atoms: C_12  and  N_10 
REMARK    5  A    between atoms: C_13  and  C_12 
ROOT
ATOM      1  C   UNL d   1     -41.836-122.193 -52.786  0.00  0.00     0.088 C 
ENDROOT
BRANCH   1   2
ATOM      2  N   UNL d   1     -41.729-122.573 -53.509  0.00  0.00    -0.268 N 
ATOM      3  C   UNL d   1     -41.402-123.318 -53.621  0.00  0.00     0.296 A 
ATOM      4  S   UNL d   1     -41.412-123.464 -54.465  0.00  0.00    -0.025 SA
ATOM      5  O   UNL d   1     -41.122-123.817 -53.028  0.00  0.00    -0.259 OA
ATOM      6  C   UNL d   1     -41.732-122.828 -54.816  0.00  0.00     0.050 A 
ATOM      7  C   UNL d   1     -41.874-122.675 -55.619  0.00  0.00     0.008 A 
ATOM      8  C   UNL d   1     -41.935-122.267 -54.247  0.00  0.00     0.073 A 
ATOM      9  C   UNL d   1     -42.220-121.957 -55.849  0.00  0.00     0.001 A 
ATOM     10  C   UNL d   1     -42.419-121.403 -55.271  0.00  0.00     0.002 A 
ATOM     11  C   UNL d   1     -42.275-121.559 -54.473  0.00  0.00     0.018 A 
ENDBRANCH   1   2
BRANCH   1  12
ATOM     12  C   UNL d   1     -41.342-122.363 -52.153  0.00  0.00     0.082 C 
BRANCH  12  13
ATOM     13  C   UNL d   1     -41.512-122.074 -51.400  0.00  0.00     0.281 C 
ATOM     14  N   UNL d   1     -41.859-122.558 -50.834  0.00  0.00    -0.206 NA
ATOM     15  O   UNL d   1     -41.332-121.290 -51.213  0.00  0.00    -0.265 OA
BRANCH  14  16
ATOM     16  C   UNL d   1     -42.026-122.267 -50.087  0.00  0.00     0.102 C 
BRANCH  16  17
ATOM     17  C   UNL d   1     -42.302-122.776 -49.504  0.00  0.00     0.019 A 
ATOM     18  C   UNL d   1     -41.830-122.946 -48.838  0.00  0.00     0.002 A 
ATOM     19  C   UNL d   1     -42.117-123.462 -48.253  0.00  0.00     0.000 A 
ATOM     20  C   UNL d   1     -42.860-123.806 -48.325  0.00  0.00     0.000 A 
ATOM     21  C   UNL d   1     -43.332-123.637 -48.991  0.00  0.00     0.000 A 
ATOM     22  C   UNL d   1     -43.059-123.125 -49.581  0.00  0.00     0.002 A 
ENDBRANCH  16  17
ENDBRANCH  14  16
ENDBRANCH  12  13
ENDBRANCH   1  12
TORSDOF 5
ENDMDL
MODEL 2
REMARK VINA RESULT:      -3.7      1.291      5.159
REMARK  5 active torsions:
REMARK  status: ('A' for Active; 'I' for Inactive)
REMARK    1  A    between atoms: C_6  and  N_2 
REMARK    2  A    between atoms: C_7  and  C_6 
REMARK    3  A    between atoms: C_8  and  C_7 
REMARK       I    between atoms: N_10  and  C_8 
REMARK    4  A    between atoms: C_12  and  N_10 
REMARK    5  A    between atoms: C_13  and  C_12 
ROOT
ATOM      1  C   UNL d   1     -42.090-122.639 -51.296  0.00  0.00     0.088 C 
ENDROOT
BRANCH   1   2
ATOM      2  N   UNL d   1     -42.062-122.477 -50.489  0.00  0.00    -0.268 N 
ATOM      3  C   UNL d   1     -41.618-121.887 -50.129  0.00  0.00     0.296 A 
ATOM      4  S   UNL d   1     -41.776-121.943 -49.288  0.00  0.00    -0.025 SA
ATOM      5  O   UNL d   1     -41.122-121.352 -50.513  0.00  0.00    -0.259 OA
ATOM      6  C   UNL d   1     -42.287-122.539 -49.178  0.00  0.00     0.050 A 
ATOM      7  C   UNL d   1     -42.624-122.832 -48.479  0.00  0.00     0.008 A 
ATOM      8  C   UNL d   1     -42.477-122.883 -49.903  0.00  0.00     0.073 A 
ATOM      9  C   UNL d   1     -43.152-123.472 -48.509  0.00  0.00     0.001 A 
ATOM     10  C   UNL d   1     -43.335-123.808 -49.240  0.00  0.00     0.002 A 
ATOM     11  C   UNL d   1     -42.997-123.512 -49.935  0.00  0.00     0.018 A 
ENDBRANCH   1   2
BRANCH   1  12
ATOM     12  C   UNL d   1     -41.399-122.661 -51.738  0.00  0.00     0.082 C 
BRANCH  12  13
ATOM     13  C   UNL d   1     -41.387-123.019 -52.480  0.00  0.00     0.281 C 
ATOM     14  N   UNL d   1     -41.595-122.595 -53.153  0.00  0.00    -0.206 NA
ATOM     15  O   UNL d   1     -41.165-123.811 -52.549  0.00  0.00    -0.265 OA
BRANCH  14  16
ATOM     16  C   UNL d   1     -41.583-122.954 -53.889  0.00  0.00     0.102 C 
BRANCH  16  17
ATOM     17  C   UNL d   1     -41.805-122.527 -54.554  0.00  0.00     0.019 A 
ATOM     18  C   UNL d   1     -41.246-122.349 -55.145  0.00  0.00     0.002 A 
ATOM     19  C   UNL d   1     -41.479-121.917 -55.815  0.00  0.00     0.000 A 
ATOM     20  C   UNL d   1     -42.256-121.662 -55.900  0.00  0.00     0.000 A 
ATOM     21  C   UNL d   1     -42.817-121.839 -55.309  0.00  0.00     0.000 A 
ATOM     22  C   UNL d   1     -42.598-122.270 -54.636  0.00  0.00     0.002 A 
ENDBRANCH  16  17
ENDBRANCH  14  16
ENDBRANCH  12  13
ENDBRANCH   1  12
TORSDOF 5
ENDMDL
