MODEL 1
REMARK VINA RESULT:      -8.4      0.000      0.000
REMARK  5 active torsions:
REMARK  status: ('A' for Active; 'I' for Inactive)
REMARK    1  A    between atoms: C_6  and  S_1 
REMARK    2  A    between atoms: N_7  and  S_1 
REMARK    3  A    between atoms: C_15  and  N_7 
REMARK    4  A    between atoms: O_21  and  C_16 
REMARK    5  A    between atoms: C_22  and  O_21 
ROOT
ATOM      1  S   UNL d   1      51.685  33.913  53.127  0.00  0.00     0.327 S 
ATOM      2  O   UNL d   1      51.686  34.501  52.553  0.00  0.00    -0.186 OA
ATOM      3  O   UNL d   1      50.975  33.581  53.374  0.00  0.00    -0.186 OA
ENDROOT
BRANCH   1   4
ATOM      4  C   UNL d   1      52.392  33.658  53.455  0.00  0.00     0.118 A 
ATOM      5  C   UNL d   1      52.790  34.135  53.991  0.00  0.00     0.035 A 
ATOM      6  C   UNL d   1      53.504  33.880  54.324  0.00  0.00     0.105 A 
ATOM      7  N   UNL d   1      54.020  34.228  54.866  0.00  0.00    -0.189 NA
ATOM      8  C   UNL d   1      53.817  33.140  54.114  0.00  0.00     0.104 A 
ATOM      9  C   UNL d   1      54.654  33.705  54.994  0.00  0.00     0.369 A 
ATOM     10  O   UNL d   1      55.295  33.833  55.494  0.00  0.00    -0.242 OA
ATOM     11  N   UNL d   1      54.523  33.036  54.528  0.00  0.00    -0.189 NA
ATOM     12  C   UNL d   1      53.412  32.661  53.573  0.00  0.00     0.022 A 
ATOM     13  C   UNL d   1      52.701  32.924  53.247  0.00  0.00     0.016 A 
ENDBRANCH   1   4
BRANCH   1  14
ATOM     14  N   UNL d   1      50.972  34.163  52.805  0.00  0.00    -0.317 NA
BRANCH  14  15
ATOM     15  C   UNL d   1      50.245  34.418  52.474  0.00  0.00     0.146 A 
ATOM     16  C   UNL d   1      49.728  34.877  52.934  0.00  0.00     0.035 A 
ATOM     17  C   UNL d   1      49.010  35.128  52.605  0.00  0.00     0.027 A 
ATOM     18  C   UNL d   1      48.817  34.920  51.829  0.00  0.00     0.100 A 
ATOM     19  C   UNL d   1      49.336  34.465  51.383  0.00  0.00     0.027 A 
ATOM     20  C   UNL d   1      50.051  34.215  51.709  0.00  0.00     0.035 A 
BRANCH  18  21
ATOM     21  O   UNL d   1      48.102  35.168  51.498  0.00  0.00    -0.305 OA
BRANCH  21  22
ATOM     22  C   UNL d   1      47.579  35.611  51.934  0.00  0.00     0.123 C 
ATOM     23  C   UNL d   1      46.851  35.824  51.612  0.00  0.00     0.029 C 
ENDBRANCH  21  22
ENDBRANCH  18  21
ENDBRANCH  14  15
ENDBRANCH   1  14
TORSDOF 5
ENDMDL
MODEL 2
REMARK VINA RESULT:      -7.7      1.543      5.561
REMARK  5 active torsions:
REMARK  status: ('A' for Active; 'I' for Inactive)
REMARK    1  A    between atoms: C_6  and  S_1 
REMARK    2  A    between atoms: N_7  and  S_1 
REMARK    3  A    between atoms: C_15  and  N_7 
REMARK    4  A    between atoms: O_21  and  C_16 
REMARK    5  A    between atoms: C_22  and  O_21 
ROOT
ATOM      1  S   UNL d   1      50.140  34.474  52.401  0.00  0.00     0.327 S 
ATOM      2  O   UNL d   1      50.186  34.257  53.192  0.00  0.00    -0.186 OA
ATOM      3  O   UNL d   1      50.813  34.459  51.931  0.00  0.00    -0.186 OA
ENDROOT
BRANCH   1   4
ATOM      4  C   UNL d   1      49.421  34.705  52.079  0.00  0.00     0.118 A 
ATOM      5  C   UNL d   1      48.934  35.217  52.496  0.00  0.00     0.035 A 
ATOM      6  C   UNL d   1      48.208  35.453  52.175  0.00  0.00     0.105 A 
ATOM      7  N   UNL d   1      47.612  35.950  52.454  0.00  0.00    -0.189 NA
ATOM      8  C   UNL d   1      47.975  35.170  51.429  0.00  0.00     0.104 A 
ATOM      9  C   UNL d   1      47.007  35.978  51.883  0.00  0.00     0.369 A 
ATOM     10  O   UNL d   1      46.308  36.408  51.938  0.00  0.00    -0.242 OA
ATOM     11  N   UNL d   1      47.237  35.494  51.253  0.00  0.00    -0.189 NA
ATOM     12  C   UNL d   1      48.470  34.654  51.012  0.00  0.00     0.022 A 
ATOM     13  C   UNL d   1      49.191  34.425  51.341  0.00  0.00     0.016 A 
ENDBRANCH   1   4
BRANCH   1  14
ATOM     14  N   UNL d   1      50.863  34.243  52.714  0.00  0.00    -0.317 NA
BRANCH  14  15
ATOM     15  C   UNL d   1      51.601  34.008  53.034  0.00  0.00     0.146 A 
ATOM     16  C   UNL d   1      52.155  34.588  53.251  0.00  0.00     0.035 A 
ATOM     17  C   UNL d   1      52.883  34.352  53.566  0.00  0.00     0.027 A 
ATOM     18  C   UNL d   1      53.052  33.549  53.661  0.00  0.00     0.100 A 
ATOM     19  C   UNL d   1      52.497  32.983  53.442  0.00  0.00     0.027 A 
ATOM     20  C   UNL d   1      51.771  33.216  53.128  0.00  0.00     0.035 A 
BRANCH  18  21
ATOM     21  O   UNL d   1      53.778  33.310  53.975  0.00  0.00    -0.305 OA
BRANCH  21  22
ATOM     22  C   UNL d   1      53.955  33.453  54.754  0.00  0.00     0.123 C 
ATOM     23  C   UNL d   1      54.709  33.287  55.043  0.00  0.00     0.029 C 
ENDBRANCH  21  22
ENDBRANCH  18  21
ENDBRANCH  14  15
ENDBRANCH   1  14
TORSDOF 5
ENDMDL
