MODEL 1
REMARK VINA RESULT:       6.5      0.000      0.000
REMARK  5 active torsions:
REMARK  status: ('A' for Active; 'I' for Inactive)
REMARK       I    between atoms: C_2  and  N_1 
REMARK    1  A    between atoms: C_14  and  C_2 
REMARK    2  A    between atoms: C_8  and  O_11 
REMARK    3  A    between atoms: O_11  and  C_17 
REMARK    4  A    between atoms: C_18  and  C_14 
REMARK    5  A    between atoms: C_17  and  C_18 
ROOT
ATOM      1  C   UNL d   1      45.647 -16.167  44.274  0.00  0.00     0.123 C 
ENDROOT
BRANCH   1   2
ATOM      2  O   UNL d   1      45.786 -15.579  44.835  0.00  0.00    -0.305 OA
BRANCH   2   3
ATOM      3  C   UNL d   1      45.656 -14.791  44.642  0.00  0.00     0.100 A 
ATOM      4  C   UNL d   1      46.188 -14.213  44.895  0.00  0.00     0.025 A 
ATOM      5  C   UNL d   1      46.060 -13.422  44.702  0.00  0.00     0.013 A 
ATOM      6  C   UNL d   1      46.592 -12.844  44.955  0.00  0.00     0.001 C 
ATOM      7  C   UNL d   1      45.400 -13.208  44.256  0.00  0.00     0.058 A 
ATOM      8  C   UNL d   1      44.868 -13.785  44.003  0.00  0.00     0.013 A 
ATOM      9 CL   UNL d   1      45.272 -12.416  44.063  0.00  0.00    -0.082 Cl
ATOM     10  C   UNL d   1      44.996 -14.577  44.196  0.00  0.00     0.025 A 
ATOM     11  C   UNL d   1      44.209 -13.571  43.558  0.00  0.00     0.001 C 
ENDBRANCH   2   3
ENDBRANCH   1   2
BRANCH   1  12
ATOM     12  C   UNL d   1      45.928 -16.933  44.400  0.00  0.00     0.032 C 
BRANCH  12  13
ATOM     13  C   UNL d   1      46.218 -17.376  43.768  0.00  0.00     0.063 C 
BRANCH  13  14
ATOM     14  C   UNL d   1      46.274 -18.196  43.830  0.00  0.00     0.265 C 
ATOM     15  N   UNL d   1      46.398 -18.655  43.155  0.00  0.00    -0.272 N 
ATOM     16  C   UNL d   1      46.454 -19.475  43.217  0.00  0.00     0.083 A 
ATOM     17  C   UNL d   1      46.465 -18.292  42.417  0.00  0.00     0.083 A 
ATOM     18  C   UNL d   1      46.577 -19.933  42.542  0.00  0.00     0.019 A 
ATOM     19  C   UNL d   1      46.645 -19.570  41.805  0.00  0.00     0.003 A 
ATOM     20  C   UNL d   1      46.589 -18.749  41.743  0.00  0.00     0.019 A 
ATOM     21  O   UNL d   1      46.207 -18.560  44.568  0.00  0.00    -0.267 OA
ENDBRANCH  13  14
ENDBRANCH  12  13
ENDBRANCH   1  12
TORSDOF 5
ENDMDL
