MODEL 1
REMARK VINA RESULT:      21.7      0.000      0.000
REMARK  3 active torsions:
REMARK  status: ('A' for Active; 'I' for Inactive)
REMARK       I    between atoms: N_2  and  C_1 
REMARK    1  A    between atoms: O_3  and  C_1 
REMARK    2  A    between atoms: C_9  and  O_3 
REMARK    3  A    between atoms: C_5  and  C_6 
ROOT
ATOM      1  C   UNL d   1      14.497  12.431  -1.102  0.00  0.00    -0.023 A 
ATOM      2  C   UNL d   1      13.893  11.874  -1.168  0.00  0.00    -0.002 A 
ATOM      3  C   UNL d   1      14.665  12.932  -1.735  0.00  0.00    -0.002 A 
ATOM      4  C   UNL d   1      13.631  12.319  -2.491  0.00  0.00     0.105 A 
ATOM      5  C   UNL d   1      14.231  12.876  -2.432  0.00  0.00     0.025 A 
ATOM      6  C   UNL d   1      13.458  11.817  -1.865  0.00  0.00     0.025 A 
ENDROOT
BRANCH   4   7
ATOM      7  O   UNL d   1      13.196  12.262  -3.191  0.00  0.00    -0.259 OA
BRANCH   7   8
ATOM      8  C   UNL d   1      13.186  12.875  -3.738  0.00  0.00     0.377 C 
ATOM      9  N   UNL d   1      13.204  12.725  -4.551  0.00  0.00    -0.252 N 
ATOM     10  C   UNL d   1      13.232  11.937  -4.812  0.00  0.00     0.085 A 
ATOM     11  C   UNL d   1      13.194  13.342  -5.085  0.00  0.00     0.085 A 
ATOM     12  C   UNL d   1      13.250  11.780  -5.619  0.00  0.00     0.019 A 
ATOM     13  C   UNL d   1      13.241  12.399  -6.167  0.00  0.00     0.003 A 
ATOM     14  C   UNL d   1      13.213  13.188  -5.898  0.00  0.00     0.019 A 
ATOM     15  O   UNL d   1      13.158  13.670  -3.452  0.00  0.00    -0.237 OA
ENDBRANCH   7   8
ENDBRANCH   4   7
BRANCH   1  16
ATOM     16  C   UNL d   1      14.933  12.488  -0.402  0.00  0.00     0.019 C 
ATOM     17  C   UNL d   1      15.001  13.217  -0.015  0.00  0.00     0.004 C 
ATOM     18  C   UNL d   1      15.300  11.819  -0.088  0.00  0.00     0.004 C 
ATOM     19  C   UNL d   1      14.653  13.257  -0.541  0.00  0.00     0.004 C 
ENDBRANCH   1  16
TORSDOF 3
ENDMDL
