MODEL 1
REMARK VINA RESULT:      36.2      0.000      0.000
REMARK  3 active torsions:
REMARK  status: ('A' for Active; 'I' for Inactive)
REMARK    1  A    between atoms: S_4  and  C_1 
REMARK    2  A    between atoms: C_8  and  S_4 
REMARK    3  A    between atoms: C_10  and  C_8 
ROOT
ATOM      1  C   UNL d   1     -54.767-101.429 -43.248  0.00  0.00     0.114 A 
ATOM      2  C   UNL d   1     -54.801-100.677 -43.578  0.00  0.00     0.042 A 
ATOM      3  N   UNL d   1     -54.786-102.092 -43.740  0.00  0.00    -0.217 NA
ATOM      4  N   UNL d   1     -54.874-101.243 -44.888  0.00  0.00    -0.224 NA
ATOM      5  C   UNL d   1     -54.840-101.999 -44.560  0.00  0.00     0.200 A 
ATOM      6  C   UNL d   1     -54.855-100.584 -44.398  0.00  0.00     0.085 A 
ATOM      7  C   UNL d   1     -54.782-100.014 -43.087  0.00  0.00     0.004 A 
ATOM      8  C   UNL d   1     -54.890 -99.828 -44.727  0.00  0.00     0.019 A 
ATOM      9  C   UNL d   1     -54.817 -99.258 -43.416  0.00  0.00     0.000 A 
ATOM     10  C   UNL d   1     -54.871 -99.165 -44.236  0.00  0.00     0.002 A 
ENDROOT
BRANCH   1  11
ATOM     11  S   UNL d   1     -54.713-101.522 -42.429  0.00  0.00    -0.067 SA
BRANCH  11  12
ATOM     12  C   UNL d   1     -55.209-102.042 -42.038  0.00  0.00     0.037 C 
BRANCH  12  13
ATOM     13  C   UNL d   1     -55.157-102.130 -41.226  0.00  0.00     0.007 A 
ATOM     14  C   UNL d   1     -54.770-101.562 -40.758  0.00  0.00     0.003 A 
ATOM     15  C   UNL d   1     -54.724-101.659 -39.949  0.00  0.00     0.030 A 
ATOM     16  C   UNL d   1     -55.059-102.316 -39.595  0.00  0.00     0.140 A 
ATOM     17  C   UNL d   1     -55.442-102.880 -40.048  0.00  0.00     0.030 A 
ATOM     18  F   UNL d   1     -55.010-102.412 -38.770  0.00  0.00    -0.204 F 
ATOM     19  C   UNL d   1     -55.496-102.794 -40.868  0.00  0.00     0.003 A 
ENDBRANCH  12  13
ENDBRANCH  11  12
ENDBRANCH   1  11
TORSDOF 3
ENDMDL
