MODEL 1
REMARK VINA RESULT:      -6.9      0.000      0.000
REMARK  4 active torsions:
REMARK  status: ('A' for Active; 'I' for Inactive)
REMARK    1  A    between atoms: C_12  and  C_2 
REMARK    2  A    between atoms: N_9  and  C_3 
REMARK       I    between atoms: C_7  and  N_8 
REMARK    3  A    between atoms: C_10  and  C_7 
REMARK    4  A    between atoms: N_8  and  N_9 
ROOT
ATOM      1  C   UNL d   1     -49.358  14.302  23.000  0.00  0.00     0.037 A 
ATOM      2  C   UNL d   1     -49.213  13.493  22.902  0.00  0.00     0.101 A 
ATOM      3  C   UNL d   1     -47.798  13.770  22.705  0.00  0.00     0.768 A 
ATOM      4  N   UNL d   1     -48.442  13.239  22.758  0.00  0.00    -0.058 NA
ATOM      5  N   UNL d   1     -47.963  14.595  22.807  0.00  0.00    -0.058 NA
ATOM      6  C   UNL d   1     -48.726  14.853  22.951  0.00  0.00     0.101 A 
ATOM      7  C   UNL d   1     -50.115  14.595  23.146  0.00  0.00     0.010 A 
ATOM      8  C   UNL d   1     -48.874  15.681  23.050  0.00  0.00     0.020 A 
ATOM      9  C   UNL d   1     -50.269  15.388  23.243  0.00  0.00     0.035 A 
ATOM     10  C   UNL d   1     -49.642  15.922  23.193  0.00  0.00     0.008 A 
ATOM     11 BR   UNL d   1     -51.064  15.668  23.394  0.00  0.00    -0.049 Br
ENDROOT
BRANCH   3  12
ATOM     12  N   UNL d   1     -47.019  13.522  22.559  0.00  0.00     0.049 NA
BRANCH  12  13
ATOM     13  N   UNL d   1     -46.620  13.038  23.090  0.00  0.00    -0.094 NA
ATOM     14  C   UNL d   1     -45.865  12.810  22.951  0.00  0.00     0.273 C 
ATOM     15  O   UNL d   1     -45.493  12.321  23.509  0.00  0.00    -0.269 OA
BRANCH  14  16
ATOM     16  C   UNL d   1     -45.472  13.055  22.274  0.00  0.00     0.075 C 
ATOM     17  C   UNL d   1     -45.317  13.815  22.641  0.00  0.00     0.009 C 
ATOM     18  C   UNL d   1     -45.634  12.314  21.939  0.00  0.00     0.009 C 
ATOM     19  C   UNL d   1     -45.079  13.300  21.597  0.00  0.00     0.009 C 
ENDBRANCH  14  16
ENDBRANCH  12  13
ENDBRANCH   3  12
BRANCH   2  20
ATOM     20  C   UNL d   1     -49.809  12.942  22.946  0.00  0.00     0.018 A 
ATOM     21  C   UNL d   1     -50.270  12.760  22.306  0.00  0.00     0.002 A 
ATOM     22  C   UNL d   1     -50.861  12.212  22.352  0.00  0.00     0.000 A 
ATOM     23  C   UNL d   1     -50.996  11.830  23.071  0.00  0.00     0.000 A 
ATOM     24  C   UNL d   1     -50.562  11.992  23.697  0.00  0.00     0.000 A 
ATOM     25  C   UNL d   1     -49.950  12.553  23.666  0.00  0.00     0.002 A 
ENDBRANCH   2  20
TORSDOF 4
ENDMDL
MODEL 2
REMARK VINA RESULT:      -6.3      1.707      2.395
REMARK  4 active torsions:
REMARK  status: ('A' for Active; 'I' for Inactive)
REMARK    1  A    between atoms: C_12  and  C_2 
REMARK    2  A    between atoms: N_9  and  C_3 
REMARK       I    between atoms: C_7  and  N_8 
REMARK    3  A    between atoms: C_10  and  C_7 
REMARK    4  A    between atoms: N_8  and  N_9 
ROOT
ATOM      1  C   UNL d   1     -47.427  13.410  22.918  0.00  0.00     0.037 A 
ATOM      2  C   UNL d   1     -47.598  12.607  23.023  0.00  0.00     0.101 A 
ATOM      3  C   UNL d   1     -46.179  12.323  23.172  0.00  0.00     0.768 A 
ATOM      4  N   UNL d   1     -46.978  12.078  23.147  0.00  0.00    -0.058 NA
ATOM      5  N   UNL d   1     -46.020  13.148  23.063  0.00  0.00    -0.058 NA
ATOM      6  C   UNL d   1     -46.632  13.678  22.939  0.00  0.00     0.101 A 
ATOM      7  C   UNL d   1     -48.020  13.969  22.792  0.00  0.00     0.010 A 
ATOM      8  C   UNL d   1     -46.456  14.499  22.833  0.00  0.00     0.020 A 
ATOM      9  C   UNL d   1     -47.863  14.761  22.688  0.00  0.00     0.035 A 
ATOM     10  C   UNL d   1     -47.078  15.015  22.710  0.00  0.00     0.008 A 
ATOM     11 BR   UNL d   1     -48.496  15.323  22.558  0.00  0.00    -0.049 Br
ENDROOT
BRANCH   3  12
ATOM     12  N   UNL d   1     -45.549  11.797  23.296  0.00  0.00     0.049 NA
BRANCH  12  13
ATOM     13  N   UNL d   1     -44.834  11.887  22.902  0.00  0.00    -0.094 NA
ATOM     14  C   UNL d   1     -44.287  11.303  22.903  0.00  0.00     0.273 C 
ATOM     15  O   UNL d   1     -43.575  11.429  22.494  0.00  0.00    -0.269 OA
BRANCH  14  16
ATOM     16  C   UNL d   1     -44.428  10.599  23.299  0.00  0.00     0.075 C 
ATOM     17  C   UNL d   1     -43.648  10.644  23.654  0.00  0.00     0.009 C 
ATOM     18  C   UNL d   1     -45.178  10.576  22.945  0.00  0.00     0.009 C 
ATOM     19  C   UNL d   1     -44.569   9.894  23.695  0.00  0.00     0.009 C 
ENDBRANCH  14  16
ENDBRANCH  12  13
ENDBRANCH   3  12
BRANCH   2  20
ATOM     20  C   UNL d   1     -48.360  12.325  23.006  0.00  0.00     0.018 A 
ATOM     21  C   UNL d   1     -48.796  12.230  23.682  0.00  0.00     0.002 A 
ATOM     22  C   UNL d   1     -49.553  11.950  23.663  0.00  0.00     0.000 A 
ATOM     23  C   UNL d   1     -49.888  11.756  22.934  0.00  0.00     0.000 A 
ATOM     24  C   UNL d   1     -49.484  11.841  22.274  0.00  0.00     0.000 A 
ATOM     25  C   UNL d   1     -48.704  12.128  22.277  0.00  0.00     0.002 A 
ENDBRANCH   2  20
TORSDOF 4
ENDMDL
MODEL 3
REMARK VINA RESULT:      -6.0      2.304      4.747
REMARK  4 active torsions:
REMARK  status: ('A' for Active; 'I' for Inactive)
REMARK    1  A    between atoms: C_12  and  C_2 
REMARK    2  A    between atoms: N_9  and  C_3 
REMARK       I    between atoms: C_7  and  N_8 
REMARK    3  A    between atoms: C_10  and  C_7 
REMARK    4  A    between atoms: N_8  and  N_9 
ROOT
ATOM      1  C   UNL d   1     -47.027  12.126  23.105  0.00  0.00     0.037 A 
ATOM      2  C   UNL d   1     -47.086  12.896  22.809  0.00  0.00     0.101 A 
ATOM      3  C   UNL d   1     -48.538  12.789  22.820  0.00  0.00     0.768 A 
ATOM      4  N   UNL d   1     -47.834  13.215  22.671  0.00  0.00    -0.058 NA
ATOM      5  N   UNL d   1     -48.460  12.002  23.123  0.00  0.00    -0.058 NA
ATOM      6  C   UNL d   1     -47.720  11.679  23.262  0.00  0.00     0.101 A 
ATOM      7  C   UNL d   1     -46.297  11.772  23.256  0.00  0.00     0.010 A 
ATOM      8  C   UNL d   1     -47.660  10.891  23.565  0.00  0.00     0.020 A 
ATOM      9  C   UNL d   1     -46.227  11.014  23.547  0.00  0.00     0.035 A 
ATOM     10  C   UNL d   1     -46.915  10.584  23.698  0.00  0.00     0.008 A 
ATOM     11 BR   UNL d   1     -45.458  10.668  23.695  0.00  0.00    -0.049 Br
ENDROOT
BRANCH   3  12
ATOM     12  N   UNL d   1     -49.293  13.104  22.684  0.00  0.00     0.049 NA
BRANCH  12  13
ATOM     13  N   UNL d   1     -49.714  12.921  22.003  0.00  0.00    -0.094 NA
ATOM     14  C   UNL d   1     -50.419  13.269  21.849  0.00  0.00     0.273 C 
ATOM     15  O   UNL d   1     -50.817  13.061  21.151  0.00  0.00    -0.269 OA
BRANCH  14  16
ATOM     16  C   UNL d   1     -50.737  13.818  22.369  0.00  0.00     0.075 C 
ATOM     17  C   UNL d   1     -51.064  13.180  22.840  0.00  0.00     0.009 C 
ATOM     18  C   UNL d   1     -50.411  14.419  21.899  0.00  0.00     0.009 C 
ATOM     19  C   UNL d   1     -51.054  14.368  22.889  0.00  0.00     0.009 C 
ENDBRANCH  14  16
ENDBRANCH  12  13
ENDBRANCH   3  12
BRANCH   2  20
ATOM     20  C   UNL d   1     -46.429  13.347  22.650  0.00  0.00     0.018 A 
ATOM     21  C   UNL d   1     -45.980  13.228  21.987  0.00  0.00     0.002 A 
ATOM     22  C   UNL d   1     -45.327  13.677  21.831  0.00  0.00     0.000 A 
ATOM     23  C   UNL d   1     -45.115  14.271  22.364  0.00  0.00     0.000 A 
ATOM     24  C   UNL d   1     -45.535  14.399  23.007  0.00  0.00     0.000 A 
ATOM     25  C   UNL d   1     -46.209  13.946  23.181  0.00  0.00     0.002 A 
ENDBRANCH   2  20
TORSDOF 4
ENDMDL
MODEL 4
REMARK VINA RESULT:      -5.9      8.090     10.148
REMARK  4 active torsions:
REMARK  status: ('A' for Active; 'I' for Inactive)
REMARK    1  A    between atoms: C_12  and  C_2 
REMARK    2  A    between atoms: N_9  and  C_3 
REMARK       I    between atoms: C_7  and  N_8 
REMARK    3  A    between atoms: C_10  and  C_7 
REMARK    4  A    between atoms: N_8  and  N_9 
ROOT
ATOM      1  C   UNL d   1     -39.222  14.111  20.583  0.00  0.00     0.037 A 
ATOM      2  C   UNL d   1     -39.792  14.487  20.113  0.00  0.00     0.101 A 
ATOM      3  C   UNL d   1     -38.988  14.226  18.928  0.00  0.00     0.768 A 
ATOM      4  N   UNL d   1     -39.669  14.539  19.300  0.00  0.00    -0.058 NA
ATOM      5  N   UNL d   1     -38.415  13.845  19.422  0.00  0.00    -0.058 NA
ATOM      6  C   UNL d   1     -38.531  13.790  20.231  0.00  0.00     0.101 A 
ATOM      7  C   UNL d   1     -39.309  14.039  21.399  0.00  0.00     0.010 A 
ATOM      8  C   UNL d   1     -37.948  13.405  20.710  0.00  0.00     0.020 A 
ATOM      9  C   UNL d   1     -38.756  13.672  21.870  0.00  0.00     0.035 A 
ATOM     10  C   UNL d   1     -38.080  13.359  21.515  0.00  0.00     0.008 A 
ATOM     11 BR   UNL d   1     -38.868  13.609  22.717  0.00  0.00    -0.049 Br
ENDROOT
BRANCH   3  12
ATOM     12  N   UNL d   1     -38.858  14.274  18.110  0.00  0.00     0.049 NA
BRANCH  12  13
ATOM     13  N   UNL d   1     -39.254  14.825  17.648  0.00  0.00    -0.094 NA
ATOM     14  C   UNL d   1     -39.093  14.899  16.867  0.00  0.00     0.273 C 
ATOM     15  O   UNL d   1     -39.513  15.467  16.430  0.00  0.00    -0.269 OA
BRANCH  14  16
ATOM     16  C   UNL d   1     -38.526  14.425  16.510  0.00  0.00     0.075 C 
ATOM     17  C   UNL d   1     -37.940  15.039  16.630  0.00  0.00     0.009 C 
ATOM     18  C   UNL d   1     -39.110  13.845  16.405  0.00  0.00     0.009 C 
ATOM     19  C   UNL d   1     -37.960  13.950  16.153  0.00  0.00     0.009 C 
ENDBRANCH  14  16
ENDBRANCH  12  13
ENDBRANCH   3  12
BRANCH   2  20
ATOM     20  C   UNL d   1     -40.468  14.805  20.432  0.00  0.00     0.018 A 
ATOM     21  C   UNL d   1     -41.134  14.361  20.552  0.00  0.00     0.002 A 
ATOM     22  C   UNL d   1     -41.805  14.680  20.869  0.00  0.00     0.000 A 
ATOM     23  C   UNL d   1     -41.808  15.479  21.075  0.00  0.00     0.000 A 
ATOM     24  C   UNL d   1     -41.177  15.922  20.966  0.00  0.00     0.000 A 
ATOM     25  C   UNL d   1     -40.479  15.608  20.641  0.00  0.00     0.002 A 
ENDBRANCH   2  20
TORSDOF 4
ENDMDL
MODEL 5
REMARK VINA RESULT:      -5.5      9.105     10.580
REMARK  4 active torsions:
REMARK  status: ('A' for Active; 'I' for Inactive)
REMARK    1  A    between atoms: C_12  and  C_2 
REMARK    2  A    between atoms: N_9  and  C_3 
REMARK       I    between atoms: C_7  and  N_8 
REMARK    3  A    between atoms: C_10  and  C_7 
REMARK    4  A    between atoms: N_8  and  N_9 
ROOT
ATOM      1  C   UNL d   1     -40.237  15.428  17.503  0.00  0.00     0.037 A 
ATOM      2  C   UNL d   1     -39.447  15.182  17.537  0.00  0.00     0.101 A 
ATOM      3  C   UNL d   1     -39.493  15.233  18.991  0.00  0.00     0.768 A 
ATOM      4  N   UNL d   1     -39.089  15.088  18.274  0.00  0.00    -0.058 NA
ATOM      5  N   UNL d   1     -40.301  15.485  18.939  0.00  0.00    -0.058 NA
ATOM      6  C   UNL d   1     -40.662  15.580  18.211  0.00  0.00     0.101 A 
ATOM      7  C   UNL d   1     -40.630  15.533  16.786  0.00  0.00     0.010 A 
ATOM      8  C   UNL d   1     -41.470  15.832  18.177  0.00  0.00     0.020 A 
ATOM      9  C   UNL d   1     -41.406  15.775  16.741  0.00  0.00     0.035 A 
ATOM     10  C   UNL d   1     -41.816  15.921  17.442  0.00  0.00     0.008 A 
ATOM     11 BR   UNL d   1     -41.794  15.877  15.984  0.00  0.00    -0.049 Br
ENDROOT
BRANCH   3  12
ATOM     12  N   UNL d   1     -39.139  15.142  19.736  0.00  0.00     0.049 NA
BRANCH  12  13
ATOM     13  N   UNL d   1     -38.772  14.439  19.949  0.00  0.00    -0.094 NA
ATOM     14  C   UNL d   1     -38.550  14.303  20.707  0.00  0.00     0.273 C 
ATOM     15  O   UNL d   1     -38.182  13.581  20.886  0.00  0.00    -0.269 OA
BRANCH  14  16
ATOM     16  C   UNL d   1     -38.685  14.865  21.288  0.00  0.00     0.075 C 
ATOM     17  C   UNL d   1     -37.940  15.243  21.094  0.00  0.00     0.009 C 
ATOM     18  C   UNL d   1     -39.401  14.484  21.460  0.00  0.00     0.009 C 
ATOM     19  C   UNL d   1     -38.820  15.428  21.871  0.00  0.00     0.009 C 
ENDBRANCH  14  16
ENDBRANCH  12  13
ENDBRANCH   3  12
BRANCH   2  20
ATOM     20  C   UNL d   1     -39.016  15.029  16.866  0.00  0.00     0.018 A 
ATOM     21  C   UNL d   1     -38.923  14.278  16.579  0.00  0.00     0.002 A 
ATOM     22  C   UNL d   1     -38.494  14.130  15.911  0.00  0.00     0.000 A 
ATOM     23  C   UNL d   1     -38.143  14.762  15.513  0.00  0.00     0.000 A 
ATOM     24  C   UNL d   1     -38.222  15.491  15.775  0.00  0.00     0.000 A 
ATOM     25  C   UNL d   1     -38.660  15.661  16.460  0.00  0.00     0.002 A 
ENDBRANCH   2  20
TORSDOF 4
ENDMDL
