MODEL 1
REMARK VINA RESULT:     -10.3      0.000      0.000
REMARK  3 active torsions:
REMARK  status: ('A' for Active; 'I' for Inactive)
REMARK    1  A    between atoms: N_4  and  C_2 
REMARK    2  A    between atoms: C_12  and  C_10 
REMARK    3  A    between atoms: C_19  and  C_11 
ROOT
ATOM      1  C   UNL d   1      53.178  32.448  53.360  0.00  0.00     0.152 A 
ATOM      2  C   UNL d   1      53.433  33.207  53.456  0.00  0.00     0.174 A 
ATOM      3  C   UNL d   1      52.481  32.298  52.938  0.00  0.00     0.111 A 
ATOM      4  O   UNL d   1      53.611  31.813  53.683  0.00  0.00    -0.302 OA
ATOM      5  N   UNL d   1      53.012  33.831  53.141  0.00  0.00    -0.207 NA
ATOM      6  C   UNL d   1      52.650  30.889  53.161  0.00  0.00     0.043 A 
ATOM      7  N   UNL d   1      52.051  32.908  52.618  0.00  0.00    -0.225 NA
ATOM      8  C   UNL d   1      53.339  31.038  53.578  0.00  0.00     0.102 A 
ATOM      9  C   UNL d   1      52.316  33.681  52.719  0.00  0.00     0.164 A 
ATOM     10  C   UNL d   1      52.386  30.117  53.060  0.00  0.00     0.004 A 
ATOM     11  C   UNL d   1      53.768  30.410  53.899  0.00  0.00     0.025 A 
ATOM     12  C   UNL d   1      52.811  29.488  53.378  0.00  0.00     0.000 A 
ATOM     13  C   UNL d   1      53.508  29.630  53.801  0.00  0.00     0.002 A 
ENDROOT
BRANCH   2  14
ATOM     14  N   UNL d   1      54.121  33.355  53.873  0.00  0.00    -0.284 N 
ATOM     15  C   UNL d   1      54.185  33.760  54.579  0.00  0.00     0.130 A 
ATOM     16  C   UNL d   1      54.972  33.778  54.797  0.00  0.00     0.025 A 
ATOM     17  C   UNL d   1      55.405  33.383  54.224  0.00  0.00     0.021 A 
ATOM     18  C   UNL d   1      54.880  33.118  53.647  0.00  0.00     0.082 A 
BRANCH  15  19
ATOM     19  C   UNL d   1      53.538  34.106  55.017  0.00  0.00     0.228 C 
ATOM     20  O   UNL d   1      53.350  34.927  54.916  0.00  0.00    -0.643 OA
ATOM     21  O   UNL d   1      53.086  33.628  55.552  0.00  0.00    -0.643 OA
ENDBRANCH  15  19
ENDBRANCH   2  14
BRANCH   9  22
ATOM     22  C   UNL d   1      51.872  34.336  52.387  0.00  0.00     0.039 C 
ATOM     23  C   UNL d   1      51.031  34.287  52.326  0.00  0.00     0.003 C 
ENDBRANCH   9  22
TORSDOF 3
ENDMDL
MODEL 2
REMARK VINA RESULT:      -9.3      1.145      3.086
REMARK  3 active torsions:
REMARK  status: ('A' for Active; 'I' for Inactive)
REMARK    1  A    between atoms: N_4  and  C_2 
REMARK    2  A    between atoms: C_12  and  C_10 
REMARK    3  A    between atoms: C_19  and  C_11 
ROOT
ATOM      1  C   UNL d   1      52.756  32.598  53.557  0.00  0.00     0.152 A 
ATOM      2  C   UNL d   1      53.427  32.284  53.875  0.00  0.00     0.174 A 
ATOM      3  C   UNL d   1      52.277  32.135  53.066  0.00  0.00     0.111 A 
ATOM      4  O   UNL d   1      52.541  33.388  53.720  0.00  0.00    -0.302 OA
ATOM      5  N   UNL d   1      53.641  31.512  53.719  0.00  0.00    -0.207 NA
ATOM      6  C   UNL d   1      51.376  33.241  52.902  0.00  0.00     0.043 A 
ATOM      7  N   UNL d   1      52.476  31.365  52.900  0.00  0.00    -0.225 NA
ATOM      8  C   UNL d   1      51.850  33.699  53.387  0.00  0.00     0.102 A 
ATOM      9  C   UNL d   1      53.161  31.049  53.227  0.00  0.00     0.164 A 
ATOM     10  C   UNL d   1      50.690  33.557  52.574  0.00  0.00     0.004 A 
ATOM     11  C   UNL d   1      51.638  34.480  53.549  0.00  0.00     0.025 A 
ATOM     12  C   UNL d   1      50.476  34.335  52.733  0.00  0.00     0.000 A 
ATOM     13  C   UNL d   1      50.949  34.805  53.223  0.00  0.00     0.002 A 
ENDROOT
BRANCH   2  14
ATOM     14  N   UNL d   1      53.901  32.742  54.361  0.00  0.00    -0.284 N 
ATOM     15  C   UNL d   1      54.614  33.086  54.162  0.00  0.00     0.130 A 
ATOM     16  C   UNL d   1      54.896  33.492  54.812  0.00  0.00     0.025 A 
ATOM     17  C   UNL d   1      54.356  33.404  55.422  0.00  0.00     0.021 A 
ATOM     18  C   UNL d   1      53.734  32.938  55.146  0.00  0.00     0.082 A 
BRANCH  15  19
ATOM     19  C   UNL d   1      55.002  33.029  53.403  0.00  0.00     0.228 C 
ATOM     20  O   UNL d   1      54.854  33.615  52.807  0.00  0.00    -0.643 OA
ATOM     21  O   UNL d   1      55.533  32.388  53.246  0.00  0.00    -0.643 OA
ENDBRANCH  15  19
ENDBRANCH   2  14
BRANCH   9  22
ATOM     22  C   UNL d   1      53.385  30.238  53.062  0.00  0.00     0.039 C 
ATOM     23  C   UNL d   1      53.027  29.606  53.494  0.00  0.00     0.003 C 
ENDBRANCH   9  22
TORSDOF 3
ENDMDL
MODEL 3
REMARK VINA RESULT:      -9.2      1.077      2.636
REMARK  3 active torsions:
REMARK  status: ('A' for Active; 'I' for Inactive)
REMARK    1  A    between atoms: N_4  and  C_2 
REMARK    2  A    between atoms: C_12  and  C_10 
REMARK    3  A    between atoms: C_19  and  C_11 
ROOT
ATOM      1  C   UNL d   1      53.029  32.540  53.872  0.00  0.00     0.152 A 
ATOM      2  C   UNL d   1      52.782  33.299  53.984  0.00  0.00     0.174 A 
ATOM      3  C   UNL d   1      53.729  32.278  54.228  0.00  0.00     0.111 A 
ATOM      4  O   UNL d   1      52.583  32.016  53.401  0.00  0.00    -0.302 OA
ATOM      5  N   UNL d   1      53.215  33.815  54.444  0.00  0.00    -0.207 NA
ATOM      6  C   UNL d   1      53.540  30.979  53.646  0.00  0.00     0.043 A 
ATOM      7  N   UNL d   1      54.171  32.779  54.690  0.00  0.00    -0.225 NA
ATOM      8  C   UNL d   1      52.847  31.238  53.294  0.00  0.00     0.102 A 
ATOM      9  C   UNL d   1      53.915  33.553  54.800  0.00  0.00     0.164 A 
ATOM     10  C   UNL d   1      53.796  30.205  53.535  0.00  0.00     0.004 A 
ATOM     11  C   UNL d   1      52.406  30.720  52.827  0.00  0.00     0.025 A 
ATOM     12  C   UNL d   1      53.359  29.686  53.071  0.00  0.00     0.000 A 
ATOM     13  C   UNL d   1      52.658  29.939  52.711  0.00  0.00     0.002 A 
ENDROOT
BRANCH   2  14
ATOM     14  N   UNL d   1      52.089  33.557  53.632  0.00  0.00    -0.284 N 
ATOM     15  C   UNL d   1      52.017  34.152  53.077  0.00  0.00     0.130 A 
ATOM     16  C   UNL d   1      51.229  34.227  52.878  0.00  0.00     0.025 A 
ATOM     17  C   UNL d   1      50.803  33.674  53.309  0.00  0.00     0.021 A 
ATOM     18  C   UNL d   1      51.335  33.256  53.780  0.00  0.00     0.082 A 
BRANCH  15  19
ATOM     19  C   UNL d   1      52.659  34.620  52.759  0.00  0.00     0.228 C 
ATOM     20  O   UNL d   1      52.893  35.336  53.147  0.00  0.00    -0.643 OA
ATOM     21  O   UNL d   1      53.059  34.365  52.057  0.00  0.00    -0.643 OA
ENDBRANCH  15  19
ENDBRANCH   2  14
BRANCH   9  22
ATOM     22  C   UNL d   1      54.371  34.094  55.285  0.00  0.00     0.039 C 
ATOM     23  C   UNL d   1      55.204  33.982  55.372  0.00  0.00     0.003 C 
ENDBRANCH   9  22
TORSDOF 3
ENDMDL
MODEL 4
REMARK VINA RESULT:      -8.9      1.244      3.458
REMARK  3 active torsions:
REMARK  status: ('A' for Active; 'I' for Inactive)
REMARK    1  A    between atoms: N_4  and  C_2 
REMARK    2  A    between atoms: C_12  and  C_10 
REMARK    3  A    between atoms: C_19  and  C_11 
ROOT
ATOM      1  C   UNL d   1      53.161  32.816  53.558  0.00  0.00     0.152 A 
ATOM      2  C   UNL d   1      52.600  32.690  52.993  0.00  0.00     0.174 A 
ATOM      3  C   UNL d   1      53.580  32.175  53.873  0.00  0.00     0.111 A 
ATOM      4  O   UNL d   1      53.322  33.589  53.827  0.00  0.00    -0.302 OA
ATOM      5  N   UNL d   1      52.438  31.936  52.726  0.00  0.00    -0.207 NA
ATOM      6  C   UNL d   1      54.315  33.072  54.719  0.00  0.00     0.043 A 
ATOM      7  N   UNL d   1      53.431  31.418  53.618  0.00  0.00    -0.225 NA
ATOM      8  C   UNL d   1      53.901  33.706  54.408  0.00  0.00     0.102 A 
ATOM      9  C   UNL d   1      52.857  31.295  53.041  0.00  0.00     0.164 A 
ATOM     10  C   UNL d   1      54.889  33.196  55.296  0.00  0.00     0.004 A 
ATOM     11  C   UNL d   1      54.060  34.471  54.674  0.00  0.00     0.025 A 
ATOM     12  C   UNL d   1      55.051  33.956  55.564  0.00  0.00     0.000 A 
ATOM     13  C   UNL d   1      54.636  34.603  55.255  0.00  0.00     0.002 A 
ENDROOT
BRANCH   2  14
ATOM     14  N   UNL d   1      52.185  33.324  52.682  0.00  0.00    -0.284 N 
ATOM     15  C   UNL d   1      51.406  33.517  52.830  0.00  0.00     0.130 A 
ATOM     16  C   UNL d   1      51.220  34.189  52.405  0.00  0.00     0.025 A 
ATOM     17  C   UNL d   1      51.887  34.420  51.988  0.00  0.00     0.021 A 
ATOM     18  C   UNL d   1      52.490  33.885  52.157  0.00  0.00     0.082 A 
BRANCH  15  19
ATOM     19  C   UNL d   1      50.874  33.088  53.343  0.00  0.00     0.228 C 
ATOM     20  O   UNL d   1      50.456  32.411  53.048  0.00  0.00    -0.643 OA
ATOM     21  O   UNL d   1      50.765  33.339  54.145  0.00  0.00    -0.643 OA
ENDBRANCH  15  19
ENDBRANCH   2  14
BRANCH   9  22
ATOM     22  C   UNL d   1      52.689  30.502  52.762  0.00  0.00     0.039 C 
ATOM     23  C   UNL d   1      52.892  29.835  53.241  0.00  0.00     0.003 C 
ENDBRANCH   9  22
TORSDOF 3
ENDMDL
