MODEL 1
REMARK VINA RESULT:      -1.5      0.000      0.000
REMARK  8 active torsions:
REMARK  status: ('A' for Active; 'I' for Inactive)
REMARK    1  A    between atoms: N_5  and  C_1 
REMARK    2  A    between atoms: C_2  and  N_5 
REMARK    3  A    between atoms: N_3  and  C_2 
REMARK       I    between atoms: C_6  and  N_3 
REMARK    4  A    between atoms: C_13  and  C_6 
REMARK    5  A    between atoms: C_9  and  C_7 
REMARK    6  A    between atoms: C_11  and  C_9 
REMARK    7  A    between atoms: O_18  and  C_11 
REMARK    8  A    between atoms: C_22  and  O_18 
ROOT
ATOM      1  C   UNL d   1     -41.327-122.757 -52.206  0.00  0.00     0.225 C 
ATOM      2  S   UNL d   1     -41.262-123.578 -52.138  0.00  0.00    -0.037 SA
ENDROOT
BRANCH   1   3
ATOM      3  N   UNL d   1     -41.332-122.260 -51.551  0.00  0.00    -0.192 NA
BRANCH   3   4
ATOM      4  C   UNL d   1     -41.614-122.545 -50.845  0.00  0.00     0.196 A 
ATOM      5  N   UNL d   1     -41.471-123.204 -50.380  0.00  0.00    -0.220 NA
ATOM      6  C   UNL d   1     -41.924-123.187 -49.731  0.00  0.00     0.095 A 
ATOM      7  C   UNL d   1     -42.385-122.523 -49.732  0.00  0.00     0.058 A 
ATOM      8  S   UNL d   1     -42.213-122.104 -50.414  0.00  0.00    -0.046 SA
BRANCH   6   9
ATOM      9  C   UNL d   1     -41.937-123.789 -49.097  0.00  0.00     0.088 C 
BRANCH   9  10
ATOM     10  C   UNL d   1     -41.854-123.569 -48.321  0.00  0.00     0.302 C 
ATOM     11  O   UNL d   1     -42.426-123.107 -47.952  0.00  0.00    -0.259 OA
BRANCH  10  12
ATOM     12  O   UNL d   1     -41.180-123.816 -47.888  0.00  0.00    -0.271 OA
BRANCH  12  13
ATOM     13  C   UNL d   1     -41.183-123.774 -47.057  0.00  0.00     0.126 C 
ATOM     14  C   UNL d   1     -41.165-123.053 -46.679  0.00  0.00     0.029 C 
ENDBRANCH  12  13
ENDBRANCH  10  12
ENDBRANCH   9  10
ENDBRANCH   6   9
ENDBRANCH   3   4
ENDBRANCH   1   3
BRANCH   1  15
ATOM     15  N   UNL d   1     -41.389-122.418 -52.974  0.00  0.00    -0.179 NA
ATOM     16  C   UNL d   1     -41.812-122.803 -53.527  0.00  0.00     0.281 C 
ATOM     17  O   UNL d   1     -42.188-123.527 -53.358  0.00  0.00    -0.265 OA
BRANCH  16  18
ATOM     18  C   UNL d   1     -41.884-122.473 -54.309  0.00  0.00     0.058 A 
ATOM     19  C   UNL d   1     -42.617-122.215 -54.587  0.00  0.00     0.005 A 
ATOM     20  C   UNL d   1     -42.712-121.897 -55.327  0.00  0.00     0.000 A 
ATOM     21  C   UNL d   1     -42.041-121.829 -55.823  0.00  0.00     0.000 A 
ATOM     22  C   UNL d   1     -41.318-122.083 -55.550  0.00  0.00     0.000 A 
ATOM     23  C   UNL d   1     -42.095-121.511 -56.584  0.00  0.00     0.000 C 
ATOM     24  C   UNL d   1     -41.211-122.409 -54.797  0.00  0.00     0.005 A 
ENDBRANCH  16  18
ENDBRANCH   1  15
TORSDOF 8
ENDMDL
