MODEL 1
REMARK VINA RESULT:      75.7      0.000      0.000
REMARK  3 active torsions:
REMARK  status: ('A' for Active; 'I' for Inactive)
REMARK    1  A    between atoms: C_17  and  N_4 
REMARK    2  A    between atoms: C_11  and  C_5 
REMARK       I    between atoms: N_13  and  C_11 
REMARK    3  A    between atoms: C_21  and  N_13 
ROOT
ATOM      1  C   UNL d   1      14.091  13.763  -2.314  0.00  0.00     0.155 A 
ATOM      2  C   UNL d   1      14.043  14.505  -2.668  0.00  0.00     0.091 A 
ATOM      3  N   UNL d   1      13.797  13.103  -2.719  0.00  0.00    -0.210 NA
ATOM      4  N   UNL d   1      14.421  13.685  -1.581  0.00  0.00    -0.275 N 
ATOM      5  C   UNL d   1      14.666  15.078  -1.529  0.00  0.00     0.094 A 
ATOM      6  C   UNL d   1      14.714  14.341  -1.178  0.00  0.00     0.175 A 
ATOM      7  N   UNL d   1      13.412  13.927  -3.820  0.00  0.00    -0.258 N 
ATOM      8  C   UNL d   1      13.461  13.176  -3.462  0.00  0.00     0.152 A 
ATOM      9  C   UNL d   1      13.701  14.592  -3.428  0.00  0.00     0.269 A 
ATOM     10  C   UNL d   1      14.333  15.168  -2.273  0.00  0.00     0.016 A 
ATOM     11  C   UNL d   1      13.174  12.523  -3.854  0.00  0.00     0.035 A 
ATOM     12  N   UNL d   1      15.051  14.260  -0.429  0.00  0.00    -0.128 N 
ATOM     13  C   UNL d   1      13.078  14.012  -4.563  0.00  0.00     0.084 A 
ATOM     14  O   UNL d   1      13.659  15.334  -3.770  0.00  0.00    -0.266 OA
ATOM     15  C   UNL d   1      12.789  13.346  -4.956  0.00  0.00     0.019 A 
ATOM     16  C   UNL d   1      12.837  12.595  -4.598  0.00  0.00     0.005 A 
ATOM     17  C   UNL d   1      13.222  11.779  -3.499  0.00  0.00     0.003 C 
ENDROOT
BRANCH   5  18
ATOM     18  C   UNL d   1      14.956  15.739  -1.134  0.00  0.00     0.282 C 
ATOM     19  N   UNL d   1      15.137  16.433  -1.549  0.00  0.00    -0.208 NA
ATOM     20  O   UNL d   1      15.070  15.712  -0.306  0.00  0.00    -0.265 OA
BRANCH  19  21
ATOM     21  C   UNL d   1      15.427  17.090  -1.143  0.00  0.00     0.085 A 
ATOM     22  C   UNL d   1      16.132  17.115  -0.726  0.00  0.00     0.019 A 
ATOM     23  C   UNL d   1      16.199  17.881  -0.410  0.00  0.00     0.002 A 
ATOM     24  C   UNL d   1      15.535  18.314  -0.639  0.00  0.00     0.002 A 
ATOM     25  C   UNL d   1      15.060  17.830  -1.089  0.00  0.00     0.019 A 
ENDBRANCH  19  21
ENDBRANCH   5  18
BRANCH   4  26
ATOM     26  C   UNL d   1      14.469  12.941  -1.227  0.00  0.00     0.067 A 
ATOM     27  C   UNL d   1      15.144  12.465  -1.202  0.00  0.00     0.018 A 
ATOM     28  C   UNL d   1      14.945  11.779  -0.799  0.00  0.00     0.002 A 
ATOM     29  C   UNL d   1      14.144  11.820  -0.568  0.00  0.00     0.002 A 
ATOM     30  C   UNL d   1      13.858  12.544  -0.838  0.00  0.00     0.018 A 
ENDBRANCH   4  26
TORSDOF 3
ENDMDL
