MODEL 1
REMARK VINA RESULT:      -5.4      0.000      0.000
REMARK  3 active torsions:
REMARK  status: ('A' for Active; 'I' for Inactive)
REMARK    1  A    between atoms: N_4  and  C_1 
REMARK    2  A    between atoms: C_15  and  C_5 
REMARK    3  A    between atoms: C_9  and  N_8 
ROOT
ATOM      1  C   UNL d   1     -47.052  13.346  22.353  0.00  0.00     0.169 A 
ATOM      2  N   UNL d   1     -47.426  14.021  22.063  0.00  0.00    -0.130 NA
ATOM      3  N   UNL d   1     -48.236  14.125  22.234  0.00  0.00    -0.147 NA
ATOM      4  C   UNL d   1     -48.646  13.577  22.673  0.00  0.00     0.103 A 
ATOM      5  C   UNL d   1     -47.462  12.801  22.790  0.00  0.00     0.038 A 
ATOM      6  C   UNL d   1     -48.267  12.917  22.952  0.00  0.00     0.022 A 
ATOM      7  C   UNL d   1     -47.073  12.109  23.085  0.00  0.00     0.003 A 
ATOM      8  C   UNL d   1     -48.678  12.329  23.415  0.00  0.00     0.002 A 
ATOM      9  C   UNL d   1     -47.494  11.531  23.545  0.00  0.00     0.000 A 
ATOM     10  C   UNL d   1     -48.299  11.661  23.698  0.00  0.00     0.000 A 
ENDROOT
BRANCH   1  11
ATOM     11  N   UNL d   1     -46.262  13.232  22.194  0.00  0.00    -0.285 N 
ATOM     12  C   UNL d   1     -46.009  12.902  21.480  0.00  0.00     0.101 A 
ATOM     13  C   UNL d   1     -45.209  12.786  21.319  0.00  0.00     0.101 A 
ATOM     14  N   UNL d   1     -44.643  12.997  21.869  0.00  0.00    -0.286 N 
ATOM     15  C   UNL d   1     -44.879  13.322  22.576  0.00  0.00     0.101 A 
ATOM     16  C   UNL d   1     -45.704  13.442  22.742  0.00  0.00     0.101 A 
BRANCH  14  17
ATOM     17  C   UNL d   1     -43.841  12.888  21.723  0.00  0.00     0.148 A 
ATOM     18  N   UNL d   1     -43.431  12.219  21.990  0.00  0.00    -0.227 NA
ATOM     19  C   UNL d   1     -42.628  12.109  21.844  0.00  0.00     0.101 A 
ATOM     20  C   UNL d   1     -42.214  12.676  21.421  0.00  0.00     0.021 A 
ATOM     21  C   UNL d   1     -42.613  13.335  21.156  0.00  0.00     0.005 A 
ATOM     22  C   UNL d   1     -43.417  13.444  21.303  0.00  0.00     0.037 A 
ENDBRANCH  14  17
ENDBRANCH   1  11
BRANCH   4  23
ATOM     23  C   UNL d   1     -49.451  13.693  22.835  0.00  0.00     0.019 A 
ATOM     24  C   UNL d   1     -49.669  14.078  23.530  0.00  0.00     0.002 A 
ATOM     25  C   UNL d   1     -50.477  14.198  23.698  0.00  0.00     0.000 A 
ATOM     26  C   UNL d   1     -51.064  13.939  23.181  0.00  0.00     0.000 A 
ATOM     27  C   UNL d   1     -50.847  13.551  22.481  0.00  0.00     0.000 A 
ATOM     28  C   UNL d   1     -50.031  13.426  22.303  0.00  0.00     0.002 A 
ENDBRANCH   4  23
TORSDOF 3
ENDMDL
MODEL 2
REMARK VINA RESULT:      -5.2      1.732      5.425
REMARK  3 active torsions:
REMARK  status: ('A' for Active; 'I' for Inactive)
REMARK    1  A    between atoms: N_4  and  C_1 
REMARK    2  A    between atoms: C_15  and  C_5 
REMARK    3  A    between atoms: C_9  and  N_8 
ROOT
ATOM      1  C   UNL d   1     -46.927  12.231  23.198  0.00  0.00     0.169 A 
ATOM      2  N   UNL d   1     -46.944  11.534  23.637  0.00  0.00    -0.130 NA
ATOM      3  N   UNL d   1     -46.241  11.090  23.697  0.00  0.00    -0.147 NA
ATOM      4  C   UNL d   1     -45.556  11.338  23.334  0.00  0.00     0.103 A 
ATOM      5  C   UNL d   1     -46.244  12.477  22.837  0.00  0.00     0.038 A 
ATOM      6  C   UNL d   1     -45.552  12.026  22.905  0.00  0.00     0.022 A 
ATOM      7  C   UNL d   1     -46.232  13.194  22.388  0.00  0.00     0.003 A 
ATOM      8  C   UNL d   1     -44.845  12.304  22.516  0.00  0.00     0.002 A 
ATOM      9  C   UNL d   1     -45.521  13.460  22.005  0.00  0.00     0.000 A 
ATOM     10  C   UNL d   1     -44.837  12.998  22.083  0.00  0.00     0.000 A 
ENDROOT
BRANCH   1  11
ATOM     11  N   UNL d   1     -47.606  12.675  23.131  0.00  0.00    -0.285 N 
ATOM     12  C   UNL d   1     -48.171  12.514  22.549  0.00  0.00     0.101 A 
ATOM     13  C   UNL d   1     -48.859  12.962  22.481  0.00  0.00     0.101 A 
ATOM     14  N   UNL d   1     -48.998  13.583  22.993  0.00  0.00    -0.286 N 
ATOM     15  C   UNL d   1     -48.451  13.752  23.571  0.00  0.00     0.101 A 
ATOM     16  C   UNL d   1     -47.742  13.289  23.641  0.00  0.00     0.101 A 
BRANCH  14  17
ATOM     17  C   UNL d   1     -49.681  14.040  22.938  0.00  0.00     0.148 A 
ATOM     18  N   UNL d   1     -50.378  13.840  23.338  0.00  0.00    -0.227 NA
ATOM     19  C   UNL d   1     -51.062  14.298  23.282  0.00  0.00     0.101 A 
ATOM     20  C   UNL d   1     -51.058  14.974  22.818  0.00  0.00     0.021 A 
ATOM     21  C   UNL d   1     -50.373  15.172  22.423  0.00  0.00     0.005 A 
ATOM     22  C   UNL d   1     -49.690  14.714  22.479  0.00  0.00     0.037 A 
ENDBRANCH  14  17
ENDBRANCH   1  11
BRANCH   4  23
ATOM     23  C   UNL d   1     -44.864  10.886  23.402  0.00  0.00     0.019 A 
ATOM     24  C   UNL d   1     -44.921  10.096  23.627  0.00  0.00     0.002 A 
ATOM     25  C   UNL d   1     -44.228   9.637  23.698  0.00  0.00     0.000 A 
ATOM     26  C   UNL d   1     -43.485   9.958  23.547  0.00  0.00     0.000 A 
ATOM     27  C   UNL d   1     -43.425  10.755  23.320  0.00  0.00     0.000 A 
ATOM     28  C   UNL d   1     -44.121  11.226  23.246  0.00  0.00     0.002 A 
ENDBRANCH   4  23
TORSDOF 3
ENDMDL
MODEL 3
REMARK VINA RESULT:      -4.5      8.229      9.897
REMARK  3 active torsions:
REMARK  status: ('A' for Active; 'I' for Inactive)
REMARK    1  A    between atoms: N_4  and  C_1 
REMARK    2  A    between atoms: C_15  and  C_5 
REMARK    3  A    between atoms: C_9  and  N_8 
ROOT
ATOM      1  C   UNL d   1     -38.583  14.318  18.745  0.00  0.00     0.169 A 
ATOM      2  N   UNL d   1     -37.991  13.893  18.360  0.00  0.00    -0.130 NA
ATOM      3  N   UNL d   1     -37.940  13.955  17.530  0.00  0.00    -0.147 NA
ATOM      4  C   UNL d   1     -38.459  14.422  17.111  0.00  0.00     0.103 A 
ATOM      5  C   UNL d   1     -39.099  14.782  18.328  0.00  0.00     0.038 A 
ATOM      6  C   UNL d   1     -39.037  14.834  17.503  0.00  0.00     0.022 A 
ATOM      7  C   UNL d   1     -39.705  15.215  18.729  0.00  0.00     0.003 A 
ATOM      8  C   UNL d   1     -39.592  15.330  17.083  0.00  0.00     0.002 A 
ATOM      9  C   UNL d   1     -40.251  15.705  18.299  0.00  0.00     0.000 A 
ATOM     10  C   UNL d   1     -40.177  15.748  17.475  0.00  0.00     0.000 A 
ENDROOT
BRANCH   1  11
ATOM     11  N   UNL d   1     -38.644  14.266  19.555  0.00  0.00    -0.285 N 
ATOM     12  C   UNL d   1     -39.319  13.957  19.918  0.00  0.00     0.101 A 
ATOM     13  C   UNL d   1     -39.381  13.905  20.738  0.00  0.00     0.101 A 
ATOM     14  N   UNL d   1     -38.769  14.160  21.215  0.00  0.00    -0.286 N 
ATOM     15  C   UNL d   1     -38.099  14.466  20.871  0.00  0.00     0.101 A 
ATOM     16  C   UNL d   1     -38.035  14.520  20.025  0.00  0.00     0.101 A 
BRANCH  14  17
ATOM     17  C   UNL d   1     -38.817  14.114  22.036  0.00  0.00     0.148 A 
ATOM     18  N   UNL d   1     -38.986  14.776  22.505  0.00  0.00    -0.227 NA
ATOM     19  C   UNL d   1     -39.033  14.730  23.326  0.00  0.00     0.101 A 
ATOM     20  C   UNL d   1     -38.910  14.009  23.698  0.00  0.00     0.021 A 
ATOM     21  C   UNL d   1     -38.744  13.357  23.239  0.00  0.00     0.005 A 
ATOM     22  C   UNL d   1     -38.697  13.404  22.418  0.00  0.00     0.037 A 
ENDBRANCH  14  17
ENDBRANCH   1  11
BRANCH   4  23
ATOM     23  C   UNL d   1     -38.397  14.474  16.286  0.00  0.00     0.019 A 
ATOM     24  C   UNL d   1     -38.054  15.145  15.952  0.00  0.00     0.002 A 
ATOM     25  C   UNL d   1     -37.989  15.204  15.122  0.00  0.00     0.000 A 
ATOM     26  C   UNL d   1     -38.260  14.603  14.629  0.00  0.00     0.000 A 
ATOM     27  C   UNL d   1     -38.605  13.926  14.963  0.00  0.00     0.000 A 
ATOM     28  C   UNL d   1     -38.675  13.859  15.802  0.00  0.00     0.002 A 
ENDBRANCH   4  23
TORSDOF 3
ENDMDL
MODEL 4
REMARK VINA RESULT:      -3.8      7.155      9.583
REMARK  3 active torsions:
REMARK  status: ('A' for Active; 'I' for Inactive)
REMARK    1  A    between atoms: N_4  and  C_1 
REMARK    2  A    between atoms: C_15  and  C_5 
REMARK    3  A    between atoms: C_9  and  N_8 
ROOT
ATOM      1  C   UNL d   1     -39.344  14.905  17.896  0.00  0.00     0.169 A 
ATOM      2  N   UNL d   1     -39.853  15.536  18.041  0.00  0.00    -0.130 NA
ATOM      3  N   UNL d   1     -40.088  15.679  18.829  0.00  0.00    -0.147 NA
ATOM      4  C   UNL d   1     -39.822  15.208  19.437  0.00  0.00     0.103 A 
ATOM      5  C   UNL d   1     -39.080  14.437  18.502  0.00  0.00     0.038 A 
ATOM      6  C   UNL d   1     -39.321  14.590  19.280  0.00  0.00     0.022 A 
ATOM      7  C   UNL d   1     -38.558  13.790  18.347  0.00  0.00     0.003 A 
ATOM      8  C   UNL d   1     -39.030  14.084  19.904  0.00  0.00     0.002 A 
ATOM      9  C   UNL d   1     -38.275  13.293  18.976  0.00  0.00     0.000 A 
ATOM     10  C   UNL d   1     -38.524  13.459  19.750  0.00  0.00     0.000 A 
ENDROOT
BRANCH   1  11
ATOM     11  N   UNL d   1     -39.108  14.754  17.132  0.00  0.00    -0.285 N 
ATOM     12  C   UNL d   1     -38.407  15.071  16.826  0.00  0.00     0.101 A 
ATOM     13  C   UNL d   1     -38.168  14.919  16.052  0.00  0.00     0.101 A 
ATOM     14  N   UNL d   1     -38.623  14.446  15.566  0.00  0.00    -0.286 N 
ATOM     15  C   UNL d   1     -39.314  14.129  15.853  0.00  0.00     0.101 A 
ATOM     16  C   UNL d   1     -39.561  14.286  16.651  0.00  0.00     0.101 A 
BRANCH  14  17
ATOM     17  C   UNL d   1     -38.396  14.285  14.791  0.00  0.00     0.148 A 
ATOM     18  N   UNL d   1     -38.178  14.885  14.262  0.00  0.00    -0.227 NA
ATOM     19  C   UNL d   1     -37.952  14.723  13.486  0.00  0.00     0.101 A 
ATOM     20  C   UNL d   1     -37.940  13.947  13.222  0.00  0.00     0.021 A 
ATOM     21  C   UNL d   1     -38.154  13.355  13.740  0.00  0.00     0.005 A 
ATOM     22  C   UNL d   1     -38.380  13.518  14.516  0.00  0.00     0.037 A 
ENDBRANCH  14  17
ENDBRANCH   1  11
BRANCH   4  23
ATOM     23  C   UNL d   1     -40.063  15.361  20.216  0.00  0.00     0.019 A 
ATOM     24  C   UNL d   1     -40.823  15.146  20.449  0.00  0.00     0.002 A 
ATOM     25  C   UNL d   1     -41.071  15.298  21.231  0.00  0.00     0.000 A 
ATOM     26  C   UNL d   1     -40.570  15.659  21.777  0.00  0.00     0.000 A 
ATOM     27  C   UNL d   1     -39.804  15.876  21.543  0.00  0.00     0.000 A 
ATOM     28  C   UNL d   1     -39.545  15.727  20.753  0.00  0.00     0.002 A 
ENDBRANCH   4  23
TORSDOF 3
ENDMDL
MODEL 5
REMARK VINA RESULT:      -2.7      7.599      8.756
REMARK  3 active torsions:
REMARK  status: ('A' for Active; 'I' for Inactive)
REMARK    1  A    between atoms: N_4  and  C_1 
REMARK    2  A    between atoms: C_15  and  C_5 
REMARK    3  A    between atoms: C_9  and  N_8 
ROOT
ATOM      1  C   UNL d   1     -40.125  14.733  19.957  0.00  0.00     0.169 A 
ATOM      2  N   UNL d   1     -40.555  14.217  20.434  0.00  0.00    -0.130 NA
ATOM      3  N   UNL d   1     -40.242  14.019  21.181  0.00  0.00    -0.147 NA
ATOM      4  C   UNL d   1     -39.531  14.326  21.433  0.00  0.00     0.103 A 
ATOM      5  C   UNL d   1     -39.418  15.038  20.209  0.00  0.00     0.038 A 
ATOM      6  C   UNL d   1     -39.118  14.832  20.954  0.00  0.00     0.022 A 
ATOM      7  C   UNL d   1     -38.980  15.567  19.715  0.00  0.00     0.003 A 
ATOM      8  C   UNL d   1     -38.370  15.166  21.198  0.00  0.00     0.002 A 
ATOM      9  C   UNL d   1     -38.237  15.893  19.970  0.00  0.00     0.000 A 
ATOM     10  C   UNL d   1     -37.950  15.678  20.717  0.00  0.00     0.000 A 
ENDROOT
BRANCH   1  11
ATOM     11  N   UNL d   1     -40.419  14.935  19.226  0.00  0.00    -0.285 N 
ATOM     12  C   UNL d   1     -40.327  15.697  18.918  0.00  0.00     0.101 A 
ATOM     13  C   UNL d   1     -40.625  15.901  18.177  0.00  0.00     0.101 A 
ATOM     14  N   UNL d   1     -41.022  15.349  17.727  0.00  0.00    -0.286 N 
ATOM     15  C   UNL d   1     -41.121  14.596  18.017  0.00  0.00     0.101 A 
ATOM     16  C   UNL d   1     -40.813  14.385  18.781  0.00  0.00     0.101 A 
BRANCH  14  17
ATOM     17  C   UNL d   1     -41.326  15.538  16.985  0.00  0.00     0.148 A 
ATOM     18  N   UNL d   1     -42.138  15.633  16.852  0.00  0.00    -0.227 NA
ATOM     19  C   UNL d   1     -42.441  15.822  16.110  0.00  0.00     0.101 A 
ATOM     20  C   UNL d   1     -41.929  15.922  15.478  0.00  0.00     0.021 A 
ATOM     21  C   UNL d   1     -41.129  15.829  15.605  0.00  0.00     0.005 A 
ATOM     22  C   UNL d   1     -40.826  15.640  16.348  0.00  0.00     0.037 A 
ENDBRANCH  14  17
ENDBRANCH   1  11
BRANCH   4  23
ATOM     23  C   UNL d   1     -39.231  14.120  22.178  0.00  0.00     0.019 A 
ATOM     24  C   UNL d   1     -39.108  14.712  22.738  0.00  0.00     0.002 A 
ATOM     25  C   UNL d   1     -38.807  14.511  23.489  0.00  0.00     0.000 A 
ATOM     26  C   UNL d   1     -38.629  13.730  23.684  0.00  0.00     0.000 A 
ATOM     27  C   UNL d   1     -38.752  13.133  23.121  0.00  0.00     0.000 A 
ATOM     28  C   UNL d   1     -39.057  13.328  22.359  0.00  0.00     0.002 A 
ENDBRANCH   4  23
TORSDOF 3
ENDMDL
