MODEL 1
REMARK VINA RESULT:     -10.6      0.000      0.000
REMARK  4 active torsions:
REMARK  status: ('A' for Active; 'I' for Inactive)
REMARK    1  A    between atoms: S_2  and  N_1 
REMARK    2  A    between atoms: C_7  and  S_2 
REMARK    3  A    between atoms: C_10  and  C_3 
REMARK    4  A    between atoms: C_14  and  C_10 
ROOT
ATOM      1  N   UNL d   1      52.815  32.305  53.353  0.00  0.00    -0.214 N 
ATOM      2  C   UNL d   1      53.495  32.564  53.758  0.00  0.00     0.157 A 
ATOM      3  N   UNL d   1      53.962  31.897  53.902  0.00  0.00    -0.226 NA
ATOM      4  C   UNL d   1      52.872  31.486  53.253  0.00  0.00     0.094 A 
ATOM      5  C   UNL d   1      53.579  31.226  53.590  0.00  0.00     0.100 A 
ATOM      6  C   UNL d   1      52.363  30.938  52.893  0.00  0.00     0.020 A 
ATOM      7  C   UNL d   1      53.788  30.419  53.573  0.00  0.00     0.021 A 
ATOM      8  C   UNL d   1      52.566  30.129  52.873  0.00  0.00     0.002 A 
ATOM      9  C   UNL d   1      53.283  29.889  53.219  0.00  0.00     0.002 A 
ENDROOT
BRANCH   1  10
ATOM     10  S   UNL d   1      52.204  32.800  53.104  0.00  0.00     0.272 S 
ATOM     11  O   UNL d   1      51.848  32.691  53.844  0.00  0.00    -0.200 OA
ATOM     12  O   UNL d   1      52.560  32.905  52.371  0.00  0.00    -0.200 OA
BRANCH  10  13
ATOM     13  C   UNL d   1      51.588  33.292  52.868  0.00  0.00     0.104 A 
ATOM     14  C   UNL d   1      50.908  33.333  53.334  0.00  0.00     0.013 A 
ATOM     15  C   UNL d   1      50.288  33.826  53.100  0.00  0.00     0.007 A 
ATOM     16  C   UNL d   1      50.360  34.258  52.418  0.00  0.00     0.035 A 
ATOM     17  C   UNL d   1      51.030  34.220  51.957  0.00  0.00     0.007 A 
ATOM     18 BR   UNL d   1      49.727  34.763  52.177  0.00  0.00    -0.049 Br
ATOM     19  C   UNL d   1      51.646  33.730  52.189  0.00  0.00     0.013 A 
ENDBRANCH  10  13
ENDBRANCH   1  10
BRANCH   2  20
ATOM     20  C   UNL d   1      53.668  33.360  53.977  0.00  0.00     0.038 C 
BRANCH  20  21
ATOM     21  C   UNL d   1      54.308  33.528  54.470  0.00  0.00     0.003 A 
ATOM     22  C   UNL d   1      55.053  33.706  54.142  0.00  0.00     0.000 A 
ATOM     23  C   UNL d   1      55.690  33.873  54.631  0.00  0.00     0.000 A 
ATOM     24  C   UNL d   1      55.602  33.868  55.449  0.00  0.00     0.000 A 
ATOM     25  C   UNL d   1      54.861  33.691  55.776  0.00  0.00     0.000 A 
ATOM     26  C   UNL d   1      54.218  33.522  55.289  0.00  0.00     0.000 A 
ENDBRANCH  20  21
ENDBRANCH   2  20
TORSDOF 4
ENDMDL
MODEL 2
REMARK VINA RESULT:     -10.4      0.634      2.862
REMARK  4 active torsions:
REMARK  status: ('A' for Active; 'I' for Inactive)
REMARK    1  A    between atoms: S_2  and  N_1 
REMARK    2  A    between atoms: C_7  and  S_2 
REMARK    3  A    between atoms: C_10  and  C_3 
REMARK    4  A    between atoms: C_14  and  C_10 
ROOT
ATOM      1  N   UNL d   1      52.941  33.068  53.706  0.00  0.00    -0.214 N 
ATOM      2  C   UNL d   1      53.190  32.277  53.631  0.00  0.00     0.157 A 
ATOM      3  N   UNL d   1      53.865  32.189  54.102  0.00  0.00    -0.226 NA
ATOM      4  C   UNL d   1      53.462  33.454  54.218  0.00  0.00     0.094 A 
ATOM      5  C   UNL d   1      54.036  32.917  54.467  0.00  0.00     0.100 A 
ATOM      6  C   UNL d   1      53.485  34.238  54.493  0.00  0.00     0.020 A 
ATOM      7  C   UNL d   1      54.641  33.152  54.992  0.00  0.00     0.021 A 
ATOM      8  C   UNL d   1      54.087  34.479  55.017  0.00  0.00     0.002 A 
ATOM      9  C   UNL d   1      54.656  33.922  55.255  0.00  0.00     0.002 A 
ENDROOT
BRANCH   1  10
ATOM     10  S   UNL d   1      52.283  33.387  53.324  0.00  0.00     0.272 S 
ATOM     11  O   UNL d   1      51.843  33.238  54.009  0.00  0.00    -0.200 OA
ATOM     12  O   UNL d   1      52.723  33.533  52.645  0.00  0.00    -0.200 OA
BRANCH  10  13
ATOM     13  C   UNL d   1      51.620  33.703  52.953  0.00  0.00     0.104 A 
ATOM     14  C   UNL d   1      50.894  33.683  53.347  0.00  0.00     0.013 A 
ATOM     15  C   UNL d   1      50.226  33.999  52.978  0.00  0.00     0.007 A 
ATOM     16  C   UNL d   1      50.297  34.322  52.238  0.00  0.00     0.035 A 
ATOM     17  C   UNL d   1      51.011  34.344  51.847  0.00  0.00     0.007 A 
ATOM     18 BR   UNL d   1      49.615  34.646  51.859  0.00  0.00    -0.049 Br
ATOM     19  C   UNL d   1      51.675  34.030  52.213  0.00  0.00     0.013 A 
ENDBRANCH  10  13
ENDBRANCH   1  10
BRANCH   2  20
ATOM     20  C   UNL d   1      52.819  31.683  53.162  0.00  0.00     0.038 C 
BRANCH  20  21
ATOM     21  C   UNL d   1      52.992  30.885  53.284  0.00  0.00     0.003 A 
ATOM     22  C   UNL d   1      52.460  30.402  53.707  0.00  0.00     0.000 A 
ATOM     23  C   UNL d   1      52.631  29.609  53.829  0.00  0.00     0.000 A 
ATOM     24  C   UNL d   1      53.327  29.281  53.537  0.00  0.00     0.000 A 
ATOM     25  C   UNL d   1      53.856  29.762  53.116  0.00  0.00     0.000 A 
ATOM     26  C   UNL d   1      53.689  30.558  52.991  0.00  0.00     0.000 A 
ENDBRANCH  20  21
ENDBRANCH   2  20
TORSDOF 4
ENDMDL
MODEL 3
REMARK VINA RESULT:      -9.6      1.599      3.641
REMARK  4 active torsions:
REMARK  status: ('A' for Active; 'I' for Inactive)
REMARK    1  A    between atoms: S_2  and  N_1 
REMARK    2  A    between atoms: C_7  and  S_2 
REMARK    3  A    between atoms: C_10  and  C_3 
REMARK    4  A    between atoms: C_14  and  C_10 
ROOT
ATOM      1  N   UNL d   1      53.210  32.210  53.478  0.00  0.00    -0.214 N 
ATOM      2  C   UNL d   1      52.584  32.564  53.059  0.00  0.00     0.157 A 
ATOM      3  N   UNL d   1      52.163  31.955  52.688  0.00  0.00    -0.226 NA
ATOM      4  C   UNL d   1      53.167  31.392  53.362  0.00  0.00     0.094 A 
ATOM      5  C   UNL d   1      52.522  31.227  52.875  0.00  0.00     0.100 A 
ATOM      6  C   UNL d   1      53.640  30.770  53.642  0.00  0.00     0.020 A 
ATOM      7  C   UNL d   1      52.339  30.442  52.660  0.00  0.00     0.021 A 
ATOM      8  C   UNL d   1      53.463  29.983  53.432  0.00  0.00     0.002 A 
ATOM      9  C   UNL d   1      52.808  29.839  52.940  0.00  0.00     0.002 A 
ENDROOT
BRANCH   1  10
ATOM     10  S   UNL d   1      53.765  32.625  53.925  0.00  0.00     0.272 S 
ATOM     11  O   UNL d   1      53.285  32.503  54.589  0.00  0.00    -0.200 OA
ATOM     12  O   UNL d   1      54.239  32.744  53.264  0.00  0.00    -0.200 OA
BRANCH  10  13
ATOM     13  C   UNL d   1      54.311  33.037  54.382  0.00  0.00     0.104 A 
ATOM     14  C   UNL d   1      54.131  33.198  55.172  0.00  0.00     0.013 A 
ATOM     15  C   UNL d   1      54.678  33.612  55.633  0.00  0.00     0.007 A 
ATOM     16  C   UNL d   1      55.377  33.851  55.301  0.00  0.00     0.035 A 
ATOM     17  C   UNL d   1      55.557  33.694  54.523  0.00  0.00     0.007 A 
ATOM     18 BR   UNL d   1      55.937  34.274  55.773  0.00  0.00    -0.049 Br
ATOM     19  C   UNL d   1      55.015  33.283  54.064  0.00  0.00     0.013 A 
ENDBRANCH  10  13
ENDBRANCH   1  10
BRANCH   2  20
ATOM     20  C   UNL d   1      52.417  33.389  53.022  0.00  0.00     0.038 C 
BRANCH  20  21
ATOM     21  C   UNL d   1      51.682  33.656  52.757  0.00  0.00     0.003 A 
ATOM     22  C   UNL d   1      51.591  33.920  51.971  0.00  0.00     0.000 A 
ATOM     23  C   UNL d   1      50.861  34.185  51.708  0.00  0.00     0.000 A 
ATOM     24  C   UNL d   1      50.211  34.194  52.213  0.00  0.00     0.000 A 
ATOM     25  C   UNL d   1      50.302  33.932  52.994  0.00  0.00     0.000 A 
ATOM     26  C   UNL d   1      51.033  33.665  53.264  0.00  0.00     0.000 A 
ENDBRANCH  20  21
ENDBRANCH   2  20
TORSDOF 4
ENDMDL
MODEL 4
REMARK VINA RESULT:      -9.0      1.726      4.098
REMARK  4 active torsions:
REMARK  status: ('A' for Active; 'I' for Inactive)
REMARK    1  A    between atoms: S_2  and  N_1 
REMARK    2  A    between atoms: C_7  and  S_2 
REMARK    3  A    between atoms: C_10  and  C_3 
REMARK    4  A    between atoms: C_14  and  C_10 
ROOT
ATOM      1  N   UNL d   1      53.382  32.696  53.994  0.00  0.00    -0.214 N 
ATOM      2  C   UNL d   1      52.817  33.176  53.615  0.00  0.00     0.157 A 
ATOM      3  N   UNL d   1      53.014  33.963  53.784  0.00  0.00    -0.226 NA
ATOM      4  C   UNL d   1      53.916  33.189  54.389  0.00  0.00     0.094 A 
ATOM      5  C   UNL d   1      53.695  33.974  54.264  0.00  0.00     0.100 A 
ATOM      6  C   UNL d   1      54.584  33.019  54.853  0.00  0.00     0.020 A 
ATOM      7  C   UNL d   1      54.135  34.599  54.598  0.00  0.00     0.021 A 
ATOM      8  C   UNL d   1      55.028  33.639  55.189  0.00  0.00     0.002 A 
ATOM      9  C   UNL d   1      54.787  34.423  55.050  0.00  0.00     0.002 A 
ENDROOT
BRANCH   1  10
ATOM     10  S   UNL d   1      53.387  31.872  53.965  0.00  0.00     0.272 S 
ATOM     11  O   UNL d   1      52.917  31.869  54.648  0.00  0.00    -0.200 OA
ATOM     12  O   UNL d   1      53.853  31.878  53.288  0.00  0.00    -0.200 OA
BRANCH  10  13
ATOM     13  C   UNL d   1      53.384  31.049  53.947  0.00  0.00     0.104 A 
ATOM     14  C   UNL d   1      53.233  30.634  54.645  0.00  0.00     0.013 A 
ATOM     15  C   UNL d   1      53.229  29.808  54.630  0.00  0.00     0.007 A 
ATOM     16  C   UNL d   1      53.374  29.423  53.932  0.00  0.00     0.035 A 
ATOM     17  C   UNL d   1      53.523  29.830  53.242  0.00  0.00     0.007 A 
ATOM     18 BR   UNL d   1      53.370  28.578  53.916  0.00  0.00    -0.049 Br
ATOM     19  C   UNL d   1      53.526  30.650  53.256  0.00  0.00     0.013 A 
ENDBRANCH  10  13
ENDBRANCH   1  10
BRANCH   2  20
ATOM     20  C   UNL d   1      52.170  32.906  53.149  0.00  0.00     0.038 C 
BRANCH  20  21
ATOM     21  C   UNL d   1      51.592  33.436  52.888  0.00  0.00     0.003 A 
ATOM     22  C   UNL d   1      50.903  33.559  53.341  0.00  0.00     0.000 A 
ATOM     23  C   UNL d   1      50.329  34.085  53.082  0.00  0.00     0.000 A 
ATOM     24  C   UNL d   1      50.425  34.496  52.376  0.00  0.00     0.000 A 
ATOM     25  C   UNL d   1      51.111  34.373  51.926  0.00  0.00     0.000 A 
ATOM     26  C   UNL d   1      51.690  33.846  52.181  0.00  0.00     0.000 A 
ENDBRANCH  20  21
ENDBRANCH   2  20
TORSDOF 4
ENDMDL
MODEL 5
REMARK VINA RESULT:      -7.7      1.537      3.067
REMARK  4 active torsions:
REMARK  status: ('A' for Active; 'I' for Inactive)
REMARK    1  A    between atoms: S_2  and  N_1 
REMARK    2  A    between atoms: C_7  and  S_2 
REMARK    3  A    between atoms: C_10  and  C_3 
REMARK    4  A    between atoms: C_14  and  C_10 
ROOT
ATOM      1  N   UNL d   1      52.778  32.738  53.265  0.00  0.00    -0.214 N 
ATOM      2  C   UNL d   1      53.412  33.144  53.621  0.00  0.00     0.157 A 
ATOM      3  N   UNL d   1      53.239  33.953  53.577  0.00  0.00    -0.226 NA
ATOM      4  C   UNL d   1      52.226  33.298  53.008  0.00  0.00     0.094 A 
ATOM      5  C   UNL d   1      52.504  34.051  53.197  0.00  0.00     0.100 A 
ATOM      6  C   UNL d   1      51.497  33.214  52.620  0.00  0.00     0.020 A 
ATOM      7  C   UNL d   1      52.061  34.730  53.003  0.00  0.00     0.021 A 
ATOM      8  C   UNL d   1      51.048  33.889  52.424  0.00  0.00     0.002 A 
ATOM      9  C   UNL d   1      51.347  34.639  52.623  0.00  0.00     0.002 A 
ENDROOT
BRANCH   1  10
ATOM     10  S   UNL d   1      52.732  31.918  53.194  0.00  0.00     0.272 S 
ATOM     11  O   UNL d   1      52.349  31.900  53.928  0.00  0.00    -0.200 OA
ATOM     12  O   UNL d   1      53.113  31.940  52.465  0.00  0.00    -0.200 OA
BRANCH  10  13
ATOM     13  C   UNL d   1      52.680  31.099  53.134  0.00  0.00     0.104 A 
ATOM     14  C   UNL d   1      52.172  30.692  53.642  0.00  0.00     0.013 A 
ATOM     15  C   UNL d   1      52.117  29.870  53.585  0.00  0.00     0.007 A 
ATOM     16  C   UNL d   1      52.564  29.480  53.032  0.00  0.00     0.035 A 
ATOM     17  C   UNL d   1      53.066  29.878  52.530  0.00  0.00     0.007 A 
ATOM     18 BR   UNL d   1      52.509  28.639  52.972  0.00  0.00    -0.049 Br
ATOM     19  C   UNL d   1      53.121  30.695  52.586  0.00  0.00     0.013 A 
ENDBRANCH  10  13
ENDBRANCH   1  10
BRANCH   2  20
ATOM     20  C   UNL d   1      54.098  32.792  53.961  0.00  0.00     0.038 C 
BRANCH  20  21
ATOM     21  C   UNL d   1      54.579  33.223  54.474  0.00  0.00     0.003 A 
ATOM     22  C   UNL d   1      54.399  33.255  55.288  0.00  0.00     0.000 A 
ATOM     23  C   UNL d   1      54.877  33.683  55.799  0.00  0.00     0.000 A 
ATOM     24  C   UNL d   1      55.537  34.086  55.517  0.00  0.00     0.000 A 
ATOM     25  C   UNL d   1      55.716  34.054  54.708  0.00  0.00     0.000 A 
ATOM     26  C   UNL d   1      55.240  33.626  54.190  0.00  0.00     0.000 A 
ENDBRANCH  20  21
ENDBRANCH   2  20
TORSDOF 4
ENDMDL
