MODEL 1
REMARK VINA RESULT:      -8.5      0.000      0.000
REMARK  3 active torsions:
REMARK  status: ('A' for Active; 'I' for Inactive)
REMARK    1  A    between atoms: C_4  and  C_1 
REMARK    2  A    between atoms: N_2  and  C_9 
REMARK       I    between atoms: N_7  and  C_4 
REMARK    3  A    between atoms: C_11  and  N_7 
ROOT
ATOM      1  C   UNL d   1      52.080  33.536  53.495  0.00  0.00     0.087 A 
ATOM      2  S   UNL d   1      52.590  32.915  53.309  0.00  0.00    -0.082 SA
ATOM      3  C   UNL d   1      52.450  34.021  54.037  0.00  0.00     0.012 A 
ATOM      4  C   UNL d   1      53.202  33.708  54.200  0.00  0.00     0.008 A 
ATOM      5  C   UNL d   1      53.291  33.005  53.736  0.00  0.00     0.030 A 
ATOM      6  C   UNL d   1      54.496  33.521  54.733  0.00  0.00     0.127 A 
ATOM      7  C   UNL d   1      53.805  33.950  54.686  0.00  0.00     0.024 A 
ATOM      8  C   UNL d   1      53.978  32.582  53.786  0.00  0.00     0.008 A 
ATOM      9  C   UNL d   1      54.585  32.817  54.269  0.00  0.00     0.024 A 
ENDROOT
BRANCH   1  10
ATOM     10  C   UNL d   1      51.324  33.646  53.183  0.00  0.00     0.286 C 
ATOM     11  N   UNL d   1      51.135  34.330  52.763  0.00  0.00    -0.189 NA
ATOM     12  O   UNL d   1      50.733  33.058  53.291  0.00  0.00    -0.265 OA
BRANCH  11  13
ATOM     13  C   UNL d   1      50.384  34.455  52.445  0.00  0.00     0.166 A 
ATOM     14  N   UNL d   1      49.807  34.827  52.922  0.00  0.00    -0.225 NA
ATOM     15  C   UNL d   1      49.051  34.960  52.620  0.00  0.00     0.101 A 
ATOM     16  C   UNL d   1      48.866  34.723  51.838  0.00  0.00     0.021 A 
ATOM     17  C   UNL d   1      49.431  34.362  51.377  0.00  0.00     0.005 A 
ATOM     18  C   UNL d   1      50.197  34.227  51.684  0.00  0.00     0.039 A 
ENDBRANCH  11  13
ENDBRANCH   1  10
BRANCH   6  19
ATOM     19  N   UNL d   1      55.136  33.757  55.234  0.00  0.00    -0.114 N 
ATOM     20  O   UNL d   1      55.099  33.675  56.040  0.00  0.00    -0.532 OA
ATOM     21  O   UNL d   1      55.814  34.079  54.883  0.00  0.00    -0.532 OA
ENDBRANCH   6  19
TORSDOF 3
ENDMDL
MODEL 2
REMARK VINA RESULT:      -7.9      2.818      3.869
REMARK  3 active torsions:
REMARK  status: ('A' for Active; 'I' for Inactive)
REMARK    1  A    between atoms: C_4  and  C_1 
REMARK    2  A    between atoms: N_2  and  C_9 
REMARK       I    between atoms: N_7  and  C_4 
REMARK    3  A    between atoms: C_11  and  N_7 
ROOT
ATOM      1  C   UNL d   1      53.373  32.095  53.790  0.00  0.00     0.087 A 
ATOM      2  S   UNL d   1      53.083  31.645  53.161  0.00  0.00    -0.082 SA
ATOM      3  C   UNL d   1      53.565  31.589  54.400  0.00  0.00     0.012 A 
ATOM      4  C   UNL d   1      53.399  30.811  54.162  0.00  0.00     0.008 A 
ATOM      5  C   UNL d   1      53.092  30.847  53.373  0.00  0.00     0.030 A 
ATOM      6  C   UNL d   1      53.263  29.406  54.150  0.00  0.00     0.127 A 
ATOM      7  C   UNL d   1      53.477  30.093  54.531  0.00  0.00     0.024 A 
ATOM      8  C   UNL d   1      52.881  30.163  52.999  0.00  0.00     0.008 A 
ATOM      9  C   UNL d   1      52.956  29.442  53.362  0.00  0.00     0.024 A 
ENDROOT
BRANCH   1  10
ATOM     10  C   UNL d   1      53.452  32.916  53.796  0.00  0.00     0.286 C 
ATOM     11  N   UNL d   1      52.933  33.386  54.231  0.00  0.00    -0.189 NA
ATOM     12  O   UNL d   1      54.066  33.284  53.358  0.00  0.00    -0.265 OA
BRANCH  11  13
ATOM     13  C   UNL d   1      52.998  34.209  54.249  0.00  0.00     0.166 A 
ATOM     14  N   UNL d   1      53.352  34.566  54.917  0.00  0.00    -0.225 NA
ATOM     15  C   UNL d   1      53.425  35.387  54.950  0.00  0.00     0.101 A 
ATOM     16  C   UNL d   1      53.145  35.858  54.317  0.00  0.00     0.021 A 
ATOM     17  C   UNL d   1      52.802  35.506  53.669  0.00  0.00     0.005 A 
ATOM     18  C   UNL d   1      52.728  34.674  53.634  0.00  0.00     0.039 A 
ENDBRANCH  11  13
ENDBRANCH   1  10
BRANCH   6  19
ATOM     19  N   UNL d   1      53.338  28.648  54.519  0.00  0.00    -0.114 N 
ATOM     20  O   UNL d   1      53.352  28.565  55.326  0.00  0.00    -0.532 OA
ATOM     21  O   UNL d   1      53.397  27.977  54.036  0.00  0.00    -0.532 OA
ENDBRANCH   6  19
TORSDOF 3
ENDMDL
MODEL 3
REMARK VINA RESULT:      -7.8      2.590      4.165
REMARK  3 active torsions:
REMARK  status: ('A' for Active; 'I' for Inactive)
REMARK    1  A    between atoms: C_4  and  C_1 
REMARK    2  A    between atoms: N_2  and  C_9 
REMARK       I    between atoms: N_7  and  C_4 
REMARK    3  A    between atoms: C_11  and  N_7 
ROOT
ATOM      1  C   UNL d   1      53.320  32.477  53.773  0.00  0.00     0.087 A 
ATOM      2  S   UNL d   1      52.868  32.880  53.213  0.00  0.00    -0.082 SA
ATOM      3  C   UNL d   1      53.577  33.014  54.331  0.00  0.00     0.012 A 
ATOM      4  C   UNL d   1      53.287  33.765  54.128  0.00  0.00     0.008 A 
ATOM      5  C   UNL d   1      52.836  33.680  53.417  0.00  0.00     0.030 A 
ATOM      6  C   UNL d   1      53.008  35.149  54.139  0.00  0.00     0.127 A 
ATOM      7  C   UNL d   1      53.363  34.496  54.472  0.00  0.00     0.024 A 
ATOM      8  C   UNL d   1      52.485  34.330  53.089  0.00  0.00     0.008 A 
ATOM      9  C   UNL d   1      52.556  35.064  53.428  0.00  0.00     0.024 A 
ENDROOT
BRANCH   1  10
ATOM     10  C   UNL d   1      53.484  31.668  53.766  0.00  0.00     0.286 C 
ATOM     11  N   UNL d   1      52.914  31.121  54.001  0.00  0.00    -0.189 NA
ATOM     12  O   UNL d   1      54.237  31.392  53.519  0.00  0.00    -0.265 OA
BRANCH  11  13
ATOM     13  C   UNL d   1      53.061  30.309  54.000  0.00  0.00     0.166 A 
ATOM     14  N   UNL d   1      53.259  29.940  54.723  0.00  0.00    -0.225 NA
ATOM     15  C   UNL d   1      53.409  29.129  54.741  0.00  0.00     0.101 A 
ATOM     16  C   UNL d   1      53.362  28.680  54.035  0.00  0.00     0.021 A 
ATOM     17  C   UNL d   1      53.168  29.043  53.333  0.00  0.00     0.005 A 
ATOM     18  C   UNL d   1      53.017  29.865  53.316  0.00  0.00     0.039 A 
ENDBRANCH  11  13
ENDBRANCH   1  10
BRANCH   6  19
ATOM     19  N   UNL d   1      53.075  35.919  54.483  0.00  0.00    -0.114 N 
ATOM     20  O   UNL d   1      53.710  36.401  54.332  0.00  0.00    -0.532 OA
ATOM     21  O   UNL d   1      52.471  36.181  54.988  0.00  0.00    -0.532 OA
ENDBRANCH   6  19
TORSDOF 3
ENDMDL
MODEL 4
REMARK VINA RESULT:      -7.7      1.711      5.144
REMARK  3 active torsions:
REMARK  status: ('A' for Active; 'I' for Inactive)
REMARK    1  A    between atoms: C_4  and  C_1 
REMARK    2  A    between atoms: N_2  and  C_9 
REMARK       I    between atoms: N_7  and  C_4 
REMARK    3  A    between atoms: C_11  and  N_7 
ROOT
ATOM      1  C   UNL d   1      51.605  34.257  52.942  0.00  0.00     0.087 A 
ATOM      2  S   UNL d   1      50.972  34.562  53.374  0.00  0.00    -0.082 SA
ATOM      3  C   UNL d   1      51.351  34.113  52.180  0.00  0.00     0.012 A 
ATOM      4  C   UNL d   1      50.551  34.328  52.122  0.00  0.00     0.008 A 
ATOM      5  C   UNL d   1      50.310  34.613  52.882  0.00  0.00     0.030 A 
ATOM      6  C   UNL d   1      49.251  34.560  51.622  0.00  0.00     0.127 A 
ATOM      7  C   UNL d   1      50.018  34.308  51.512  0.00  0.00     0.024 A 
ATOM      8  C   UNL d   1      49.549  34.863  52.988  0.00  0.00     0.008 A 
ATOM      9  C   UNL d   1      49.010  34.846  52.382  0.00  0.00     0.024 A 
ENDROOT
BRANCH   1  10
ATOM     10  C   UNL d   1      52.364  34.121  53.234  0.00  0.00     0.286 C 
ATOM     11  N   UNL d   1      52.558  33.402  53.589  0.00  0.00    -0.189 NA
ATOM     12  O   UNL d   1      52.953  34.716  53.173  0.00  0.00    -0.265 OA
BRANCH  11  13
ATOM     13  C   UNL d   1      53.312  33.250  53.886  0.00  0.00     0.166 A 
ATOM     14  N   UNL d   1      53.858  32.844  53.400  0.00  0.00    -0.225 NA
ATOM     15  C   UNL d   1      54.616  32.684  53.681  0.00  0.00     0.101 A 
ATOM     16  C   UNL d   1      54.836  32.927  54.452  0.00  0.00     0.021 A 
ATOM     17  C   UNL d   1      54.302  33.321  54.922  0.00  0.00     0.005 A 
ATOM     18  C   UNL d   1      53.533  33.484  54.637  0.00  0.00     0.039 A 
ENDBRANCH  11  13
ENDBRANCH   1  10
BRANCH   6  19
ATOM     19  N   UNL d   1      48.681  34.547  50.997  0.00  0.00    -0.114 N 
ATOM     20  O   UNL d   1      48.420  33.851  50.672  0.00  0.00    -0.532 OA
ATOM     21  O   UNL d   1      48.387  35.269  50.716  0.00  0.00    -0.532 OA
ENDBRANCH   6  19
TORSDOF 3
ENDMDL
