MODEL 1
REMARK VINA RESULT:      55.6      0.000      0.000
REMARK  5 active torsions:
REMARK  status: ('A' for Active; 'I' for Inactive)
REMARK    1  A    between atoms: C_7  and  C_1 
REMARK    2  A    between atoms: C_5  and  S_14 
REMARK       I    between atoms: N_13  and  C_7 
REMARK    3  A    between atoms: C_18  and  N_13 
REMARK    4  A    between atoms: S_14  and  C_19 
REMARK    5  A    between atoms: C_19  and  C_18 
ROOT
ATOM      1  C   UNL d   1     -51.006  26.561  36.056  0.00  0.00     0.056 C 
ENDROOT
BRANCH   1   2
ATOM      2  S   UNL d   1     -51.665  26.553  36.565  0.00  0.00    -0.083 SA
BRANCH   2   3
ATOM      3  C   UNL d   1     -51.562  26.375  37.371  0.00  0.00     0.050 A 
ATOM      4  C   UNL d   1     -52.050  25.884  37.816  0.00  0.00     0.025 A 
ATOM      5  C   UNL d   1     -51.746  25.860  38.591  0.00  0.00     0.082 A 
ATOM      6  C   UNL d   1     -52.733  25.451  37.628  0.00  0.00     0.002 A 
ATOM      7  C   UNL d   1     -52.123  25.407  39.171  0.00  0.00     0.019 A 
ATOM      8  N   UNL d   1     -51.071  26.341  38.609  0.00  0.00    -0.243 NA
ATOM      9  C   UNL d   1     -52.799  24.980  38.978  0.00  0.00     0.002 A 
ATOM     10  C   UNL d   1     -53.106  25.003  38.200  0.00  0.00     0.000 A 
ATOM     11  C   UNL d   1     -50.960  26.656  37.857  0.00  0.00     0.105 A 
ENDBRANCH   2   3
ENDBRANCH   1   2
BRANCH   1  12
ATOM     12  C   UNL d   1     -51.099  26.363  35.260  0.00  0.00     0.109 C 
BRANCH  12  13
ATOM     13  N   UNL d   1     -50.748  26.838  34.666  0.00  0.00    -0.204 NA
ATOM     14  C   UNL d   1     -50.721  26.574  33.887  0.00  0.00     0.302 C 
ATOM     15  O   UNL d   1     -50.374  27.046  33.306  0.00  0.00    -0.263 OA
BRANCH  14  16
ATOM     16  C   UNL d   1     -51.044  25.832  33.686  0.00  0.00     0.158 A 
ATOM     17  O   UNL d   1     -51.823  25.555  33.650  0.00  0.00    -0.296 OA
ATOM     18  C   UNL d   1     -51.797  24.766  33.415  0.00  0.00     0.134 A 
ATOM     19 BR   UNL d   1     -52.456  24.266  33.306  0.00  0.00    -0.022 Br
ATOM     20  C   UNL d   1     -51.010  24.551  33.307  0.00  0.00     0.034 A 
ATOM     21  C   UNL d   1     -50.546  25.210  33.474  0.00  0.00     0.032 A 
ENDBRANCH  14  16
ENDBRANCH  12  13
ENDBRANCH   1  12
TORSDOF 5
ENDMDL
MODEL 2
REMARK VINA RESULT:      55.9      3.978      4.889
REMARK  5 active torsions:
REMARK  status: ('A' for Active; 'I' for Inactive)
REMARK    1  A    between atoms: C_7  and  C_1 
REMARK    2  A    between atoms: C_5  and  S_14 
REMARK       I    between atoms: N_13  and  C_7 
REMARK    3  A    between atoms: C_18  and  N_13 
REMARK    4  A    between atoms: S_14  and  C_19 
REMARK    5  A    between atoms: C_19  and  C_18 
ROOT
ATOM      1  C   UNL d   1     -49.858  27.365  34.159  0.00  0.00     0.056 C 
ENDROOT
BRANCH   1   2
ATOM      2  S   UNL d   1     -49.985  26.879  33.495  0.00  0.00    -0.083 SA
BRANCH   2   3
ATOM      3  C   UNL d   1     -50.674  26.416  33.447  0.00  0.00     0.050 A 
ATOM      4  C   UNL d   1     -50.695  25.594  33.403  0.00  0.00     0.025 A 
ATOM      5  C   UNL d   1     -51.494  25.363  33.363  0.00  0.00     0.082 A 
ATOM      6  C   UNL d   1     -50.098  25.018  33.394  0.00  0.00     0.002 A 
ATOM      7  C   UNL d   1     -51.692  24.562  33.314  0.00  0.00     0.019 A 
ATOM      8  N   UNL d   1     -51.955  26.052  33.383  0.00  0.00    -0.243 NA
ATOM      9  C   UNL d   1     -51.096  23.995  33.306  0.00  0.00     0.002 A 
ATOM     10  C   UNL d   1     -50.292  24.226  33.346  0.00  0.00     0.000 A 
ATOM     11  C   UNL d   1     -51.448  26.698  33.435  0.00  0.00     0.105 A 
ENDBRANCH   2   3
ENDBRANCH   1   2
BRANCH   1  12
ATOM     12  C   UNL d   1     -49.247  27.920  34.152  0.00  0.00     0.109 C 
BRANCH  12  13
ATOM     13  N   UNL d   1     -49.367  28.669  33.796  0.00  0.00    -0.204 NA
ATOM     14  C   UNL d   1     -49.010  29.339  34.114  0.00  0.00     0.302 C 
ATOM     15  O   UNL d   1     -49.131  30.075  33.760  0.00  0.00    -0.263 OA
BRANCH  14  16
ATOM     16  C   UNL d   1     -48.528  29.274  34.792  0.00  0.00     0.158 A 
ATOM     17  O   UNL d   1     -48.657  28.936  35.536  0.00  0.00    -0.296 OA
ATOM     18  C   UNL d   1     -47.971  29.042  35.981  0.00  0.00     0.134 A 
ATOM     19 BR   UNL d   1     -47.854  28.787  36.766  0.00  0.00    -0.022 Br
ATOM     20  C   UNL d   1     -47.420  29.443  35.520  0.00  0.00     0.034 A 
ATOM     21  C   UNL d   1     -47.765  29.586  34.786  0.00  0.00     0.032 A 
ENDBRANCH  14  16
ENDBRANCH  12  13
ENDBRANCH   1  12
TORSDOF 5
ENDMDL
MODEL 3
REMARK VINA RESULT:      56.8      3.862      5.244
REMARK  5 active torsions:
REMARK  status: ('A' for Active; 'I' for Inactive)
REMARK    1  A    between atoms: C_7  and  C_1 
REMARK    2  A    between atoms: C_5  and  S_14 
REMARK       I    between atoms: N_13  and  C_7 
REMARK    3  A    between atoms: C_18  and  N_13 
REMARK    4  A    between atoms: S_14  and  C_19 
REMARK    5  A    between atoms: C_19  and  C_18 
ROOT
ATOM      1  C   UNL d   1     -48.650  28.409  34.851  0.00  0.00     0.056 C 
ENDROOT
BRANCH   1   2
ATOM      2  S   UNL d   1     -48.071  28.953  34.600  0.00  0.00    -0.083 SA
BRANCH   2   3
ATOM      3  C   UNL d   1     -47.818  29.554  35.116  0.00  0.00     0.050 A 
ATOM      4  C   UNL d   1     -47.773  30.355  34.930  0.00  0.00     0.025 A 
ATOM      5  C   UNL d   1     -47.493  30.756  35.604  0.00  0.00     0.082 A 
ATOM      6  C   UNL d   1     -47.947  30.781  34.240  0.00  0.00     0.002 A 
ATOM      7  C   UNL d   1     -47.390  31.576  35.586  0.00  0.00     0.019 A 
ATOM      8  N   UNL d   1     -47.370  30.191  36.198  0.00  0.00    -0.243 NA
ATOM      9  C   UNL d   1     -47.564  31.993  34.898  0.00  0.00     0.002 A 
ATOM     10  C   UNL d   1     -47.846  31.591  34.220  0.00  0.00     0.000 A 
ATOM     11  C   UNL d   1     -47.570  29.452  35.895  0.00  0.00     0.105 A 
ENDBRANCH   2   3
ENDBRANCH   1   2
BRANCH   1  12
ATOM     12  C   UNL d   1     -49.162  28.071  34.299  0.00  0.00     0.109 C 
BRANCH  12  13
ATOM     13  N   UNL d   1     -49.804  28.515  33.997  0.00  0.00    -0.204 NA
ATOM     14  C   UNL d   1     -50.420  28.137  33.602  0.00  0.00     0.302 C 
ATOM     15  O   UNL d   1     -51.050  28.580  33.306  0.00  0.00    -0.263 OA
BRANCH  14  16
ATOM     16  C   UNL d   1     -50.405  27.309  33.501  0.00  0.00     0.158 A 
ATOM     17  O   UNL d   1     -49.785  26.761  33.489  0.00  0.00    -0.296 OA
ATOM     18  C   UNL d   1     -50.113  26.015  33.368  0.00  0.00     0.134 A 
ATOM     19 BR   UNL d   1     -49.691  25.298  33.318  0.00  0.00    -0.022 Br
ATOM     20  C   UNL d   1     -50.930  26.096  33.306  0.00  0.00     0.034 A 
ATOM     21  C   UNL d   1     -51.109  26.896  33.388  0.00  0.00     0.032 A 
ENDBRANCH  14  16
ENDBRANCH  12  13
ENDBRANCH   1  12
TORSDOF 5
ENDMDL
MODEL 4
REMARK VINA RESULT:      57.0      2.877      4.229
REMARK  5 active torsions:
REMARK  status: ('A' for Active; 'I' for Inactive)
REMARK    1  A    between atoms: C_7  and  C_1 
REMARK    2  A    between atoms: C_5  and  S_14 
REMARK       I    between atoms: N_13  and  C_7 
REMARK    3  A    between atoms: C_18  and  N_13 
REMARK    4  A    between atoms: S_14  and  C_19 
REMARK    5  A    between atoms: C_19  and  C_18 
ROOT
ATOM      1  C   UNL d   1     -50.238  25.929  33.496  0.00  0.00     0.056 C 
ENDROOT
BRANCH   1   2
ATOM      2  S   UNL d   1     -51.003  25.655  33.316  0.00  0.00    -0.083 SA
BRANCH   2   3
ATOM      3  C   UNL d   1     -51.169  24.840  33.345  0.00  0.00     0.050 A 
ATOM      4  C   UNL d   1     -51.919  24.508  33.416  0.00  0.00     0.025 A 
ATOM      5  C   UNL d   1     -51.829  23.680  33.423  0.00  0.00     0.082 A 
ATOM      6  C   UNL d   1     -52.676  24.841  33.474  0.00  0.00     0.002 A 
ATOM      7  C   UNL d   1     -52.492  23.191  33.489  0.00  0.00     0.019 A 
ATOM      8  N   UNL d   1     -51.019  23.516  33.357  0.00  0.00    -0.243 NA
ATOM      9  C   UNL d   1     -53.242  23.528  33.547  0.00  0.00     0.002 A 
ATOM     10  C   UNL d   1     -53.333  24.360  33.539  0.00  0.00     0.000 A 
ATOM     11  C   UNL d   1     -50.615  24.232  33.309  0.00  0.00     0.105 A 
ENDBRANCH   2   3
ENDBRANCH   1   2
BRANCH   1  12
ATOM     12  C   UNL d   1     -50.139  26.548  34.033  0.00  0.00     0.109 C 
BRANCH  12  13
ATOM     13  N   UNL d   1     -49.483  27.063  33.960  0.00  0.00    -0.204 NA
ATOM     14  C   UNL d   1     -49.213  27.485  34.614  0.00  0.00     0.302 C 
ATOM     15  O   UNL d   1     -48.567  27.992  34.537  0.00  0.00    -0.263 OA
BRANCH  14  16
ATOM     16  C   UNL d   1     -49.593  27.399  35.352  0.00  0.00     0.158 A 
ATOM     17  O   UNL d   1     -49.329  27.503  36.129  0.00  0.00    -0.296 OA
ATOM     18  C   UNL d   1     -49.960  27.336  36.632  0.00  0.00     0.134 A 
ATOM     19 BR   UNL d   1     -49.944  27.369  37.465  0.00  0.00    -0.022 Br
ATOM     20  C   UNL d   1     -50.613  27.131  36.173  0.00  0.00     0.034 A 
ATOM     21  C   UNL d   1     -50.384  27.171  35.383  0.00  0.00     0.032 A 
ENDBRANCH  14  16
ENDBRANCH  12  13
ENDBRANCH   1  12
TORSDOF 5
ENDMDL
MODEL 5
REMARK VINA RESULT:      57.8      4.112      5.644
REMARK  5 active torsions:
REMARK  status: ('A' for Active; 'I' for Inactive)
REMARK    1  A    between atoms: C_7  and  C_1 
REMARK    2  A    between atoms: C_5  and  S_14 
REMARK       I    between atoms: N_13  and  C_7 
REMARK    3  A    between atoms: C_18  and  N_13 
REMARK    4  A    between atoms: S_14  and  C_19 
REMARK    5  A    between atoms: C_19  and  C_18 
ROOT
ATOM      1  C   UNL d   1     -48.342  28.302  34.784  0.00  0.00     0.056 C 
ENDROOT
BRANCH   1   2
ATOM      2  S   UNL d   1     -49.066  27.893  34.831  0.00  0.00    -0.083 SA
BRANCH   2   3
ATOM      3  C   UNL d   1     -49.204  27.239  34.335  0.00  0.00     0.050 A 
ATOM      4  C   UNL d   1     -49.944  26.948  34.125  0.00  0.00     0.025 A 
ATOM      5  C   UNL d   1     -49.825  26.292  33.624  0.00  0.00     0.082 A 
ATOM      6  C   UNL d   1     -50.715  27.184  34.318  0.00  0.00     0.002 A 
ATOM      7  C   UNL d   1     -50.474  25.880  33.320  0.00  0.00     0.019 A 
ATOM      8  N   UNL d   1     -49.008  26.192  33.534  0.00  0.00    -0.243 NA
ATOM      9  C   UNL d   1     -51.237  26.120  33.515  0.00  0.00     0.002 A 
ATOM     10  C   UNL d   1     -51.357  26.778  34.018  0.00  0.00     0.000 A 
ATOM     11  C   UNL d   1     -48.627  26.775  33.972  0.00  0.00     0.105 A 
ENDBRANCH   2   3
ENDBRANCH   1   2
BRANCH   1  12
ATOM     12  C   UNL d   1     -48.281  29.065  35.094  0.00  0.00     0.109 C 
BRANCH  12  13
ATOM     13  N   UNL d   1     -47.914  29.186  35.837  0.00  0.00    -0.204 NA
ATOM     14  C   UNL d   1     -47.592  29.920  36.024  0.00  0.00     0.302 C 
ATOM     15  O   UNL d   1     -47.231  30.035  36.757  0.00  0.00    -0.263 OA
BRANCH  14  16
ATOM     16  C   UNL d   1     -47.631  30.546  35.473  0.00  0.00     0.158 A 
ATOM     17  O   UNL d   1     -48.267  30.916  35.096  0.00  0.00    -0.296 OA
ATOM     18  C   UNL d   1     -47.961  31.504  34.607  0.00  0.00     0.134 A 
ATOM     19 BR   UNL d   1     -48.404  32.016  34.121  0.00  0.00    -0.022 Br
ATOM     20  C   UNL d   1     -47.141  31.502  34.678  0.00  0.00     0.034 A 
ATOM     21  C   UNL d   1     -46.938  30.909  35.213  0.00  0.00     0.032 A 
ENDBRANCH  14  16
ENDBRANCH  12  13
ENDBRANCH   1  12
TORSDOF 5
ENDMDL
