MODEL 1
REMARK VINA RESULT:      -3.4      0.000      0.000
REMARK  5 active torsions:
REMARK  status: ('A' for Active; 'I' for Inactive)
REMARK    1  A    between atoms: C_10  and  N_3 
REMARK    2  A    between atoms: C_12  and  N_6 
REMARK    3  A    between atoms: C_11  and  C_10 
REMARK    4  A    between atoms: O_18  and  C_11 
REMARK    5  A    between atoms: C_23  and  O_18 
ROOT
ATOM      1  C   UNL d   1      57.584   0.197  31.967  0.00  0.00     0.172 A 
ATOM      2  C   UNL d   1      58.371   0.442  31.944  0.00  0.00     0.113 A 
ATOM      3  N   UNL d   1      58.423   0.141  30.550  0.00  0.00    -0.252 N 
ATOM      4  C   UNL d   1      58.790   0.415  31.240  0.00  0.00     0.271 A 
ATOM      5  N   UNL d   1      57.215  -0.076  31.286  0.00  0.00    -0.206 NA
ATOM      6  N   UNL d   1      57.318   0.290  32.748  0.00  0.00    -0.212 N 
ATOM      7  N   UNL d   1      57.939   0.588  33.189  0.00  0.00    -0.162 NA
ATOM      8  C   UNL d   1      57.636  -0.104  30.573  0.00  0.00     0.187 A 
ATOM      9  C   UNL d   1      58.578   0.682  32.711  0.00  0.00     0.129 A 
ATOM     10  O   UNL d   1      59.577   0.660  31.216  0.00  0.00    -0.266 OA
ENDROOT
BRANCH   3  11
ATOM     11  C   UNL d   1      58.843   0.111  29.829  0.00  0.00     0.132 C 
ATOM     12  C   UNL d   1      59.416   0.681  29.667  0.00  0.00     0.025 C 
BRANCH  11  13
ATOM     13  C   UNL d   1      58.683  -0.492  29.279  0.00  0.00     0.317 C 
ATOM     14  O   UNL d   1      58.081  -0.395  28.735  0.00  0.00    -0.257 OA
BRANCH  13  15
ATOM     15  O   UNL d   1      59.138  -1.180  29.295  0.00  0.00    -0.270 OA
BRANCH  15  16
ATOM     16  C   UNL d   1      58.959  -1.794  28.765  0.00  0.00     0.126 C 
ATOM     17  C   UNL d   1      59.289  -2.532  28.892  0.00  0.00     0.029 C 
ENDBRANCH  15  16
ENDBRANCH  13  15
ENDBRANCH  11  13
ENDBRANCH   3  11
BRANCH   6  18
ATOM     18  C   UNL d   1      56.584   0.127  33.060  0.00  0.00     0.085 A 
ATOM     19  C   UNL d   1      56.208   0.682  33.543  0.00  0.00     0.020 A 
ATOM     20  C   UNL d   1      55.466   0.514  33.857  0.00  0.00     0.013 A 
ATOM     21  C   UNL d   1      55.091  -0.189  33.700  0.00  0.00     0.058 A 
ATOM     22  C   UNL d   1      55.472  -0.756  33.208  0.00  0.00     0.013 A 
ATOM     23 CL   UNL d   1      54.334  -0.341  34.029  0.00  0.00    -0.082 Cl
ATOM     24  C   UNL d   1      56.210  -0.599  32.891  0.00  0.00     0.020 A 
ENDBRANCH   6  18
TORSDOF 5
ENDMDL
MODEL 2
REMARK VINA RESULT:      -3.0      1.216      1.662
REMARK  5 active torsions:
REMARK  status: ('A' for Active; 'I' for Inactive)
REMARK    1  A    between atoms: C_10  and  N_3 
REMARK    2  A    between atoms: C_12  and  N_6 
REMARK    3  A    between atoms: C_11  and  C_10 
REMARK    4  A    between atoms: O_18  and  C_11 
REMARK    5  A    between atoms: C_23  and  O_18 
ROOT
ATOM      1  C   UNL d   1      57.070  -0.300  31.578  0.00  0.00     0.172 A 
ATOM      2  C   UNL d   1      57.337  -0.888  31.065  0.00  0.00     0.113 A 
ATOM      3  N   UNL d   1      58.041   0.093  30.305  0.00  0.00    -0.252 N 
ATOM      4  C   UNL d   1      57.821  -0.695  30.432  0.00  0.00     0.271 A 
ATOM      5  N   UNL d   1      57.286   0.483  31.457  0.00  0.00    -0.206 NA
ATOM      6  N   UNL d   1      56.599  -0.667  32.154  0.00  0.00    -0.212 N 
ATOM      7  N   UNL d   1      56.583  -1.468  31.989  0.00  0.00    -0.162 NA
ATOM      8  C   UNL d   1      57.774   0.682  30.818  0.00  0.00     0.187 A 
ATOM      9  C   UNL d   1      57.027  -1.609  31.334  0.00  0.00     0.129 A 
ATOM     10  O   UNL d   1      58.088  -1.283  29.919  0.00  0.00    -0.266 OA
ENDROOT
BRANCH   3  11
ATOM     11  C   UNL d   1      58.533   0.298  29.663  0.00  0.00     0.132 C 
ATOM     12  C   UNL d   1      58.194   0.566  28.960  0.00  0.00     0.025 C 
BRANCH  11  13
ATOM     13  C   UNL d   1      59.358   0.232  29.732  0.00  0.00     0.317 C 
ATOM     14  O   UNL d   1      59.744   0.594  30.355  0.00  0.00    -0.257 OA
BRANCH  13  15
ATOM     15  O   UNL d   1      59.774  -0.201  29.166  0.00  0.00    -0.270 OA
BRANCH  15  16
ATOM     16  C   UNL d   1      60.605  -0.167  29.163  0.00  0.00     0.126 C 
ATOM     17  C   UNL d   1      61.023  -0.799  28.856  0.00  0.00     0.029 C 
ENDBRANCH  15  16
ENDBRANCH  13  15
ENDBRANCH  11  13
ENDBRANCH   3  11
BRANCH   6  18
ATOM     18  C   UNL d   1      56.207  -0.330  32.783  0.00  0.00     0.085 A 
ATOM     19  C   UNL d   1      56.313  -0.632  33.545  0.00  0.00     0.020 A 
ATOM     20  C   UNL d   1      55.915  -0.289  34.179  0.00  0.00     0.013 A 
ATOM     21  C   UNL d   1      55.417   0.343  34.072  0.00  0.00     0.058 A 
ATOM     22  C   UNL d   1      55.308   0.652  33.296  0.00  0.00     0.013 A 
ATOM     23 CL   UNL d   1      55.020   0.679  34.731  0.00  0.00    -0.082 Cl
ATOM     24  C   UNL d   1      55.699   0.318  32.660  0.00  0.00     0.020 A 
ENDBRANCH   6  18
TORSDOF 5
ENDMDL
MODEL 3
REMARK VINA RESULT:      -2.3      9.133     10.243
REMARK  5 active torsions:
REMARK  status: ('A' for Active; 'I' for Inactive)
REMARK    1  A    between atoms: C_10  and  N_3 
REMARK    2  A    between atoms: C_12  and  N_6 
REMARK    3  A    between atoms: C_11  and  C_10 
REMARK    4  A    between atoms: O_18  and  C_11 
REMARK    5  A    between atoms: C_23  and  O_18 
ROOT
ATOM      1  C   UNL d   1      59.295  -9.509  32.851  0.00  0.00     0.172 A 
ATOM      2  C   UNL d   1      60.095  -9.519  33.054  0.00  0.00     0.113 A 
ATOM      3  N   UNL d   1      59.752  -9.276  34.418  0.00  0.00    -0.252 N 
ATOM      4  C   UNL d   1      60.324  -9.404  33.833  0.00  0.00     0.271 A 
ATOM      5  N   UNL d   1      58.725  -9.383  33.428  0.00  0.00    -0.206 NA
ATOM      6  N   UNL d   1      59.245  -9.641  32.034  0.00  0.00    -0.212 N 
ATOM      7  N   UNL d   1      60.006  -9.730  31.748  0.00  0.00    -0.162 NA
ATOM      8  C   UNL d   1      58.953  -9.265  34.215  0.00  0.00     0.187 A 
ATOM      9  C   UNL d   1      60.524  -9.658  32.358  0.00  0.00     0.129 A 
ATOM     10  O   UNL d   1      61.124  -9.414  34.036  0.00  0.00    -0.266 OA
ENDROOT
BRANCH   3  11
ATOM     11  C   UNL d   1      59.978  -9.157  35.213  0.00  0.00     0.132 C 
ATOM     12  C   UNL d   1      60.583  -9.615  35.537  0.00  0.00     0.025 C 
BRANCH  11  13
ATOM     13  C   UNL d   1      59.593  -8.582  35.673  0.00  0.00     0.317 C 
ATOM     14  O   UNL d   1      58.998  -8.804  36.187  0.00  0.00    -0.257 OA
BRANCH  13  15
ATOM     15  O   UNL d   1      59.822  -7.793  35.600  0.00  0.00    -0.270 OA
BRANCH  15  16
ATOM     16  C   UNL d   1      59.861  -7.320  36.283  0.00  0.00     0.126 C 
ATOM     17  C   UNL d   1      60.394  -6.700  36.302  0.00  0.00     0.029 C 
ENDBRANCH  15  16
ENDBRANCH  13  15
ENDBRANCH  11  13
ENDBRANCH   3  11
BRANCH   6  18
ATOM     18  C   UNL d   1      58.581  -9.682  31.564  0.00  0.00     0.085 A 
ATOM     19  C   UNL d   1      58.654  -9.644  30.741  0.00  0.00     0.020 A 
ATOM     20  C   UNL d   1      57.982  -9.686  30.269  0.00  0.00     0.013 A 
ATOM     21  C   UNL d   1      57.242  -9.764  30.595  0.00  0.00     0.058 A 
ATOM     22  C   UNL d   1      57.165  -9.803  31.433  0.00  0.00     0.013 A 
ATOM     23 CL   UNL d   1      56.568  -9.805  30.096  0.00  0.00    -0.082 Cl
ATOM     24  C   UNL d   1      57.828  -9.762  31.911  0.00  0.00     0.020 A 
ENDBRANCH   6  18
TORSDOF 5
ENDMDL
