MODEL 1
REMARK VINA RESULT:      -8.0      0.000      0.000
REMARK  5 active torsions:
REMARK  status: ('A' for Active; 'I' for Inactive)
REMARK    1  A    between atoms: C_3  and  N_1 
REMARK    2  A    between atoms: C_6  and  C_3 
REMARK    3  A    between atoms: C_9  and  C_3 
REMARK    4  A    between atoms: N_5  and  C_6 
REMARK    5  A    between atoms: O_18  and  C_14 
ROOT
ATOM      1  C   UNL d   1      53.228  32.696  53.408  0.00  0.00     0.106 C 
ENDROOT
BRANCH   1   2
ATOM      2  N   UNL d   1      53.756  32.916  54.017  0.00  0.00    -0.228 N 
ATOM      3  N   UNL d   1      53.646  33.029  54.824  0.00  0.00    -0.165 NA
ATOM      4  C   UNL d   1      54.384  33.246  55.137  0.00  0.00     0.103 A 
ATOM      5  C   UNL d   1      54.558  33.418  55.925  0.00  0.00     0.022 C 
ATOM      6  C   UNL d   1      54.928  33.260  54.511  0.00  0.00     0.040 A 
ATOM      7  C   UNL d   1      54.546  33.060  53.835  0.00  0.00     0.085 A 
ATOM      8  C   UNL d   1      54.908  33.012  53.077  0.00  0.00     0.021 C 
ENDBRANCH   1   2
BRANCH   1   9
ATOM      9  C   UNL d   1      53.400  32.015  52.953  0.00  0.00     0.167 C 
BRANCH   9  10
ATOM     10  N   UNL d   1      52.990  31.317  53.076  0.00  0.00    -0.111 N 
ATOM     11  O   UNL d   1      53.034  30.937  53.806  0.00  0.00    -0.532 OA
ATOM     12  O   UNL d   1      52.537  31.000  52.472  0.00  0.00    -0.532 OA
ENDBRANCH   9  10
ENDBRANCH   1   9
BRANCH   1  13
ATOM     13  C   UNL d   1      52.544  33.152  53.264  0.00  0.00     0.019 A 
ATOM     14  C   UNL d   1      51.862  33.076  53.735  0.00  0.00     0.004 A 
ATOM     15  C   UNL d   1      51.217  33.542  53.557  0.00  0.00     0.024 A 
ATOM     16  C   UNL d   1      51.255  34.075  52.918  0.00  0.00     0.094 A 
ATOM     17  C   UNL d   1      51.916  34.136  52.476  0.00  0.00     0.024 A 
ATOM     18  C   UNL d   1      52.577  33.674  52.640  0.00  0.00     0.004 A 
BRANCH  16  19
ATOM     19  O   UNL d   1      50.590  34.549  52.743  0.00  0.00    -0.328 OA
ATOM     20  C   UNL d   1      50.035  34.302  52.170  0.00  0.00     0.181 C 
ENDBRANCH  16  19
ENDBRANCH   1  13
TORSDOF 5
ENDMDL
MODEL 2
REMARK VINA RESULT:      -7.7      1.448      2.047
REMARK  5 active torsions:
REMARK  status: ('A' for Active; 'I' for Inactive)
REMARK    1  A    between atoms: C_3  and  N_1 
REMARK    2  A    between atoms: C_6  and  C_3 
REMARK    3  A    between atoms: C_9  and  C_3 
REMARK    4  A    between atoms: N_5  and  C_6 
REMARK    5  A    between atoms: O_18  and  C_14 
ROOT
ATOM      1  C   UNL d   1      53.109  33.402  53.723  0.00  0.00     0.106 C 
ENDROOT
BRANCH   1   2
ATOM      2  N   UNL d   1      53.371  32.611  53.666  0.00  0.00    -0.228 N 
ATOM      3  N   UNL d   1      53.002  31.897  53.844  0.00  0.00    -0.165 NA
ATOM      4  C   UNL d   1      53.548  31.297  53.670  0.00  0.00     0.103 A 
ATOM      5  C   UNL d   1      53.438  30.483  53.755  0.00  0.00     0.022 C 
ATOM      6  C   UNL d   1      54.240  31.660  53.389  0.00  0.00     0.040 A 
ATOM      7  C   UNL d   1      54.130  32.454  53.388  0.00  0.00     0.085 A 
ATOM      8  C   UNL d   1      54.704  33.017  53.142  0.00  0.00     0.021 C 
ENDBRANCH   1   2
BRANCH   1   9
ATOM      9  C   UNL d   1      53.578  33.952  54.143  0.00  0.00     0.167 C 
BRANCH   9  10
ATOM     10  N   UNL d   1      53.348  34.215  54.884  0.00  0.00    -0.111 N 
ATOM     11  O   UNL d   1      53.214  35.018  55.013  0.00  0.00    -0.532 OA
ATOM     12  O   UNL d   1      53.252  33.678  55.494  0.00  0.00    -0.532 OA
ENDBRANCH   9  10
ENDBRANCH   1   9
BRANCH   1  13
ATOM     13  C   UNL d   1      52.392  33.631  53.363  0.00  0.00     0.019 A 
ATOM     14  C   UNL d   1      51.656  33.364  53.647  0.00  0.00     0.004 A 
ATOM     15  C   UNL d   1      50.981  33.612  53.264  0.00  0.00     0.024 A 
ATOM     16  C   UNL d   1      51.042  34.121  52.606  0.00  0.00     0.094 A 
ATOM     17  C   UNL d   1      51.754  34.368  52.346  0.00  0.00     0.024 A 
ATOM     18  C   UNL d   1      52.446  34.128  52.720  0.00  0.00     0.004 A 
BRANCH  16  19
ATOM     19  O   UNL d   1      50.345  34.371  52.220  0.00  0.00    -0.328 OA
ATOM     20  C   UNL d   1      49.712  34.692  52.659  0.00  0.00     0.181 C 
ENDBRANCH  16  19
ENDBRANCH   1  13
TORSDOF 5
ENDMDL
MODEL 3
REMARK VINA RESULT:      -7.5      1.613      3.021
REMARK  5 active torsions:
REMARK  status: ('A' for Active; 'I' for Inactive)
REMARK    1  A    between atoms: C_3  and  N_1 
REMARK    2  A    between atoms: C_6  and  C_3 
REMARK    3  A    between atoms: C_9  and  C_3 
REMARK    4  A    between atoms: N_5  and  C_6 
REMARK    5  A    between atoms: O_18  and  C_14 
ROOT
ATOM      1  C   UNL d   1      53.529  32.170  53.624  0.00  0.00     0.106 C 
ENDROOT
BRANCH   1   2
ATOM      2  N   UNL d   1      54.006  32.624  54.138  0.00  0.00    -0.228 N 
ATOM      3  N   UNL d   1      53.919  32.825  54.931  0.00  0.00    -0.165 NA
ATOM      4  C   UNL d   1      54.577  33.289  55.132  0.00  0.00     0.103 A 
ATOM      5  C   UNL d   1      54.743  33.626  55.868  0.00  0.00     0.022 C 
ATOM      6  C   UNL d   1      55.051  33.360  54.455  0.00  0.00     0.040 A 
ATOM      7  C   UNL d   1      54.704  32.957  53.855  0.00  0.00     0.085 A 
ATOM      8  C   UNL d   1      55.014  32.896  53.076  0.00  0.00     0.021 C 
ENDBRANCH   1   2
BRANCH   1   9
ATOM      9  C   UNL d   1      53.154  32.551  52.981  0.00  0.00     0.167 C 
BRANCH   9  10
ATOM     10  N   UNL d   1      52.354  32.726  53.009  0.00  0.00    -0.111 N 
ATOM     11  O   UNL d   1      52.055  33.185  53.625  0.00  0.00    -0.532 OA
ATOM     12  O   UNL d   1      51.856  32.444  52.425  0.00  0.00    -0.532 OA
ENDBRANCH   9  10
ENDBRANCH   1   9
BRANCH   1  13
ATOM     13  C   UNL d   1      53.435  31.351  53.756  0.00  0.00     0.019 A 
ATOM     14  C   UNL d   1      53.126  31.058  54.471  0.00  0.00     0.004 A 
ATOM     15  C   UNL d   1      53.052  30.250  54.557  0.00  0.00     0.024 A 
ATOM     16  C   UNL d   1      53.284  29.745  53.936  0.00  0.00     0.094 A 
ATOM     17  C   UNL d   1      53.578  30.042  53.257  0.00  0.00     0.024 A 
ATOM     18  C   UNL d   1      53.660  30.854  53.152  0.00  0.00     0.004 A 
BRANCH  16  19
ATOM     19  O   UNL d   1      53.204  28.920  54.032  0.00  0.00    -0.328 OA
ATOM     20  C   UNL d   1      53.401  28.559  54.759  0.00  0.00     0.181 C 
ENDBRANCH  16  19
ENDBRANCH   1  13
TORSDOF 5
ENDMDL
MODEL 4
REMARK VINA RESULT:      -7.5      1.794      3.293
REMARK  5 active torsions:
REMARK  status: ('A' for Active; 'I' for Inactive)
REMARK    1  A    between atoms: C_3  and  N_1 
REMARK    2  A    between atoms: C_6  and  C_3 
REMARK    3  A    between atoms: C_9  and  C_3 
REMARK    4  A    between atoms: N_5  and  C_6 
REMARK    5  A    between atoms: O_18  and  C_14 
ROOT
ATOM      1  C   UNL d   1      53.208  31.653  53.432  0.00  0.00     0.106 C 
ENDROOT
BRANCH   1   2
ATOM      2  N   UNL d   1      53.199  30.848  53.653  0.00  0.00    -0.228 N 
ATOM      3  N   UNL d   1      53.157  30.483  54.389  0.00  0.00    -0.165 NA
ATOM      4  C   UNL d   1      53.169  29.664  54.250  0.00  0.00     0.103 A 
ATOM      5  C   UNL d   1      53.139  29.062  54.814  0.00  0.00     0.022 C 
ATOM      6  C   UNL d   1      53.218  29.550  53.429  0.00  0.00     0.040 A 
ATOM      7  C   UNL d   1      53.236  30.267  53.071  0.00  0.00     0.085 A 
ATOM      8  C   UNL d   1      53.284  30.386  52.240  0.00  0.00     0.021 C 
ENDBRANCH   1   2
BRANCH   1   9
ATOM      9  C   UNL d   1      52.677  31.914  52.840  0.00  0.00     0.167 C 
BRANCH   9  10
ATOM     10  N   UNL d   1      52.059  32.418  53.027  0.00  0.00    -0.111 N 
ATOM     11  O   UNL d   1      51.458  32.164  53.531  0.00  0.00    -0.532 OA
ATOM     12  O   UNL d   1      52.043  33.173  52.712  0.00  0.00    -0.532 OA
ENDBRANCH   9  10
ENDBRANCH   1   9
BRANCH   1  13
ATOM     13  C   UNL d   1      53.740  32.181  53.799  0.00  0.00     0.019 A 
ATOM     14  C   UNL d   1      53.631  32.435  54.584  0.00  0.00     0.004 A 
ATOM     15  C   UNL d   1      54.176  32.951  54.901  0.00  0.00     0.024 A 
ATOM     16  C   UNL d   1      54.820  33.208  54.440  0.00  0.00     0.094 A 
ATOM     17  C   UNL d   1      54.911  32.956  53.689  0.00  0.00     0.024 A 
ATOM     18  C   UNL d   1      54.371  32.435  53.351  0.00  0.00     0.004 A 
BRANCH  16  19
ATOM     19  O   UNL d   1      55.374  33.737  54.773  0.00  0.00    -0.328 OA
ATOM     20  C   UNL d   1      55.248  34.055  55.534  0.00  0.00     0.181 C 
ENDBRANCH  16  19
ENDBRANCH   1  13
TORSDOF 5
ENDMDL
MODEL 5
REMARK VINA RESULT:      -7.4      1.337      3.368
REMARK  5 active torsions:
REMARK  status: ('A' for Active; 'I' for Inactive)
REMARK    1  A    between atoms: C_3  and  N_1 
REMARK    2  A    between atoms: C_6  and  C_3 
REMARK    3  A    between atoms: C_9  and  C_3 
REMARK    4  A    between atoms: N_5  and  C_6 
REMARK    5  A    between atoms: O_18  and  C_14 
ROOT
ATOM      1  C   UNL d   1      52.607  32.439  53.340  0.00  0.00     0.106 C 
ENDROOT
BRANCH   1   2
ATOM      2  N   UNL d   1      52.157  33.007  52.925  0.00  0.00    -0.228 N 
ATOM      3  N   UNL d   1      52.335  33.477  52.273  0.00  0.00    -0.165 NA
ATOM      4  C   UNL d   1      51.658  33.932  52.117  0.00  0.00     0.103 A 
ATOM      5  C   UNL d   1      51.561  34.490  51.516  0.00  0.00     0.022 C 
ATOM      6  C   UNL d   1      51.082  33.727  52.679  0.00  0.00     0.040 A 
ATOM      7  C   UNL d   1      51.387  33.168  53.166  0.00  0.00     0.085 A 
ATOM      8  C   UNL d   1      50.974  32.817  53.808  0.00  0.00     0.021 C 
ENDBRANCH   1   2
BRANCH   1   9
ATOM      9  C   UNL d   1      52.340  31.646  53.355  0.00  0.00     0.167 C 
BRANCH   9  10
ATOM     10  N   UNL d   1      52.733  31.066  52.930  0.00  0.00    -0.111 N 
ATOM     11  O   UNL d   1      52.851  31.158  52.120  0.00  0.00    -0.532 OA
ATOM     12  O   UNL d   1      53.005  30.396  53.314  0.00  0.00    -0.532 OA
ENDBRANCH   9  10
ENDBRANCH   1   9
BRANCH   1  13
ATOM     13  C   UNL d   1      53.309  32.667  53.730  0.00  0.00     0.019 A 
ATOM     14  C   UNL d   1      54.012  32.818  53.311  0.00  0.00     0.004 A 
ATOM     15  C   UNL d   1      54.674  33.038  53.733  0.00  0.00     0.024 A 
ATOM     16  C   UNL d   1      54.631  33.106  54.562  0.00  0.00     0.094 A 
ATOM     17  C   UNL d   1      53.950  32.958  54.950  0.00  0.00     0.024 A 
ATOM     18  C   UNL d   1      53.272  32.734  54.541  0.00  0.00     0.004 A 
BRANCH  16  19
ATOM     19  O   UNL d   1      55.314  33.332  54.987  0.00  0.00    -0.328 OA
ATOM     20  C   UNL d   1      55.399  34.115  55.262  0.00  0.00     0.181 C 
ENDBRANCH  16  19
ENDBRANCH   1  13
TORSDOF 5
ENDMDL
MODEL 6
REMARK VINA RESULT:      -7.0      1.670      3.476
REMARK  5 active torsions:
REMARK  status: ('A' for Active; 'I' for Inactive)
REMARK    1  A    between atoms: C_3  and  N_1 
REMARK    2  A    between atoms: C_6  and  C_3 
REMARK    3  A    between atoms: C_9  and  C_3 
REMARK    4  A    between atoms: N_5  and  C_6 
REMARK    5  A    between atoms: O_18  and  C_14 
ROOT
ATOM      1  C   UNL d   1      53.147  33.651  53.757  0.00  0.00     0.106 C 
ENDROOT
BRANCH   1   2
ATOM      2  N   UNL d   1      52.405  33.888  53.457  0.00  0.00    -0.228 N 
ATOM      3  N   UNL d   1      51.636  33.697  53.681  0.00  0.00    -0.165 NA
ATOM      4  C   UNL d   1      51.130  34.110  53.168  0.00  0.00     0.103 A 
ATOM      5  C   UNL d   1      50.304  34.100  53.169  0.00  0.00     0.022 C 
ATOM      6  C   UNL d   1      51.603  34.544  52.642  0.00  0.00     0.040 A 
ATOM      7  C   UNL d   1      52.373  34.408  52.819  0.00  0.00     0.085 A 
ATOM      8  C   UNL d   1      53.025  34.747  52.411  0.00  0.00     0.021 C 
ENDBRANCH   1   2
BRANCH   1   9
ATOM      9  C   UNL d   1      53.670  34.236  54.046  0.00  0.00     0.167 C 
BRANCH   9  10
ATOM     10  N   UNL d   1      53.788  34.330  54.851  0.00  0.00    -0.111 N 
ATOM     11  O   UNL d   1      53.174  34.605  55.327  0.00  0.00    -0.532 OA
ATOM     12  O   UNL d   1      54.516  34.151  55.179  0.00  0.00    -0.532 OA
ENDBRANCH   9  10
ENDBRANCH   1   9
BRANCH   1  13
ATOM     13  C   UNL d   1      53.355  32.843  53.766  0.00  0.00     0.019 A 
ATOM     14  C   UNL d   1      53.063  32.323  54.347  0.00  0.00     0.004 A 
ATOM     15  C   UNL d   1      53.292  31.542  54.316  0.00  0.00     0.024 A 
ATOM     16  C   UNL d   1      53.806  31.285  53.713  0.00  0.00     0.094 A 
ATOM     17  C   UNL d   1      54.077  31.795  53.163  0.00  0.00     0.024 A 
ATOM     18  C   UNL d   1      53.857  32.587  53.178  0.00  0.00     0.004 A 
BRANCH  16  19
ATOM     19  O   UNL d   1      54.036  30.482  53.689  0.00  0.00    -0.328 OA
ATOM     20  C   UNL d   1      53.462  29.881  53.615  0.00  0.00     0.181 C 
ENDBRANCH  16  19
ENDBRANCH   1  13
TORSDOF 5
ENDMDL
