MODEL 1
REMARK VINA RESULT:      -7.5      0.000      0.000
REMARK  4 active torsions:
REMARK  status: ('A' for Active; 'I' for Inactive)
REMARK    1  A    between atoms: C_9  and  C_3 
REMARK    2  A    between atoms: C_11  and  C_7 
REMARK    3  A    between atoms: O_22  and  C_16 
REMARK    4  A    between atoms: O_23  and  C_17 
ROOT
ATOM      1  N   UNL d   1     -47.769  14.102  22.719  0.00  0.00    -0.186 N 
ATOM      2  N   UNL d   1     -47.398  13.378  22.900  0.00  0.00    -0.162 NA
ATOM      3  C   UNL d   1     -48.549  14.314  22.645  0.00  0.00     0.187 A 
ATOM      4  C   UNL d   1     -47.310  14.770  22.578  0.00  0.00     0.217 A 
ATOM      5  N   UNL d   1     -48.590  15.105  22.459  0.00  0.00    -0.127 NA
ATOM      6  N   UNL d   1     -47.833  15.390  22.417  0.00  0.00    -0.120 NA
ATOM      7  C   UNL d   1     -46.578  13.334  22.936  0.00  0.00     0.108 A 
ATOM      8  S   UNL d   1     -46.491  14.711  22.617  0.00  0.00    -0.045 SA
ATOM      9  C   UNL d   1     -46.112  14.002  22.794  0.00  0.00     0.059 A 
ENDROOT
BRANCH   3  10
ATOM     10  C   UNL d   1     -49.181  13.788  22.748  0.00  0.00     0.038 A 
ATOM     11  C   UNL d   1     -49.463  13.369  22.110  0.00  0.00     0.005 A 
ATOM     12  C   UNL d   1     -50.095  12.843  22.213  0.00  0.00     0.024 A 
ATOM     13  C   UNL d   1     -50.428  12.754  22.962  0.00  0.00     0.094 A 
ATOM     14  C   UNL d   1     -50.143  13.176  23.603  0.00  0.00     0.024 A 
ATOM     15  C   UNL d   1     -49.516  13.697  23.494  0.00  0.00     0.005 A 
BRANCH  13  16
ATOM     16  O   UNL d   1     -51.064  12.230  23.088  0.00  0.00    -0.328 OA
ATOM     17  C   UNL d   1     -51.017  11.643  23.686  0.00  0.00     0.181 C 
ENDBRANCH  13  16
ENDBRANCH   3  10
BRANCH   7  18
ATOM     18  C   UNL d   1     -46.216  12.619  23.114  0.00  0.00     0.020 A 
ATOM     19  C   UNL d   1     -46.641  12.018  23.490  0.00  0.00     0.004 A 
ATOM     20  C   UNL d   1     -46.289  11.296  23.674  0.00  0.00     0.024 A 
ATOM     21  C   UNL d   1     -45.486  11.170  23.476  0.00  0.00     0.094 A 
ATOM     22  C   UNL d   1     -45.062  11.753  23.107  0.00  0.00     0.024 A 
ATOM     23  C   UNL d   1     -45.423  12.486  22.921  0.00  0.00     0.004 A 
BRANCH  21  24
ATOM     24  O   UNL d   1     -45.131  10.445  23.660  0.00  0.00    -0.328 OA
ATOM     25  C   UNL d   1     -44.306  10.361  23.597  0.00  0.00     0.181 C 
ENDBRANCH  21  24
ENDBRANCH   7  18
TORSDOF 4
ENDMDL
MODEL 2
REMARK VINA RESULT:      -7.5      2.010      2.721
REMARK  4 active torsions:
REMARK  status: ('A' for Active; 'I' for Inactive)
REMARK    1  A    between atoms: C_9  and  C_3 
REMARK    2  A    between atoms: C_11  and  C_7 
REMARK    3  A    between atoms: O_22  and  C_16 
REMARK    4  A    between atoms: O_23  and  C_17 
ROOT
ATOM      1  N   UNL d   1     -49.137  12.100  23.249  0.00  0.00    -0.186 N 
ATOM      2  N   UNL d   1     -48.444  12.503  23.020  0.00  0.00    -0.162 NA
ATOM      3  C   UNL d   1     -49.917  12.323  23.272  0.00  0.00     0.187 A 
ATOM      4  C   UNL d   1     -49.088  11.323  23.514  0.00  0.00     0.217 A 
ATOM      5  N   UNL d   1     -50.361  11.699  23.548  0.00  0.00    -0.127 NA
ATOM      6  N   UNL d   1     -49.857  11.083  23.697  0.00  0.00    -0.120 NA
ATOM      7  C   UNL d   1     -47.717  12.122  23.058  0.00  0.00     0.108 A 
ATOM      8  S   UNL d   1     -48.353  10.955  23.548  0.00  0.00    -0.045 SA
ATOM      9  C   UNL d   1     -47.661  11.341  23.324  0.00  0.00     0.059 A 
ENDROOT
BRANCH   3  10
ATOM     10  C   UNL d   1     -50.189  13.072  23.046  0.00  0.00     0.038 A 
ATOM     11  C   UNL d   1     -50.520  13.175  22.310  0.00  0.00     0.005 A 
ATOM     12  C   UNL d   1     -50.792  13.924  22.084  0.00  0.00     0.024 A 
ATOM     13  C   UNL d   1     -50.722  14.554  22.610  0.00  0.00     0.094 A 
ATOM     14  C   UNL d   1     -50.389  14.450  23.351  0.00  0.00     0.024 A 
ATOM     15  C   UNL d   1     -50.121  13.705  23.569  0.00  0.00     0.005 A 
BRANCH  13  16
ATOM     16  O   UNL d   1     -50.989  15.317  22.403  0.00  0.00    -0.328 OA
ATOM     17  C   UNL d   1     -51.064  15.913  22.991  0.00  0.00     0.181 C 
ENDBRANCH  13  16
ENDBRANCH   3  10
BRANCH   7  18
ATOM     18  C   UNL d   1     -47.036  12.522  22.831  0.00  0.00     0.020 A 
ATOM     19  C   UNL d   1     -47.029  12.975  22.141  0.00  0.00     0.004 A 
ATOM     20  C   UNL d   1     -46.352  13.381  21.902  0.00  0.00     0.024 A 
ATOM     21  C   UNL d   1     -45.660  13.331  22.368  0.00  0.00     0.094 A 
ATOM     22  C   UNL d   1     -45.658  12.889  23.047  0.00  0.00     0.024 A 
ATOM     23  C   UNL d   1     -46.347  12.478  23.286  0.00  0.00     0.004 A 
BRANCH  21  24
ATOM     24  O   UNL d   1     -44.979  13.738  22.130  0.00  0.00    -0.328 OA
ATOM     25  C   UNL d   1     -44.339  13.319  21.805  0.00  0.00     0.181 C 
ENDBRANCH  21  24
ENDBRANCH   7  18
TORSDOF 4
ENDMDL
MODEL 3
REMARK VINA RESULT:      -6.4      8.307      9.527
REMARK  4 active torsions:
REMARK  status: ('A' for Active; 'I' for Inactive)
REMARK    1  A    between atoms: C_9  and  C_3 
REMARK    2  A    between atoms: C_11  and  C_7 
REMARK    3  A    between atoms: O_22  and  C_16 
REMARK    4  A    between atoms: O_23  and  C_17 
ROOT
ATOM      1  N   UNL d   1     -40.258  15.235  19.359  0.00  0.00    -0.186 N 
ATOM      2  N   UNL d   1     -39.796  14.942  19.987  0.00  0.00    -0.162 NA
ATOM      3  C   UNL d   1     -40.215  15.135  18.554  0.00  0.00     0.187 A 
ATOM      4  C   UNL d   1     -40.898  15.727  19.519  0.00  0.00     0.217 A 
ATOM      5  N   UNL d   1     -40.817  15.556  18.204  0.00  0.00    -0.127 NA
ATOM      6  N   UNL d   1     -41.239  15.922  18.792  0.00  0.00    -0.120 NA
ATOM      7  C   UNL d   1     -39.980  15.145  20.762  0.00  0.00     0.108 A 
ATOM      8  S   UNL d   1     -41.070  15.922  20.299  0.00  0.00    -0.045 SA
ATOM      9  C   UNL d   1     -40.621  15.639  20.929  0.00  0.00     0.059 A 
ENDROOT
BRANCH   3  10
ATOM     10  C   UNL d   1     -39.640  14.672  18.178  0.00  0.00     0.038 A 
ATOM     11  C   UNL d   1     -38.935  15.011  17.954  0.00  0.00     0.005 A 
ATOM     12  C   UNL d   1     -38.360  14.549  17.577  0.00  0.00     0.024 A 
ATOM     13  C   UNL d   1     -38.513  13.751  17.436  0.00  0.00     0.094 A 
ATOM     14  C   UNL d   1     -39.222  13.411  17.662  0.00  0.00     0.024 A 
ATOM     15  C   UNL d   1     -39.789  13.875  18.035  0.00  0.00     0.005 A 
BRANCH  13  16
ATOM     16  O   UNL d   1     -37.948  13.267  17.059  0.00  0.00    -0.328 OA
ATOM     17  C   UNL d   1     -37.940  13.201  16.221  0.00  0.00     0.181 C 
ENDBRANCH  13  16
ENDBRANCH   3  10
BRANCH   7  18
ATOM     18  C   UNL d   1     -39.522  14.854  21.379  0.00  0.00     0.020 A 
ATOM     19  C   UNL d   1     -39.662  14.098  21.682  0.00  0.00     0.004 A 
ATOM     20  C   UNL d   1     -39.209  13.795  22.301  0.00  0.00     0.024 A 
ATOM     21  C   UNL d   1     -38.598  14.263  22.627  0.00  0.00     0.094 A 
ATOM     22  C   UNL d   1     -38.454  15.005  22.336  0.00  0.00     0.024 A 
ATOM     23  C   UNL d   1     -38.915  15.309  21.707  0.00  0.00     0.004 A 
BRANCH  21  24
ATOM     24  O   UNL d   1     -38.142  13.960  23.249  0.00  0.00    -0.328 OA
ATOM     25  C   UNL d   1     -38.377  13.259  23.631  0.00  0.00     0.181 C 
ENDBRANCH  21  24
ENDBRANCH   7  18
TORSDOF 4
ENDMDL
MODEL 4
REMARK VINA RESULT:      -6.4      9.146      9.903
REMARK  4 active torsions:
REMARK  status: ('A' for Active; 'I' for Inactive)
REMARK    1  A    between atoms: C_9  and  C_3 
REMARK    2  A    between atoms: C_11  and  C_7 
REMARK    3  A    between atoms: O_22  and  C_16 
REMARK    4  A    between atoms: O_23  and  C_17 
ROOT
ATOM      1  N   UNL d   1     -38.831  13.643  18.597  0.00  0.00    -0.186 N 
ATOM      2  N   UNL d   1     -38.948  14.133  19.261  0.00  0.00    -0.162 NA
ATOM      3  C   UNL d   1     -39.131  13.662  17.843  0.00  0.00     0.187 A 
ATOM      4  C   UNL d   1     -38.323  12.997  18.652  0.00  0.00     0.217 A 
ATOM      5  N   UNL d   1     -38.821  13.038  17.421  0.00  0.00    -0.127 NA
ATOM      6  N   UNL d   1     -38.325  12.628  17.912  0.00  0.00    -0.120 NA
ATOM      7  C   UNL d   1     -38.558  13.970  19.965  0.00  0.00     0.108 A 
ATOM      8  S   UNL d   1     -37.940  12.847  19.363  0.00  0.00    -0.045 SA
ATOM      9  C   UNL d   1     -38.047  13.323  20.026  0.00  0.00     0.059 A 
ENDROOT
BRANCH   3  10
ATOM     10  C   UNL d   1     -39.665  14.235  17.574  0.00  0.00     0.038 A 
ATOM     11  C   UNL d   1     -39.384  14.918  17.233  0.00  0.00     0.005 A 
ATOM     12  C   UNL d   1     -39.918  15.491  16.964  0.00  0.00     0.024 A 
ATOM     13  C   UNL d   1     -40.728  15.358  17.047  0.00  0.00     0.094 A 
ATOM     14  C   UNL d   1     -41.009  14.671  17.390  0.00  0.00     0.024 A 
ATOM     15  C   UNL d   1     -40.474  14.106  17.655  0.00  0.00     0.005 A 
BRANCH  13  16
ATOM     16  O   UNL d   1     -41.283  15.922  16.783  0.00  0.00    -0.328 OA
ATOM     17  C   UNL d   1     -41.859  15.711  16.209  0.00  0.00     0.181 C 
ENDBRANCH  13  16
ENDBRANCH   3  10
BRANCH   7  18
ATOM     18  C   UNL d   1     -38.676  14.455  20.618  0.00  0.00     0.020 A 
ATOM     19  C   UNL d   1     -39.229  14.249  21.196  0.00  0.00     0.004 A 
ATOM     20  C   UNL d   1     -39.357  14.728  21.855  0.00  0.00     0.024 A 
ATOM     21  C   UNL d   1     -38.917  15.434  21.939  0.00  0.00     0.094 A 
ATOM     22  C   UNL d   1     -38.373  15.643  21.377  0.00  0.00     0.024 A 
ATOM     23  C   UNL d   1     -38.246  15.154  20.709  0.00  0.00     0.004 A 
BRANCH  21  24
ATOM     24  O   UNL d   1     -39.044  15.916  22.601  0.00  0.00    -0.328 OA
ATOM     25  C   UNL d   1     -38.586  15.807  23.285  0.00  0.00     0.181 C 
ENDBRANCH  21  24
ENDBRANCH   7  18
TORSDOF 4
ENDMDL
MODEL 5
REMARK VINA RESULT:      -5.7      0.788      4.009
REMARK  4 active torsions:
REMARK  status: ('A' for Active; 'I' for Inactive)
REMARK    1  A    between atoms: C_9  and  C_3 
REMARK    2  A    between atoms: C_11  and  C_7 
REMARK    3  A    between atoms: O_22  and  C_16 
REMARK    4  A    between atoms: O_23  and  C_17 
ROOT
ATOM      1  N   UNL d   1     -47.236  14.298  22.676  0.00  0.00    -0.186 N 
ATOM      2  N   UNL d   1     -47.849  13.742  22.769  0.00  0.00    -0.162 NA
ATOM      3  C   UNL d   1     -46.427  14.227  22.684  0.00  0.00     0.187 A 
ATOM      4  C   UNL d   1     -47.419  15.090  22.549  0.00  0.00     0.217 A 
ATOM      5  N   UNL d   1     -46.097  14.962  22.564  0.00  0.00    -0.127 NA
ATOM      6  N   UNL d   1     -46.702  15.495  22.480  0.00  0.00    -0.120 NA
ATOM      7  C   UNL d   1     -48.633  13.985  22.733  0.00  0.00     0.108 A 
ATOM      8  S   UNL d   1     -48.208  15.319  22.515  0.00  0.00    -0.045 SA
ATOM      9  C   UNL d   1     -48.824  14.779  22.605  0.00  0.00     0.059 A 
ENDROOT
BRANCH   3  10
ATOM     10  C   UNL d   1     -46.028  13.510  22.799  0.00  0.00     0.038 A 
ATOM     11  C   UNL d   1     -45.531  13.230  22.218  0.00  0.00     0.005 A 
ATOM     12  C   UNL d   1     -45.133  12.513  22.333  0.00  0.00     0.024 A 
ATOM     13  C   UNL d   1     -45.247  12.095  23.035  0.00  0.00     0.094 A 
ATOM     14  C   UNL d   1     -45.746  12.379  23.618  0.00  0.00     0.024 A 
ATOM     15  C   UNL d   1     -46.139  13.091  23.498  0.00  0.00     0.005 A 
BRANCH  13  16
ATOM     16  O   UNL d   1     -44.855  11.371  23.171  0.00  0.00    -0.328 OA
ATOM     17  C   UNL d   1     -45.268  10.725  23.515  0.00  0.00     0.181 C 
ENDBRANCH  13  16
ENDBRANCH   3  10
BRANCH   7  18
ATOM     18  C   UNL d   1     -49.236  13.434  22.824  0.00  0.00     0.020 A 
ATOM     19  C   UNL d   1     -49.720  13.453  23.493  0.00  0.00     0.004 A 
ATOM     20  C   UNL d   1     -50.328  12.905  23.597  0.00  0.00     0.024 A 
ATOM     21  C   UNL d   1     -50.454  12.320  23.013  0.00  0.00     0.094 A 
ATOM     22  C   UNL d   1     -49.984  12.294  22.354  0.00  0.00     0.024 A 
ATOM     23  C   UNL d   1     -49.368  12.853  22.252  0.00  0.00     0.004 A 
BRANCH  21  24
ATOM     24  O   UNL d   1     -51.064  11.769  23.115  0.00  0.00    -0.328 OA
ATOM     25  C   UNL d   1     -50.995  11.180  23.697  0.00  0.00     0.181 C 
ENDBRANCH  21  24
ENDBRANCH   7  18
TORSDOF 4
ENDMDL
MODEL 6
REMARK VINA RESULT:      -4.8      1.941      2.727
REMARK  4 active torsions:
REMARK  status: ('A' for Active; 'I' for Inactive)
REMARK    1  A    between atoms: C_9  and  C_3 
REMARK    2  A    between atoms: C_11  and  C_7 
REMARK    3  A    between atoms: O_22  and  C_16 
REMARK    4  A    between atoms: O_23  and  C_17 
ROOT
ATOM      1  N   UNL d   1     -49.324  12.377  23.195  0.00  0.00    -0.186 N 
ATOM      2  N   UNL d   1     -48.498  12.267  23.215  0.00  0.00    -0.162 NA
ATOM      3  C   UNL d   1     -49.788  13.008  22.981  0.00  0.00     0.187 A 
ATOM      4  C   UNL d   1     -49.822  11.764  23.427  0.00  0.00     0.217 A 
ATOM      5  N   UNL d   1     -50.570  12.802  23.073  0.00  0.00    -0.127 NA
ATOM      6  N   UNL d   1     -50.597  12.040  23.346  0.00  0.00    -0.120 NA
ATOM      7  C   UNL d   1     -48.185  11.550  23.464  0.00  0.00     0.108 A 
ATOM      8  S   UNL d   1     -49.494  11.051  23.674  0.00  0.00    -0.045 SA
ATOM      9  C   UNL d   1     -48.680  10.930  23.698  0.00  0.00     0.059 A 
ENDROOT
BRANCH   3  10
ATOM     10  C   UNL d   1     -49.486  13.731  22.714  0.00  0.00     0.038 A 
ATOM     11  C   UNL d   1     -49.572  13.940  21.932  0.00  0.00     0.005 A 
ATOM     12  C   UNL d   1     -49.271  14.664  21.666  0.00  0.00     0.024 A 
ATOM     13  C   UNL d   1     -48.887  15.162  22.200  0.00  0.00     0.094 A 
ATOM     14  C   UNL d   1     -48.801  14.951  22.986  0.00  0.00     0.024 A 
ATOM     15  C   UNL d   1     -49.103  14.232  23.244  0.00  0.00     0.005 A 
BRANCH  13  16
ATOM     16  O   UNL d   1     -48.576  15.895  21.953  0.00  0.00    -0.328 OA
ATOM     17  C   UNL d   1     -47.928  15.921  21.418  0.00  0.00     0.181 C 
ENDBRANCH  13  16
ENDBRANCH   3  10
BRANCH   7  18
ATOM     18  C   UNL d   1     -47.370  11.445  23.482  0.00  0.00     0.020 A 
ATOM     19  C   UNL d   1     -47.048  10.710  23.675  0.00  0.00     0.004 A 
ATOM     20  C   UNL d   1     -46.232  10.592  23.697  0.00  0.00     0.024 A 
ATOM     21  C   UNL d   1     -45.722  11.231  23.519  0.00  0.00     0.094 A 
ATOM     22  C   UNL d   1     -46.030  11.956  23.329  0.00  0.00     0.024 A 
ATOM     23  C   UNL d   1     -46.859  12.071  23.308  0.00  0.00     0.004 A 
BRANCH  21  24
ATOM     24  O   UNL d   1     -44.902  11.115  23.540  0.00  0.00    -0.328 OA
ATOM     25  C   UNL d   1     -44.596  10.358  23.694  0.00  0.00     0.181 C 
ENDBRANCH  21  24
ENDBRANCH   7  18
TORSDOF 4
ENDMDL
