MODEL 1
REMARK VINA RESULT:      -8.3      0.000      0.000
REMARK  4 active torsions:
REMARK  status: ('A' for Active; 'I' for Inactive)
REMARK    1  A    between atoms: C_5  and  N_1 
REMARK    2  A    between atoms: C_9  and  C_3 
REMARK    3  A    between atoms: C_7  and  C_4 
REMARK    4  A    between atoms: N_10  and  C_5 
ROOT
ATOM      1  N   UNL d   1      53.241  32.741  53.625  0.00  0.00    -0.203 N 
ATOM      2  N   UNL d   1      52.784  33.386  53.379  0.00  0.00    -0.163 NA
ATOM      3  C   UNL d   1      52.080  33.128  53.080  0.00  0.00     0.103 A 
ATOM      4  C   UNL d   1      52.808  32.043  53.476  0.00  0.00     0.087 A 
ATOM      5  C   UNL d   1      52.088  32.275  53.139  0.00  0.00     0.040 A 
ENDROOT
BRANCH   4   6
ATOM      6  C   UNL d   1      53.023  31.259  53.623  0.00  0.00     0.018 A 
ATOM      7  C   UNL d   1      52.931  30.927  54.368  0.00  0.00     0.002 A 
ATOM      8  C   UNL d   1      53.145  30.146  54.513  0.00  0.00     0.007 A 
ATOM      9  C   UNL d   1      53.457  29.691  53.904  0.00  0.00     0.035 A 
ATOM     10  C   UNL d   1      53.553  30.004  53.170  0.00  0.00     0.007 A 
ATOM     11 BR   UNL d   1      53.670  28.897  54.073  0.00  0.00    -0.049 Br
ATOM     12  C   UNL d   1      53.338  30.788  53.023  0.00  0.00     0.002 A 
ENDBRANCH   4   6
BRANCH   1  13
ATOM     13  C   UNL d   1      54.010  32.774  53.968  0.00  0.00     0.222 C 
ATOM     14  S   UNL d   1      54.687  32.724  53.462  0.00  0.00    -0.037 SA
BRANCH  13  15
ATOM     15  N   UNL d   1      54.120  32.855  54.803  0.00  0.00    -0.214 NA
ATOM     16  C   UNL d   1      54.744  33.320  55.098  0.00  0.00     0.122 C 
ENDBRANCH  13  15
ENDBRANCH   1  13
BRANCH   3  17
ATOM     17  C   UNL d   1      51.478  33.617  52.778  0.00  0.00     0.019 A 
ATOM     18  C   UNL d   1      51.537  33.945  52.025  0.00  0.00     0.002 A 
ATOM     19  C   UNL d   1      50.921  34.434  51.741  0.00  0.00     0.000 A 
ATOM     20  C   UNL d   1      50.266  34.584  52.209  0.00  0.00     0.000 A 
ATOM     21  C   UNL d   1      50.224  34.247  52.960  0.00  0.00     0.000 A 
ATOM     22  C   UNL d   1      50.818  33.772  53.241  0.00  0.00     0.002 A 
ENDBRANCH   3  17
TORSDOF 4
ENDMDL
MODEL 2
REMARK VINA RESULT:      -7.9      1.960      4.006
REMARK  4 active torsions:
REMARK  status: ('A' for Active; 'I' for Inactive)
REMARK    1  A    between atoms: C_5  and  N_1 
REMARK    2  A    between atoms: C_9  and  C_3 
REMARK    3  A    between atoms: C_7  and  C_4 
REMARK    4  A    between atoms: N_10  and  C_5 
ROOT
ATOM      1  N   UNL d   1      52.589  33.507  53.367  0.00  0.00    -0.203 N 
ATOM      2  N   UNL d   1      53.074  32.849  53.502  0.00  0.00    -0.163 NA
ATOM      3  C   UNL d   1      52.697  32.176  53.267  0.00  0.00     0.103 A 
ATOM      4  C   UNL d   1      51.874  33.238  53.032  0.00  0.00     0.087 A 
ATOM      5  C   UNL d   1      51.933  32.415  52.967  0.00  0.00     0.040 A 
ENDROOT
BRANCH   4   6
ATOM      6  C   UNL d   1      51.214  33.679  52.799  0.00  0.00     0.018 A 
ATOM      7  C   UNL d   1      50.604  33.838  53.324  0.00  0.00     0.002 A 
ATOM      8  C   UNL d   1      49.948  34.276  53.090  0.00  0.00     0.007 A 
ATOM      9  C   UNL d   1      49.903  34.559  52.320  0.00  0.00     0.035 A 
ATOM     10  C   UNL d   1      50.493  34.411  51.796  0.00  0.00     0.007 A 
ATOM     11 BR   UNL d   1      49.225  35.004  52.102  0.00  0.00    -0.049 Br
ATOM     12  C   UNL d   1      51.153  33.970  52.029  0.00  0.00     0.002 A 
ENDBRANCH   4   6
BRANCH   1  13
ATOM     13  C   UNL d   1      52.778  34.311  53.536  0.00  0.00     0.222 C 
ATOM     14  S   UNL d   1      53.117  34.790  52.926  0.00  0.00    -0.037 SA
BRANCH  13  15
ATOM     15  N   UNL d   1      52.635  34.648  54.300  0.00  0.00    -0.214 NA
ATOM     16  C   UNL d   1      53.105  35.279  54.570  0.00  0.00     0.122 C 
ENDBRANCH  13  15
ENDBRANCH   1  13
BRANCH   3  17
ATOM     17  C   UNL d   1      53.012  31.406  53.317  0.00  0.00     0.019 A 
ATOM     18  C   UNL d   1      53.705  31.259  53.736  0.00  0.00     0.002 A 
ATOM     19  C   UNL d   1      54.005  30.480  53.774  0.00  0.00     0.000 A 
ATOM     20  C   UNL d   1      53.611  29.870  53.397  0.00  0.00     0.000 A 
ATOM     21  C   UNL d   1      52.918  30.035  52.982  0.00  0.00     0.000 A 
ATOM     22  C   UNL d   1      52.622  30.788  52.942  0.00  0.00     0.002 A 
ENDBRANCH   3  17
TORSDOF 4
ENDMDL
MODEL 3
REMARK VINA RESULT:      -7.4      1.915      4.044
REMARK  4 active torsions:
REMARK  status: ('A' for Active; 'I' for Inactive)
REMARK    1  A    between atoms: C_5  and  N_1 
REMARK    2  A    between atoms: C_9  and  C_3 
REMARK    3  A    between atoms: C_7  and  C_4 
REMARK    4  A    between atoms: N_10  and  C_5 
ROOT
ATOM      1  N   UNL d   1      52.785  32.477  53.450  0.00  0.00    -0.203 N 
ATOM      2  N   UNL d   1      53.484  32.481  53.894  0.00  0.00    -0.163 NA
ATOM      3  C   UNL d   1      53.657  33.233  54.130  0.00  0.00     0.103 A 
ATOM      4  C   UNL d   1      52.503  33.261  53.403  0.00  0.00     0.087 A 
ATOM      5  C   UNL d   1      53.038  33.734  53.821  0.00  0.00     0.040 A 
ENDROOT
BRANCH   4   6
ATOM      6  C   UNL d   1      51.826  33.545  53.022  0.00  0.00     0.018 A 
ATOM      7  C   UNL d   1      51.093  33.521  53.389  0.00  0.00     0.002 A 
ATOM      8  C   UNL d   1      50.420  33.804  53.009  0.00  0.00     0.007 A 
ATOM      9  C   UNL d   1      50.483  34.116  52.251  0.00  0.00     0.035 A 
ATOM     10  C   UNL d   1      51.195  34.145  51.881  0.00  0.00     0.007 A 
ATOM     11 BR   UNL d   1      49.785  34.400  51.881  0.00  0.00    -0.049 Br
ATOM     12  C   UNL d   1      51.872  33.861  52.262  0.00  0.00     0.002 A 
ENDBRANCH   4   6
BRANCH   1  13
ATOM     13  C   UNL d   1      52.416  31.803  53.103  0.00  0.00     0.222 C 
ATOM     14  S   UNL d   1      51.742  31.462  53.485  0.00  0.00    -0.037 SA
BRANCH  13  15
ATOM     15  N   UNL d   1      52.704  31.462  52.384  0.00  0.00    -0.214 NA
ATOM     16  C   UNL d   1      52.809  30.639  52.327  0.00  0.00     0.122 C 
ENDBRANCH  13  15
ENDBRANCH   1  13
BRANCH   3  17
ATOM     17  C   UNL d   1      54.319  33.453  54.586  0.00  0.00     0.019 A 
ATOM     18  C   UNL d   1      55.030  33.662  54.226  0.00  0.00     0.002 A 
ATOM     19  C   UNL d   1      55.682  33.880  54.701  0.00  0.00     0.000 A 
ATOM     20  C   UNL d   1      55.612  33.886  55.517  0.00  0.00     0.000 A 
ATOM     21  C   UNL d   1      54.892  33.674  55.859  0.00  0.00     0.000 A 
ATOM     22  C   UNL d   1      54.257  33.461  55.404  0.00  0.00     0.002 A 
ENDBRANCH   3  17
TORSDOF 4
ENDMDL
MODEL 4
REMARK VINA RESULT:      -7.4      2.279      4.215
REMARK  4 active torsions:
REMARK  status: ('A' for Active; 'I' for Inactive)
REMARK    1  A    between atoms: C_5  and  N_1 
REMARK    2  A    between atoms: C_9  and  C_3 
REMARK    3  A    between atoms: C_7  and  C_4 
REMARK    4  A    between atoms: N_10  and  C_5 
ROOT
ATOM      1  N   UNL d   1      52.022  33.196  53.051  0.00  0.00    -0.203 N 
ATOM      2  N   UNL d   1      52.077  32.384  52.902  0.00  0.00    -0.163 NA
ATOM      3  C   UNL d   1      52.709  32.073  53.295  0.00  0.00     0.103 A 
ATOM      4  C   UNL d   1      52.647  33.409  53.562  0.00  0.00     0.087 A 
ATOM      5  C   UNL d   1      53.076  32.719  53.717  0.00  0.00     0.040 A 
ENDROOT
BRANCH   4   6
ATOM      6  C   UNL d   1      52.831  34.153  53.873  0.00  0.00     0.018 A 
ATOM      7  C   UNL d   1      53.194  34.726  53.411  0.00  0.00     0.002 A 
ATOM      8  C   UNL d   1      53.377  35.466  53.721  0.00  0.00     0.007 A 
ATOM      9  C   UNL d   1      53.193  35.634  54.504  0.00  0.00     0.035 A 
ATOM     10  C   UNL d   1      52.838  35.082  54.967  0.00  0.00     0.007 A 
ATOM     11 BR   UNL d   1      53.388  36.395  54.801  0.00  0.00    -0.049 Br
ATOM     12  C   UNL d   1      52.654  34.338  54.657  0.00  0.00     0.002 A 
ENDBRANCH   4   6
BRANCH   1  13
ATOM     13  C   UNL d   1      51.440  33.724  52.746  0.00  0.00     0.222 C 
ATOM     14  S   UNL d   1      51.599  34.135  52.023  0.00  0.00    -0.037 SA
BRANCH  13  15
ATOM     15  N   UNL d   1      50.705  33.850  53.144  0.00  0.00    -0.214 NA
ATOM     16  C   UNL d   1      50.058  34.173  52.731  0.00  0.00     0.122 C 
ENDBRANCH  13  15
ENDBRANCH   1  13
BRANCH   3  17
ATOM     17  C   UNL d   1      52.940  31.272  53.278  0.00  0.00     0.019 A 
ATOM     18  C   UNL d   1      52.486  30.710  52.881  0.00  0.00     0.002 A 
ATOM     19  C   UNL d   1      52.735  29.912  52.875  0.00  0.00     0.000 A 
ATOM     20  C   UNL d   1      53.423  29.694  53.261  0.00  0.00     0.000 A 
ATOM     21  C   UNL d   1      53.864  30.270  53.653  0.00  0.00     0.000 A 
ATOM     22  C   UNL d   1      53.629  31.045  53.662  0.00  0.00     0.002 A 
ENDBRANCH   3  17
TORSDOF 4
ENDMDL
MODEL 5
REMARK VINA RESULT:      -7.3      1.614      2.560
REMARK  4 active torsions:
REMARK  status: ('A' for Active; 'I' for Inactive)
REMARK    1  A    between atoms: C_5  and  N_1 
REMARK    2  A    between atoms: C_9  and  C_3 
REMARK    3  A    between atoms: C_7  and  C_4 
REMARK    4  A    between atoms: N_10  and  C_5 
ROOT
ATOM      1  N   UNL d   1      52.316  32.574  53.179  0.00  0.00    -0.203 N 
ATOM      2  N   UNL d   1      51.601  32.772  52.811  0.00  0.00    -0.163 NA
ATOM      3  C   UNL d   1      51.468  33.565  52.878  0.00  0.00     0.103 A 
ATOM      4  C   UNL d   1      52.649  33.271  53.494  0.00  0.00     0.087 A 
ATOM      5  C   UNL d   1      52.129  33.889  53.311  0.00  0.00     0.040 A 
ENDROOT
BRANCH   4   6
ATOM      6  C   UNL d   1      53.357  33.364  53.911  0.00  0.00     0.018 A 
ATOM      7  C   UNL d   1      54.070  33.458  53.518  0.00  0.00     0.002 A 
ATOM      8  C   UNL d   1      54.774  33.551  53.935  0.00  0.00     0.007 A 
ATOM      9  C   UNL d   1      54.763  33.549  54.756  0.00  0.00     0.035 A 
ATOM     10  C   UNL d   1      54.071  33.458  55.153  0.00  0.00     0.007 A 
ATOM     11 BR   UNL d   1      55.491  33.645  55.162  0.00  0.00    -0.049 Br
ATOM     12  C   UNL d   1      53.363  33.365  54.736  0.00  0.00     0.002 A 
ENDBRANCH   4   6
BRANCH   1  13
ATOM     13  C   UNL d   1      52.655  31.804  53.232  0.00  0.00     0.222 C 
ATOM     14  S   UNL d   1      52.541  31.353  53.940  0.00  0.00    -0.037 SA
BRANCH  13  15
ATOM     15  N   UNL d   1      53.105  31.474  52.596  0.00  0.00    -0.214 NA
ATOM     16  C   UNL d   1      53.157  30.648  52.509  0.00  0.00     0.122 C 
ENDBRANCH  13  15
ENDBRANCH   1  13
BRANCH   3  17
ATOM     17  C   UNL d   1      50.804  33.968  52.575  0.00  0.00     0.019 A 
ATOM     18  C   UNL d   1      50.666  34.005  51.764  0.00  0.00     0.002 A 
ATOM     19  C   UNL d   1      49.994  34.414  51.480  0.00  0.00     0.000 A 
ATOM     20  C   UNL d   1      49.481  34.774  52.006  0.00  0.00     0.000 A 
ATOM     21  C   UNL d   1      49.635  34.726  52.815  0.00  0.00     0.000 A 
ATOM     22  C   UNL d   1      50.284  34.331  53.096  0.00  0.00     0.002 A 
ENDBRANCH   3  17
TORSDOF 4
ENDMDL
