MODEL 1
REMARK VINA RESULT:      18.8      0.000      0.000
REMARK  1 active torsions:
REMARK  status: ('A' for Active; 'I' for Inactive)
REMARK    1  A    between atoms: C_7  and  C_2 
ROOT
ATOM      1  N   UNL d   1     -54.792-100.375 -37.542  0.00  0.00    -0.147 NA
ATOM      2  C   UNL d   1     -54.773-101.197 -37.531  0.00  0.00     0.103 A 
ATOM      3  N   UNL d   1     -54.792 -99.963 -36.837  0.00  0.00    -0.137 NA
ATOM      4  C   UNL d   1     -54.755-101.615 -36.818  0.00  0.00     0.022 A 
ATOM      5  C   UNL d   1     -54.775-100.373 -36.121  0.00  0.00     0.157 A 
ATOM      6  C   UNL d   1     -54.756-101.203 -36.112  0.00  0.00     0.031 A 
ATOM      7  S   UNL d   1     -54.775 -99.945 -35.388  0.00  0.00    -0.056 SA
ATOM      8  C   UNL d   1     -54.736-102.441 -36.804  0.00  0.00     0.002 A 
ATOM      9  C   UNL d   1     -54.738-101.617 -35.394  0.00  0.00     0.002 A 
ATOM     10  C   UNL d   1     -54.718-102.849 -36.097  0.00  0.00     0.000 A 
ATOM     11  C   UNL d   1     -54.719-102.437 -35.391  0.00  0.00     0.000 A 
ENDROOT
BRANCH   2  12
ATOM     12  C   UNL d   1     -54.772-101.625 -38.264  0.00  0.00     0.019 A 
ATOM     13  C   UNL d   1     -54.719-101.211 -38.982  0.00  0.00     0.002 A 
ATOM     14  C   UNL d   1     -54.718-101.626 -39.691  0.00  0.00     0.000 A 
ATOM     15  C   UNL d   1     -54.770-102.454 -39.684  0.00  0.00     0.000 A 
ATOM     16  C   UNL d   1     -54.823-102.863 -38.969  0.00  0.00     0.000 A 
ATOM     17  C   UNL d   1     -54.769-102.877 -40.407  0.00  0.00     0.000 C 
ATOM     18  C   UNL d   1     -54.824-102.448 -38.259  0.00  0.00     0.002 A 
ENDBRANCH   2  12
TORSDOF 1
ENDMDL
