MODEL 1
REMARK VINA RESULT:      -4.6      0.000      0.000
REMARK  5 active torsions:
REMARK  status: ('A' for Active; 'I' for Inactive)
REMARK    1  A    between atoms: C_3  and  N_1 
REMARK    2  A    between atoms: C_4  and  N_1 
REMARK    3  A    between atoms: N_7  and  C_3 
REMARK    4  A    between atoms: C_10  and  N_7 
REMARK    5  A    between atoms: C_8  and  C_10 
ROOT
ATOM      1  N   UNL d   1     -41.186-122.403 -52.225  0.00  0.00    -0.198 NA
ENDROOT
BRANCH   1   2
ATOM      2  C   UNL d   1     -41.387-122.845 -52.901  0.00  0.00     0.222 C 
ATOM      3  S   UNL d   1     -41.123-123.582 -52.985  0.00  0.00    -0.037 SA
BRANCH   2   4
ATOM      4  N   UNL d   1     -41.849-122.516 -53.463  0.00  0.00    -0.216 NA
BRANCH   4   5
ATOM      5  C   UNL d   1     -41.689-122.653 -54.257  0.00  0.00     0.101 C 
BRANCH   5   6
ATOM      6  C   UNL d   1     -42.094-122.218 -54.846  0.00  0.00     0.019 C 
ATOM      7  C   UNL d   1     -42.908-122.315 -54.944  0.00  0.00     0.002 C 
ATOM      8  C   UNL d   1     -41.678-121.693 -55.326  0.00  0.00     0.002 C 
ENDBRANCH   5   6
ENDBRANCH   4   5
ENDBRANCH   2   4
ENDBRANCH   1   2
BRANCH   1   9
ATOM      9  C   UNL d   1     -41.487-122.622 -51.490  0.00  0.00     0.167 A 
ATOM     10  N   UNL d   1     -42.146-122.233 -51.179  0.00  0.00    -0.206 NA
ATOM     11  C   UNL d   1     -42.447-122.452 -50.443  0.00  0.00     0.185 A 
ATOM     12  N   UNL d   1     -43.102-122.057 -50.145  0.00  0.00    -0.127 N 
ATOM     13  C   UNL d   1     -42.090-123.059 -50.018  0.00  0.00     0.041 A 
ATOM     14  C   UNL d   1     -41.426-123.454 -50.326  0.00  0.00     0.006 A 
ATOM     15  C   UNL d   1     -41.127-123.230 -51.067  0.00  0.00     0.039 A 
ENDBRANCH   1   9
TORSDOF 5
ENDMDL
MODEL 2
REMARK VINA RESULT:      -4.3      0.944      1.322
REMARK  5 active torsions:
REMARK  status: ('A' for Active; 'I' for Inactive)
REMARK    1  A    between atoms: C_3  and  N_1 
REMARK    2  A    between atoms: C_4  and  N_1 
REMARK    3  A    between atoms: N_7  and  C_3 
REMARK    4  A    between atoms: C_10  and  N_7 
REMARK    5  A    between atoms: C_8  and  C_10 
ROOT
ATOM      1  N   UNL d   1     -42.216-122.529 -51.421  0.00  0.00    -0.198 NA
ENDROOT
BRANCH   1   2
ATOM      2  C   UNL d   1     -41.592-122.301 -51.920  0.00  0.00     0.222 C 
ATOM      3  S   UNL d   1     -41.124-121.700 -51.720  0.00  0.00    -0.037 SA
BRANCH   2   4
ATOM      4  N   UNL d   1     -41.470-122.694 -52.604  0.00  0.00    -0.216 NA
BRANCH   4   5
ATOM      5  C   UNL d   1     -41.504-122.294 -53.320  0.00  0.00     0.101 C 
BRANCH   5   6
ATOM      6  C   UNL d   1     -41.493-122.721 -54.039  0.00  0.00     0.019 C 
ATOM      7  C   UNL d   1     -41.841-122.400 -54.715  0.00  0.00     0.002 C 
ATOM      8  C   UNL d   1     -41.133-123.462 -54.070  0.00  0.00     0.002 C 
ENDBRANCH   5   6
ENDBRANCH   4   5
ENDBRANCH   2   4
ENDBRANCH   1   2
BRANCH   1   9
ATOM      9  C   UNL d   1     -42.051-122.815 -50.665  0.00  0.00     0.167 A 
ATOM     10  N   UNL d   1     -42.553-122.636 -50.035  0.00  0.00    -0.206 NA
ATOM     11  C   UNL d   1     -42.388-122.922 -49.279  0.00  0.00     0.185 A 
ATOM     12  N   UNL d   1     -42.894-122.736 -48.661  0.00  0.00    -0.127 N 
ATOM     13  C   UNL d   1     -41.721-123.388 -49.154  0.00  0.00     0.041 A 
ATOM     14  C   UNL d   1     -41.212-123.572 -49.785  0.00  0.00     0.006 A 
ATOM     15  C   UNL d   1     -41.383-123.281 -50.544  0.00  0.00     0.039 A 
ENDBRANCH   1   9
TORSDOF 5
ENDMDL
