MODEL 1
REMARK VINA RESULT:      -5.2      0.000      0.000
REMARK  4 active torsions:
REMARK  status: ('A' for Active; 'I' for Inactive)
REMARK    1  A    between atoms: C_5  and  C_1 
REMARK    2  A    between atoms: O_8  and  C_5 
REMARK    3  A    between atoms: C_11  and  O_8 
REMARK    4  A    between atoms: C_12  and  C_11 
ROOT
ATOM      1  C   UNL d   1      57.644  -0.368  30.935  0.00  0.00     0.127 A 
ATOM      2  C   UNL d   1      57.959   0.211  31.385  0.00  0.00     0.305 A 
ATOM      3  C   UNL d   1      57.024  -0.839  31.210  0.00  0.00     0.013 A 
ATOM      4  O   UNL d   1      57.682   0.366  32.147  0.00  0.00    -0.273 OA
ATOM      5  C   UNL d   1      56.747  -0.684  31.971  0.00  0.00     0.023 A 
ATOM      6  C   UNL d   1      57.062  -0.105  32.421  0.00  0.00     0.103 A 
ATOM      7  O   UNL d   1      58.579   0.682  31.111  0.00  0.00    -0.259 OA
ATOM      8  C   UNL d   1      56.127  -1.155  32.245  0.00  0.00     0.002 A 
ATOM      9  C   UNL d   1      56.785   0.050  33.182  0.00  0.00     0.025 A 
ATOM     10  C   UNL d   1      56.165  -0.421  33.456  0.00  0.00     0.002 A 
ATOM     11  C   UNL d   1      55.850  -1.000  33.007  0.00  0.00     0.000 A 
ENDROOT
BRANCH   1  12
ATOM     12  C   UNL d   1      57.921  -0.523  30.174  0.00  0.00     0.305 C 
ATOM     13  O   UNL d   1      57.774   0.000  29.540  0.00  0.00    -0.259 OA
BRANCH  12  14
ATOM     14  O   UNL d   1      58.344  -1.196  30.042  0.00  0.00    -0.271 OA
BRANCH  14  15
ATOM     15  C   UNL d   1      58.621  -1.378  29.306  0.00  0.00     0.126 C 
BRANCH  15  16
ATOM     16  C   UNL d   1      59.038  -2.055  29.172  0.00  0.00     0.025 A 
ATOM     17  C   UNL d   1      59.871  -2.038  29.211  0.00  0.00     0.002 A 
ATOM     18  C   UNL d   1      60.290  -2.752  29.069  0.00  0.00     0.000 A 
ATOM     19  C   UNL d   1      59.916  -3.446  28.898  0.00  0.00     0.000 A 
ATOM     20  C   UNL d   1      59.083  -3.463  28.859  0.00  0.00     0.000 A 
ATOM     21  C   UNL d   1      58.666  -2.786  28.993  0.00  0.00     0.002 A 
ENDBRANCH  15  16
ENDBRANCH  14  15
ENDBRANCH  12  14
ENDBRANCH   1  12
TORSDOF 4
ENDMDL
MODEL 2
REMARK VINA RESULT:      -5.2      0.761      4.275
REMARK  4 active torsions:
REMARK  status: ('A' for Active; 'I' for Inactive)
REMARK    1  A    between atoms: C_5  and  C_1 
REMARK    2  A    between atoms: O_8  and  C_5 
REMARK    3  A    between atoms: C_11  and  O_8 
REMARK    4  A    between atoms: C_12  and  C_11 
ROOT
ATOM      1  C   UNL d   1      58.643  -0.797  29.673  0.00  0.00     0.127 A 
ATOM      2  C   UNL d   1      59.383  -0.520  29.560  0.00  0.00     0.305 A 
ATOM      3  C   UNL d   1      58.438  -1.573  29.479  0.00  0.00     0.013 A 
ATOM      4  O   UNL d   1      59.979  -0.996  29.243  0.00  0.00    -0.273 OA
ATOM      5  C   UNL d   1      59.034  -2.048  29.163  0.00  0.00     0.023 A 
ATOM      6  C   UNL d   1      59.773  -1.771  29.050  0.00  0.00     0.103 A 
ATOM      7  O   UNL d   1      59.588   0.255  29.753  0.00  0.00    -0.259 OA
ATOM      8  C   UNL d   1      58.828  -2.823  28.969  0.00  0.00     0.002 A 
ATOM      9  C   UNL d   1      60.369  -2.246  28.733  0.00  0.00     0.025 A 
ATOM     10  C   UNL d   1      60.164  -3.022  28.540  0.00  0.00     0.002 A 
ATOM     11  C   UNL d   1      59.424  -3.299  28.653  0.00  0.00     0.000 A 
ENDROOT
BRANCH   1  12
ATOM     12  C   UNL d   1      58.048  -0.322  29.989  0.00  0.00     0.305 C 
ATOM     13  O   UNL d   1      57.740   0.331  29.569  0.00  0.00    -0.259 OA
BRANCH  12  14
ATOM     14  O   UNL d   1      57.758  -0.494  30.721  0.00  0.00    -0.271 OA
BRANCH  14  15
ATOM     15  C   UNL d   1      57.184  -0.040  31.060  0.00  0.00     0.126 C 
BRANCH  15  16
ATOM     16  C   UNL d   1      56.870  -0.230  31.779  0.00  0.00     0.025 A 
ATOM     17  C   UNL d   1      56.907   0.323  32.402  0.00  0.00     0.002 A 
ATOM     18  C   UNL d   1      56.576   0.109  33.142  0.00  0.00     0.000 A 
ATOM     19  C   UNL d   1      56.226  -0.607  33.269  0.00  0.00     0.000 A 
ATOM     20  C   UNL d   1      56.189  -1.161  32.647  0.00  0.00     0.000 A 
ATOM     21  C   UNL d   1      56.503  -0.970  31.928  0.00  0.00     0.002 A 
ENDBRANCH  15  16
ENDBRANCH  14  15
ENDBRANCH  12  14
ENDBRANCH   1  12
TORSDOF 4
ENDMDL
