MODEL 1
REMARK VINA RESULT:      -9.2      0.000      0.000
REMARK  5 active torsions:
REMARK  status: ('A' for Active; 'I' for Inactive)
REMARK    1  A    between atoms: C_11  and  N_1 
REMARK    2  A    between atoms: C_2  and  S_13 
REMARK       I    between atoms: C_12  and  N_14 
REMARK    3  A    between atoms: C_18  and  C_12 
REMARK    4  A    between atoms: S_13  and  C_18 
REMARK    5  A    between atoms: N_14  and  C_19 
ROOT
ATOM      1  C   UNL d   1      54.024  34.114  54.457  0.00  0.00     0.286 C 
ATOM      2  N   UNL d   1      54.475  33.444  54.629  0.00  0.00    -0.208 NA
ATOM      3  O   UNL d   1      54.309  34.863  54.655  0.00  0.00    -0.265 OA
ENDROOT
BRANCH   1   4
ATOM      4  C   UNL d   1      53.287  34.030  54.086  0.00  0.00     0.101 C 
BRANCH   4   5
ATOM      5  S   UNL d   1      52.894  34.704  53.805  0.00  0.00    -0.037 SA
BRANCH   5   6
ATOM      6  C   UNL d   1      52.193  34.612  53.362  0.00  0.00     0.215 A 
ATOM      7  N   UNL d   1      51.422  34.680  53.657  0.00  0.00    -0.214 NA
ATOM      8  C   UNL d   1      50.897  34.548  53.032  0.00  0.00     0.107 A 
ATOM      9  C   UNL d   1      50.076  34.545  52.998  0.00  0.00     0.021 A 
ATOM     10  C   UNL d   1      51.341  34.401  52.359  0.00  0.00     0.120 A 
ATOM     11  C   UNL d   1      49.695  34.393  52.282  0.00  0.00     0.002 A 
ATOM     12  C   UNL d   1      50.139  34.244  51.601  0.00  0.00     0.002 A 
ATOM     13  C   UNL d   1      50.967  34.248  51.639  0.00  0.00     0.026 A 
ATOM     14  O   UNL d   1      52.144  34.439  52.554  0.00  0.00    -0.283 OA
ENDBRANCH   5   6
ENDBRANCH   4   5
ENDBRANCH   1   4
BRANCH   2  15
ATOM     15  C   UNL d   1      54.195  32.697  54.434  0.00  0.00     0.085 A 
ATOM     16  C   UNL d   1      54.364  32.373  53.680  0.00  0.00     0.021 A 
ATOM     17  C   UNL d   1      54.087  31.634  53.488  0.00  0.00     0.021 A 
ATOM     18  C   UNL d   1      53.638  31.193  54.025  0.00  0.00     0.086 A 
ATOM     19  C   UNL d   1      53.473  31.514  54.766  0.00  0.00     0.021 A 
ATOM     20  C   UNL d   1      53.752  32.268  54.970  0.00  0.00     0.021 A 
BRANCH  18  21
ATOM     21  N   UNL d   1      53.358  30.446  53.829  0.00  0.00    -0.189 N 
ATOM     22  N   UNL d   1      53.442  29.759  54.276  0.00  0.00    -0.038 NA
ATOM     23  N   UNL d   1      53.077  29.145  53.867  0.00  0.00    -0.022 NA
ATOM     24  N   UNL d   1      52.765  29.445  53.169  0.00  0.00    -0.104 NA
ATOM     25  C   UNL d   1      52.940  30.253  53.146  0.00  0.00     0.226 A 
ENDBRANCH  18  21
ENDBRANCH   2  15
TORSDOF 5
ENDMDL
MODEL 2
REMARK VINA RESULT:      -8.1      1.440      4.261
REMARK  5 active torsions:
REMARK  status: ('A' for Active; 'I' for Inactive)
REMARK    1  A    between atoms: C_11  and  N_1 
REMARK    2  A    between atoms: C_2  and  S_13 
REMARK       I    between atoms: C_12  and  N_14 
REMARK    3  A    between atoms: C_18  and  C_12 
REMARK    4  A    between atoms: S_13  and  C_18 
REMARK    5  A    between atoms: N_14  and  C_19 
ROOT
ATOM      1  C   UNL d   1      53.830  34.028  54.484  0.00  0.00     0.286 C 
ATOM      2  N   UNL d   1      53.365  34.693  54.335  0.00  0.00    -0.208 NA
ATOM      3  O   UNL d   1      54.507  34.095  54.953  0.00  0.00    -0.265 OA
ENDROOT
BRANCH   1   4
ATOM      4  C   UNL d   1      53.614  33.294  54.163  0.00  0.00     0.101 C 
BRANCH   4   5
ATOM      5  S   UNL d   1      54.097  32.633  54.297  0.00  0.00    -0.037 SA
BRANCH   5   6
ATOM      6  C   UNL d   1      53.824  31.877  54.075  0.00  0.00     0.215 A 
ATOM      7  N   UNL d   1      53.751  31.221  54.577  0.00  0.00    -0.214 NA
ATOM      8  C   UNL d   1      53.461  30.589  54.131  0.00  0.00     0.107 A 
ATOM      9  C   UNL d   1      53.282  29.813  54.333  0.00  0.00     0.021 A 
ATOM     10  C   UNL d   1      53.357  30.852  53.361  0.00  0.00     0.120 A 
ATOM     11  C   UNL d   1      52.995  29.294  53.758  0.00  0.00     0.002 A 
ATOM     12  C   UNL d   1      52.889  29.556  52.981  0.00  0.00     0.002 A 
ATOM     13  C   UNL d   1      53.071  30.340  52.781  0.00  0.00     0.026 A 
ATOM     14  O   UNL d   1      53.579  31.648  53.318  0.00  0.00    -0.283 OA
ENDBRANCH   5   6
ENDBRANCH   4   5
ENDBRANCH   1   4
BRANCH   2  15
ATOM     15  C   UNL d   1      52.692  34.630  53.869  0.00  0.00     0.085 A 
ATOM     16  C   UNL d   1      52.735  34.793  53.049  0.00  0.00     0.021 A 
ATOM     17  C   UNL d   1      52.068  34.730  52.589  0.00  0.00     0.021 A 
ATOM     18  C   UNL d   1      51.343  34.506  52.918  0.00  0.00     0.086 A 
ATOM     19  C   UNL d   1      51.302  34.346  53.725  0.00  0.00     0.021 A 
ATOM     20  C   UNL d   1      51.978  34.408  54.202  0.00  0.00     0.021 A 
BRANCH  18  21
ATOM     21  N   UNL d   1      50.669  34.443  52.453  0.00  0.00    -0.189 N 
ATOM     22  N   UNL d   1      50.630  34.148  51.684  0.00  0.00    -0.038 NA
ATOM     23  N   UNL d   1      49.847  34.189  51.437  0.00  0.00    -0.022 NA
ATOM     24  N   UNL d   1      49.396  34.509  52.045  0.00  0.00    -0.104 NA
ATOM     25  C   UNL d   1      49.907  34.666  52.676  0.00  0.00     0.226 A 
ENDBRANCH  18  21
ENDBRANCH   2  15
TORSDOF 5
ENDMDL
