MODEL 1
REMARK VINA RESULT:      18.1      0.000      0.000
REMARK  2 active torsions:
REMARK  status: ('A' for Active; 'I' for Inactive)
REMARK    1  A    between atoms: N_2  and  S_1 
REMARK    2  A    between atoms: C_3  and  S_1 
ROOT
ATOM      1  S   UNL d   1      13.753  12.560  -2.677  0.00  0.00     0.287 S 
ATOM      2  O   UNL d   1      13.820  11.781  -2.414  0.00  0.00    -0.198 OA
ATOM      3  O   UNL d   1      13.943  13.187  -2.159  0.00  0.00    -0.198 OA
ENDROOT
BRANCH   1   4
ATOM      4  N   UNL d   1      13.498  12.723  -3.455  0.00  0.00    -0.152 N 
ATOM      5  N   UNL d   1      13.308  12.095  -3.973  0.00  0.00    -0.155 NA
ATOM      6  C   UNL d   1      13.053  12.259  -4.753  0.00  0.00     0.104 A 
ATOM      7  C   UNL d   1      12.820  11.786  -5.413  0.00  0.00     0.022 C 
ATOM      8  C   UNL d   1      13.177  13.666  -4.497  0.00  0.00     0.041 A 
ATOM      9  C   UNL d   1      13.432  13.502  -3.718  0.00  0.00     0.096 A 
ATOM     10  C   UNL d   1      13.622  14.130  -3.200  0.00  0.00     0.022 C 
ENDBRANCH   1   4
BRANCH   1  11
ATOM     11  C   UNL d   1      14.124  12.322  -1.546  0.00  0.00     0.117 A 
ATOM     12  C   UNL d   1      14.833  12.502  -1.291  0.00  0.00     0.025 A 
ATOM     13  C   UNL d   1      15.037  12.334  -0.556  0.00  0.00     0.059 A 
ATOM     14 CL   UNL d   1      15.806  12.529  -0.278  0.00  0.00    -0.082 Cl
ATOM     15  C   UNL d   1      14.522  11.986  -0.089  0.00  0.00     0.012 A 
ATOM     16  C   UNL d   1      13.811  11.805  -0.343  0.00  0.00     0.013 A 
ATOM     17  C   UNL d   1      13.611  11.974  -1.077  0.00  0.00     0.070 A 
ATOM     18 CL   UNL d   1      12.848  11.781  -1.353  0.00  0.00    -0.082 Cl
ENDBRANCH   1  11
TORSDOF 2
ENDMDL
