MODEL 1
REMARK VINA RESULT:       7.7      0.000      0.000
REMARK  3 active torsions:
REMARK  status: ('A' for Active; 'I' for Inactive)
REMARK       I    between atoms: C_6  and  N_1 
REMARK    1  A    between atoms: C_11  and  C_5 
REMARK    2  A    between atoms: C_12  and  C_6 
REMARK    3  A    between atoms: C_27  and  N_10 
ROOT
ATOM      1  N   UNL d   1      56.707   0.350  34.128  0.00  0.00    -0.264 N 
ATOM      2  C   UNL d   1      56.727   0.492  34.947  0.00  0.00     0.198 A 
ATOM      3  C   UNL d   1      55.911   0.351  33.896  0.00  0.00     0.138 A 
ATOM      4  N   UNL d   1      55.952   0.579  35.206  0.00  0.00    -0.243 NA
ATOM      5  C   UNL d   1      55.446   0.493  34.561  0.00  0.00     0.105 A 
ATOM      6  C   UNL d   1      57.350   0.230  33.645  0.00  0.00     0.263 C 
ATOM      7  C   UNL d   1      56.670   0.637  35.758  0.00  0.00     0.041 A 
ATOM      8  C   UNL d   1      57.457   0.392  34.599  0.00  0.00     0.041 A 
ATOM      9  S   UNL d   1      55.632   0.230  33.122  0.00  0.00    -0.058 SA
ATOM     10  N   UNL d   1      58.097   0.579  35.858  0.00  0.00    -0.303 N 
ATOM     11  O   UNL d   1      58.116   0.245  33.962  0.00  0.00    -0.267 OA
ATOM     12  C   UNL d   1      58.143   0.435  35.054  0.00  0.00     0.080 A 
ATOM     13  C   UNL d   1      57.366   0.679  36.207  0.00  0.00     0.080 A 
ENDROOT
BRANCH   6  14
ATOM     14  C   UNL d   1      57.243   0.095  32.842  0.00  0.00     0.056 A 
ATOM     15  C   UNL d   1      56.879  -0.593  32.592  0.00  0.00     0.005 A 
ATOM     16  C   UNL d   1      56.770  -0.732  31.787  0.00  0.00     0.000 A 
ATOM     17  C   UNL d   1      57.028  -0.178  31.231  0.00  0.00     0.000 A 
ATOM     18  C   UNL d   1      57.397   0.519  31.487  0.00  0.00     0.000 A 
ATOM     19  C   UNL d   1      56.918  -0.320  30.424  0.00  0.00     0.000 C 
ATOM     20  C   UNL d   1      57.504   0.655  32.290  0.00  0.00     0.005 A 
ENDBRANCH   6  14
BRANCH   5  21
ATOM     21  C   UNL d   1      54.625   0.540  34.580  0.00  0.00     0.020 A 
ATOM     22  C   UNL d   1      54.193   0.516  33.869  0.00  0.00     0.004 A 
ATOM     23  C   UNL d   1      53.357   0.564  33.890  0.00  0.00     0.030 A 
ATOM     24  C   UNL d   1      52.969   0.635  34.621  0.00  0.00     0.140 A 
ATOM     25  C   UNL d   1      53.398   0.657  35.315  0.00  0.00     0.030 A 
ATOM     26  F   UNL d   1      52.145   0.682  34.638  0.00  0.00    -0.204 F 
ATOM     27  C   UNL d   1      54.221   0.611  35.313  0.00  0.00     0.004 A 
ENDBRANCH   5  21
BRANCH  10  28
ATOM     28  C   UNL d   1      58.788   0.623  36.318  0.00  0.00     0.080 C 
ATOM     29  C   UNL d   1      59.528   0.547  35.956  0.00  0.00     0.021 C 
ENDBRANCH  10  28
TORSDOF 3
ENDMDL
MODEL 2
REMARK VINA RESULT:       8.1     10.554     11.102
REMARK  3 active torsions:
REMARK  status: ('A' for Active; 'I' for Inactive)
REMARK       I    between atoms: C_6  and  N_1 
REMARK    1  A    between atoms: C_11  and  C_5 
REMARK    2  A    between atoms: C_12  and  C_6 
REMARK    3  A    between atoms: C_27  and  N_10 
ROOT
ATOM      1  N   UNL d   1      58.624  -9.723  30.972  0.00  0.00    -0.264 N 
ATOM      2  C   UNL d   1      59.447  -9.701  31.086  0.00  0.00     0.198 A 
ATOM      3  C   UNL d   1      58.270  -9.737  31.721  0.00  0.00     0.138 A 
ATOM      4  N   UNL d   1      59.589  -9.703  31.895  0.00  0.00    -0.243 NA
ATOM      5  C   UNL d   1      58.866  -9.725  32.291  0.00  0.00     0.105 A 
ATOM      6  C   UNL d   1      58.238  -9.729  30.256  0.00  0.00     0.263 C 
ATOM      7  C   UNL d   1      60.251  -9.681  31.274  0.00  0.00     0.041 A 
ATOM      8  C   UNL d   1      59.209  -9.703  30.306  0.00  0.00     0.041 A 
ATOM      9  S   UNL d   1      57.453  -9.760  31.872  0.00  0.00    -0.058 SA
ATOM     10  N   UNL d   1      60.567  -9.663  29.878  0.00  0.00    -0.303 N 
ATOM     11  O   UNL d   1      58.671  -9.713  29.549  0.00  0.00    -0.267 OA
ATOM     12  C   UNL d   1      59.769  -9.684  29.702  0.00  0.00     0.080 A 
ATOM     13  C   UNL d   1      60.806  -9.662  30.659  0.00  0.00     0.080 A 
ENDROOT
BRANCH   6  14
ATOM     14  C   UNL d   1      57.417  -9.751  30.231  0.00  0.00     0.056 A 
ATOM     15  C   UNL d   1      57.035  -9.765  29.508  0.00  0.00     0.005 A 
ATOM     16  C   UNL d   1      56.211  -9.787  29.479  0.00  0.00     0.000 A 
ATOM     17  C   UNL d   1      55.771  -9.796  30.177  0.00  0.00     0.000 A 
ATOM     18  C   UNL d   1      56.160  -9.782  30.909  0.00  0.00     0.000 A 
ATOM     19  C   UNL d   1      54.944  -9.818  30.145  0.00  0.00     0.000 C 
ATOM     20  C   UNL d   1      56.981  -9.759  30.935  0.00  0.00     0.005 A 
ENDBRANCH   6  14
BRANCH   5  21
ATOM     21  C   UNL d   1      58.760  -9.733  33.106  0.00  0.00     0.020 A 
ATOM     22  C   UNL d   1      57.995  -9.810  33.423  0.00  0.00     0.004 A 
ATOM     23  C   UNL d   1      57.890  -9.817  34.255  0.00  0.00     0.030 A 
ATOM     24  C   UNL d   1      58.550  -9.748  34.752  0.00  0.00     0.140 A 
ATOM     25  C   UNL d   1      59.299  -9.673  34.435  0.00  0.00     0.030 A 
ATOM     26  F   UNL d   1      58.442  -9.757  35.570  0.00  0.00    -0.204 F 
ATOM     27  C   UNL d   1      59.422  -9.663  33.620  0.00  0.00     0.004 A 
ENDBRANCH   5  21
BRANCH  10  28
ATOM     28  C   UNL d   1      61.133  -9.644  29.269  0.00  0.00     0.080 C 
ATOM     29  C   UNL d   1      61.093  -9.054  28.690  0.00  0.00     0.021 C 
ENDBRANCH  10  28
TORSDOF 3
ENDMDL
MODEL 3
REMARK VINA RESULT:       8.9      2.085      3.940
REMARK  3 active torsions:
REMARK  status: ('A' for Active; 'I' for Inactive)
REMARK       I    between atoms: C_6  and  N_1 
REMARK    1  A    between atoms: C_11  and  C_5 
REMARK    2  A    between atoms: C_12  and  C_6 
REMARK    3  A    between atoms: C_27  and  N_10 
ROOT
ATOM      1  N   UNL d   1      57.063   0.326  32.770  0.00  0.00    -0.264 N 
ATOM      2  C   UNL d   1      56.678   0.477  33.492  0.00  0.00     0.198 A 
ATOM      3  C   UNL d   1      57.878   0.327  32.918  0.00  0.00     0.138 A 
ATOM      4  N   UNL d   1      57.255   0.568  34.069  0.00  0.00    -0.243 NA
ATOM      5  C   UNL d   1      57.996   0.476  33.720  0.00  0.00     0.105 A 
ATOM      6  C   UNL d   1      56.704   0.201  32.051  0.00  0.00     0.263 C 
ATOM      7  C   UNL d   1      56.365   0.630  34.240  0.00  0.00     0.041 A 
ATOM      8  C   UNL d   1      56.181   0.372  32.854  0.00  0.00     0.041 A 
ATOM      9  S   UNL d   1      58.474   0.199  32.353  0.00  0.00    -0.058 SA
ATOM     10  N   UNL d   1      55.046   0.569  33.691  0.00  0.00    -0.303 N 
ATOM     11  O   UNL d   1      55.876   0.217  31.991  0.00  0.00    -0.267 OA
ATOM     12  C   UNL d   1      55.364   0.418  32.953  0.00  0.00     0.080 A 
ATOM     13  C   UNL d   1      55.543   0.674  34.329  0.00  0.00     0.080 A 
ENDROOT
BRANCH   6  14
ATOM     14  C   UNL d   1      57.159   0.058  31.382  0.00  0.00     0.056 A 
ATOM     15  C   UNL d   1      57.345   0.676  30.880  0.00  0.00     0.005 A 
ATOM     16  C   UNL d   1      57.802   0.536  30.207  0.00  0.00     0.000 A 
ATOM     17  C   UNL d   1      58.071  -0.226  30.040  0.00  0.00     0.000 A 
ATOM     18  C   UNL d   1      57.881  -0.851  30.550  0.00  0.00     0.000 A 
ATOM     19  C   UNL d   1      58.529  -0.364  29.364  0.00  0.00     0.000 C 
ATOM     20  C   UNL d   1      57.426  -0.709  31.219  0.00  0.00     0.005 A 
ENDBRANCH   6  14
BRANCH   5  21
ATOM     21  C   UNL d   1      58.721   0.525  34.104  0.00  0.00     0.020 A 
ATOM     22  C   UNL d   1      58.746   0.617  34.931  0.00  0.00     0.004 A 
ATOM     23  C   UNL d   1      59.487   0.667  35.320  0.00  0.00     0.030 A 
ATOM     24  C   UNL d   1      60.187   0.624  34.877  0.00  0.00     0.140 A 
ATOM     25  C   UNL d   1      60.156   0.534  34.066  0.00  0.00     0.030 A 
ATOM     26  F   UNL d   1      60.913   0.673  35.264  0.00  0.00    -0.204 F 
ATOM     27  C   UNL d   1      59.438   0.483  33.666  0.00  0.00     0.004 A 
ENDBRANCH   5  21
BRANCH  10  28
ATOM     28  C   UNL d   1      54.221   0.616  33.792  0.00  0.00     0.080 C 
ATOM     29  C   UNL d   1      53.889   0.466  34.535  0.00  0.00     0.021 C 
ENDBRANCH  10  28
TORSDOF 3
ENDMDL
MODEL 4
REMARK VINA RESULT:      10.0      1.812      2.599
REMARK  3 active torsions:
REMARK  status: ('A' for Active; 'I' for Inactive)
REMARK       I    between atoms: C_6  and  N_1 
REMARK    1  A    between atoms: C_11  and  C_5 
REMARK    2  A    between atoms: C_12  and  C_6 
REMARK    3  A    between atoms: C_27  and  N_10 
ROOT
ATOM      1  N   UNL d   1      58.318   0.121  32.063  0.00  0.00    -0.264 N 
ATOM      2  C   UNL d   1      58.551   0.298  32.841  0.00  0.00     0.198 A 
ATOM      3  C   UNL d   1      57.494   0.037  32.064  0.00  0.00     0.138 A 
ATOM      4  N   UNL d   1      57.875   0.320  33.307  0.00  0.00    -0.243 NA
ATOM      5  C   UNL d   1      57.221   0.159  32.832  0.00  0.00     0.105 A 
ATOM      6  C   UNL d   1      58.809   0.046  31.419  0.00  0.00     0.263 C 
ATOM      7  C   UNL d   1      58.710   0.469  33.634  0.00  0.00     0.041 A 
ATOM      8  C   UNL d   1      59.162   0.255  32.302  0.00  0.00     0.041 A 
ATOM      9  S   UNL d   1      57.023  -0.141  31.402  0.00  0.00    -0.058 SA
ATOM     10  N   UNL d   1      60.105   0.553  33.327  0.00  0.00    -0.303 N 
ATOM     11  O   UNL d   1      59.628   0.147  31.507  0.00  0.00    -0.267 OA
ATOM     12  C   UNL d   1      59.939   0.382  32.545  0.00  0.00     0.080 A 
ATOM     13  C   UNL d   1      59.494   0.596  33.867  0.00  0.00     0.080 A 
ENDROOT
BRANCH   6  14
ATOM     14  C   UNL d   1      58.497  -0.131  30.680  0.00  0.00     0.056 A 
ATOM     15  C   UNL d   1      58.425  -0.912  30.448  0.00  0.00     0.005 A 
ATOM     16  C   UNL d   1      58.112  -1.093  29.707  0.00  0.00     0.000 A 
ATOM     17  C   UNL d   1      57.871  -0.488  29.199  0.00  0.00     0.000 A 
ATOM     18  C   UNL d   1      57.945   0.303  29.437  0.00  0.00     0.000 A 
ATOM     19  C   UNL d   1      57.557  -0.673  28.456  0.00  0.00     0.000 C 
ATOM     20  C   UNL d   1      58.257   0.480  30.176  0.00  0.00     0.005 A 
ENDBRANCH   6  14
BRANCH   5  21
ATOM     21  C   UNL d   1      56.438   0.128  33.081  0.00  0.00     0.020 A 
ATOM     22  C   UNL d   1      55.888   0.678  32.786  0.00  0.00     0.004 A 
ATOM     23  C   UNL d   1      55.090   0.643  33.042  0.00  0.00     0.030 A 
ATOM     24  C   UNL d   1      54.859   0.061  33.586  0.00  0.00     0.140 A 
ATOM     25  C   UNL d   1      55.403  -0.475  33.872  0.00  0.00     0.030 A 
ATOM     26  F   UNL d   1      54.073   0.031  33.835  0.00  0.00    -0.204 F 
ATOM     27  C   UNL d   1      56.191  -0.457  33.632  0.00  0.00     0.004 A 
ENDBRANCH   5  21
BRANCH  10  28
ATOM     28  C   UNL d   1      60.889   0.682  33.573  0.00  0.00     0.080 C 
ATOM     29  C   UNL d   1      61.127   0.442  34.328  0.00  0.00     0.021 C 
ENDBRANCH  10  28
TORSDOF 3
ENDMDL
