MODEL 1
REMARK VINA RESULT:     141.3      0.000      0.000
REMARK  4 active torsions:
REMARK  status: ('A' for Active; 'I' for Inactive)
REMARK    1  A    between atoms: C_2  and  S_1 
REMARK    2  A    between atoms: N_3  and  S_1 
REMARK    3  A    between atoms: C_4  and  C_6 
REMARK       I    between atoms: N_5  and  C_4 
REMARK    4  A    between atoms: C_11  and  N_8 
ROOT
ATOM      1  C   UNL d   1      60.751  48.621  50.770  0.00  0.00     0.104 A 
ATOM      2  C   UNL d   1      61.210  47.752  49.741  0.00  0.00     0.057 A 
ATOM      3  C   UNL d   1      61.294  48.069  50.500  0.00  0.00     0.018 A 
ATOM      4  C   UNL d   1      60.126  48.863  50.297  0.00  0.00     0.012 A 
ATOM      5  C   UNL d   1      60.585  47.990  49.261  0.00  0.00     0.005 A 
ATOM      6  C   UNL d   1      60.042  48.546  49.538  0.00  0.00     0.001 A 
ATOM      7  C   UNL d   1      59.583  49.416  50.567  0.00  0.00     0.001 C 
ENDROOT
BRANCH   2   8
ATOM      8  C   UNL d   1      61.748  47.195  49.455  0.00  0.00     0.265 C 
ATOM      9  N   UNL d   1      61.765  46.441  49.791  0.00  0.00    -0.269 N 
ATOM     10  C   UNL d   1      62.296  45.886  49.511  0.00  0.00     0.102 A 
ATOM     11  C   UNL d   1      61.244  46.258  50.406  0.00  0.00     0.102 A 
ATOM     12  C   UNL d   1      62.313  45.132  49.847  0.00  0.00     0.100 A 
ATOM     13  N   UNL d   1      61.795  44.942  50.462  0.00  0.00    -0.301 N 
ATOM     14  C   UNL d   1      61.263  45.506  50.739  0.00  0.00     0.100 A 
ATOM     15  O   UNL d   1      62.258  47.390  48.845  0.00  0.00    -0.267 OA
BRANCH  13  16
ATOM     16  C   UNL d   1      61.812  44.188  50.799  0.00  0.00     0.064 A 
ATOM     17  C   UNL d   1      62.361  43.631  50.532  0.00  0.00     0.020 A 
ATOM     18  C   UNL d   1      62.377  42.878  50.869  0.00  0.00     0.031 A 
ATOM     19  C   UNL d   1      61.849  42.677  51.469  0.00  0.00     0.140 A 
ATOM     20  C   UNL d   1      61.295  43.242  51.735  0.00  0.00     0.031 A 
ATOM     21  F   UNL d   1      61.864  41.924  51.806  0.00  0.00    -0.204 F 
ATOM     22  C   UNL d   1      61.279  43.996  51.399  0.00  0.00     0.020 A 
ENDBRANCH  13  16
ENDBRANCH   2   8
BRANCH   1  23
ATOM     23  S   UNL d   1      60.835  48.939  51.529  0.00  0.00     0.271 S 
ATOM     24  O   UNL d   1      60.827  49.701  51.212  0.00  0.00    -0.200 OA
ATOM     25  O   UNL d   1      60.845  48.060  51.896  0.00  0.00    -0.200 OA
BRANCH  23  26
ATOM     26  N   UNL d   1      60.919  49.196  52.308  0.00  0.00    -0.229 N 
ATOM     27  C   UNL d   1      60.249  49.410  52.735  0.00  0.00     0.092 A 
ATOM     28  C   UNL d   1      60.330  49.669  53.518  0.00  0.00     0.020 A 
ATOM     29  C   UNL d   1      61.078  49.708  53.855  0.00  0.00     0.003 A 
ATOM     30  C   UNL d   1      61.739  49.495  53.428  0.00  0.00     0.020 A 
ATOM     31  C   UNL d   1      61.664  49.239  52.657  0.00  0.00     0.092 A 
ENDBRANCH  23  26
ENDBRANCH   1  23
TORSDOF 4
ENDMDL
