MODEL 1
REMARK VINA RESULT:      80.2      0.000      0.000
REMARK  4 active torsions:
REMARK  status: ('A' for Active; 'I' for Inactive)
REMARK    1  A    between atoms: C_6  and  N_1 
REMARK    2  A    between atoms: C_8  and  C_2 
REMARK    3  A    between atoms: C_16  and  C_5 
REMARK    4  A    between atoms: C_7  and  C_8 
ROOT
ATOM      1  N   UNL d   1     -49.962  25.327  33.481  0.00  0.00    -0.251 N 
ATOM      2  C   UNL d   1     -49.780  26.638  33.629  0.00  0.00     0.101 A 
ATOM      3  C   UNL d   1     -49.153  25.481  33.431  0.00  0.00     0.305 A 
ATOM      4  C   UNL d   1     -49.040  26.297  33.523  0.00  0.00     0.256 A 
ATOM      5  C   UNL d   1     -50.344  26.045  33.604  0.00  0.00     0.075 A 
ATOM      6  O   UNL d   1     -48.555  24.920  33.309  0.00  0.00    -0.263 OA
ATOM      7  O   UNL d   1     -48.311  26.680  33.508  0.00  0.00    -0.281 OA
ENDROOT
BRANCH   2   8
ATOM      8  C   UNL d   1     -49.920  27.447  33.742  0.00  0.00     0.223 C 
ATOM      9  O   UNL d   1     -50.587  27.798  33.407  0.00  0.00    -0.284 OA
BRANCH   8  10
ATOM     10  C   UNL d   1     -49.401  27.900  34.184  0.00  0.00     0.139 A 
ATOM     11  O   UNL d   1     -49.243  28.702  34.079  0.00  0.00    -0.304 OA
ATOM     12  C   UNL d   1     -48.688  28.936  34.642  0.00  0.00     0.100 A 
ATOM     13  C   UNL d   1     -48.335  29.658  34.793  0.00  0.00     0.025 A 
ATOM     14  C   UNL d   1     -48.506  28.277  35.093  0.00  0.00     0.025 A 
ATOM     15  C   UNL d   1     -47.791  29.724  35.404  0.00  0.00     0.002 A 
ATOM     16  C   UNL d   1     -47.602  29.062  35.865  0.00  0.00     0.000 A 
ATOM     17  C   UNL d   1     -47.962  28.342  35.704  0.00  0.00     0.002 A 
ATOM     18  C   UNL d   1     -48.941  27.637  34.816  0.00  0.00     0.030 A 
ENDBRANCH   8  10
ENDBRANCH   2   8
BRANCH   5  19
ATOM     19  C   UNL d   1     -51.166  26.154  33.688  0.00  0.00     0.017 A 
ATOM     20  C   UNL d   1     -51.606  25.627  34.159  0.00  0.00     0.002 A 
ATOM     21  C   UNL d   1     -52.424  25.729  34.248  0.00  0.00     0.000 A 
ATOM     22  C   UNL d   1     -52.811  26.364  33.865  0.00  0.00     0.000 A 
ATOM     23  C   UNL d   1     -52.362  26.891  33.394  0.00  0.00     0.000 A 
ATOM     24  C   UNL d   1     -51.540  26.784  33.307  0.00  0.00     0.002 A 
ENDBRANCH   5  19
BRANCH   1  25
ATOM     25  C   UNL d   1     -50.316  24.592  33.420  0.00  0.00     0.182 A 
ATOM     26  N   UNL d   1     -49.929  23.859  33.415  0.00  0.00    -0.220 NA
ATOM     27  C   UNL d   1     -50.498  23.271  33.344  0.00  0.00     0.108 A 
ATOM     28  C   UNL d   1     -51.238  23.632  33.306  0.00  0.00     0.059 A 
ATOM     29  S   UNL d   1     -51.125  24.448  33.353  0.00  0.00    -0.048 SA
ENDBRANCH   1  25
TORSDOF 4
ENDMDL
