MODEL 1
REMARK VINA RESULT:       5.8      0.000      0.000
REMARK  1 active torsions:
REMARK  status: ('A' for Active; 'I' for Inactive)
REMARK       I    between atoms: N_4  and  C_1 
REMARK    1  A    between atoms: C_9  and  N_4 
ROOT
ATOM      1  C   UNL d   1      14.542  11.858  -1.515  0.00  0.00     0.121 A 
ATOM      2  C   UNL d   1      14.372  11.839  -2.320  0.00  0.00     0.046 A 
ATOM      3  C   UNL d   1      13.928  11.838  -0.966  0.00  0.00     0.119 A 
ATOM      4  O   UNL d   1      15.251  11.896  -1.099  0.00  0.00    -0.299 OA
ATOM      5  O   UNL d   1      14.262  11.864  -0.208  0.00  0.00    -0.300 OA
ATOM      6  C   UNL d   1      13.582  11.799  -2.580  0.00  0.00     0.102 A 
ATOM      7  C   UNL d   1      15.073  11.900  -0.289  0.00  0.00     0.304 A 
ATOM      8  C   UNL d   1      13.145  11.799  -1.223  0.00  0.00     0.028 A 
ATOM      9  C   UNL d   1      12.968  11.779  -2.032  0.00  0.00     0.022 A 
ENDROOT
BRANCH   6  10
ATOM     10  N   UNL d   1      13.412  11.779  -3.398  0.00  0.00    -0.056 NA
ATOM     11  C   UNL d   1      13.231  12.481  -3.806  0.00  0.00     0.787 C 
ATOM     12  N   UNL d   1      13.065  12.458  -4.611  0.00  0.00     0.064 N 
ATOM     13  N   UNL d   1      13.219  13.200  -3.404  0.00  0.00     0.064 N 
ENDBRANCH   6  10
TORSDOF 1
ENDMDL
