MODEL 1
REMARK VINA RESULT:      89.6      0.000      0.000
REMARK  4 active torsions:
REMARK  status: ('A' for Active; 'I' for Inactive)
REMARK    1  A    between atoms: S_5  and  C_3 
REMARK    2  A    between atoms: C_13  and  S_5 
REMARK    3  A    between atoms: C_23  and  N_7 
REMARK    4  A    between atoms: C_29  and  C_23 
ROOT
ATOM      1  C   UNL d   1     -50.776  26.074  33.906  0.00  0.00     0.155 A 
ATOM      2  C   UNL d   1     -49.979  25.916  33.937  0.00  0.00     0.092 A 
ATOM      3  C   UNL d   1     -49.720  27.269  34.235  0.00  0.00     0.124 A 
ATOM      4  N   UNL d   1     -51.307  25.471  33.740  0.00  0.00    -0.210 NA
ATOM      5  N   UNL d   1     -50.235  24.559  33.637  0.00  0.00    -0.258 N 
ATOM      6  N   UNL d   1     -51.048  26.823  34.038  0.00  0.00    -0.273 N 
ATOM      7  C   UNL d   1     -51.040  24.723  33.607  0.00  0.00     0.152 A 
ATOM      8  C   UNL d   1     -50.525  27.428  34.204  0.00  0.00     0.181 A 
ATOM      9  C   UNL d   1     -49.705  25.157  33.802  0.00  0.00     0.269 A 
ATOM     10  C   UNL d   1     -49.449  26.511  34.101  0.00  0.00     0.022 A 
ATOM     11  C   UNL d   1     -51.571  24.120  33.441  0.00  0.00     0.035 A 
ATOM     12  C   UNL d   1     -49.971  23.794  33.500  0.00  0.00     0.084 A 
ATOM     13  N   UNL d   1     -50.808  28.193  34.339  0.00  0.00    -0.128 N 
ATOM     14  O   UNL d   1     -48.891  24.992  33.833  0.00  0.00    -0.266 OA
ATOM     15  C   UNL d   1     -50.501  23.199  33.336  0.00  0.00     0.019 A 
ATOM     16  C   UNL d   1     -51.306  23.363  33.306  0.00  0.00     0.005 A 
ATOM     17  C   UNL d   1     -52.385  24.286  33.410  0.00  0.00     0.003 C 
ENDROOT
BRANCH   3  18
ATOM     18  S   UNL d   1     -49.187  27.875  34.402  0.00  0.00     0.213 S 
ATOM     19  O   UNL d   1     -49.386  28.261  33.692  0.00  0.00    -0.217 OA
ATOM     20  O   UNL d   1     -48.982  27.502  35.108  0.00  0.00    -0.217 OA
BRANCH  18  21
ATOM     21  C   UNL d   1     -48.647  28.482  34.579  0.00  0.00     0.088 A 
ATOM     22  C   UNL d   1     -47.970  28.320  35.023  0.00  0.00     0.014 A 
ATOM     23  C   UNL d   1     -47.431  28.928  35.199  0.00  0.00     0.030 A 
ATOM     24  C   UNL d   1     -47.571  29.697  34.931  0.00  0.00     0.140 A 
ATOM     25  C   UNL d   1     -48.259  29.855  34.481  0.00  0.00     0.030 A 
ATOM     26  F   UNL d   1     -47.039  30.306  35.102  0.00  0.00    -0.204 F 
ATOM     27  C   UNL d   1     -48.795  29.249  34.307  0.00  0.00     0.014 A 
ENDBRANCH  18  21
ENDBRANCH   3  18
BRANCH   6  28
ATOM     28  C   UNL d   1     -51.866  26.985  34.007  0.00  0.00     0.083 C 
BRANCH  28  29
ATOM     29  C   UNL d   1     -52.290  26.827  33.307  0.00  0.00     0.019 C 
ATOM     30  C   UNL d   1     -53.121  26.787  33.318  0.00  0.00     0.002 C 
ENDBRANCH  28  29
ENDBRANCH   6  28
TORSDOF 4
ENDMDL
