MODEL 1
REMARK VINA RESULT:      76.4      0.000      0.000
REMARK  6 active torsions:
REMARK  status: ('A' for Active; 'I' for Inactive)
REMARK    1  A    between atoms: C_2  and  C_1 
REMARK    2  A    between atoms: C_6  and  C_1 
REMARK       I    between atoms: N_10  and  C_2 
REMARK    3  A    between atoms: C_14  and  C_3 
REMARK    4  A    between atoms: C_4  and  C_12 
REMARK    5  A    between atoms: C_7  and  C_6 
REMARK    6  A    between atoms: C_15  and  N_10 
ROOT
ATOM      1  C   UNL d   1      57.374  49.167  50.745  0.00  0.00     0.128 C 
ATOM      2  C   UNL d   1      57.063  48.797  50.083  0.00  0.00     0.106 C 
ATOM      3  N   UNL d   1      56.733  48.434  49.423  0.00  0.00    -0.191 NA
ENDROOT
BRANCH   1   4
ATOM      4  C   UNL d   1      58.190  49.037  50.925  0.00  0.00     0.289 C 
ATOM      5  N   UNL d   1      58.547  49.401  51.532  0.00  0.00    -0.207 NA
ATOM      6  O   UNL d   1      58.632  48.498  50.435  0.00  0.00    -0.264 OA
BRANCH   5   7
ATOM      7  C   UNL d   1      59.351  49.269  51.704  0.00  0.00     0.085 A 
ATOM      8  C   UNL d   1      59.782  48.690  51.285  0.00  0.00     0.023 A 
ATOM      9  C   UNL d   1      60.569  48.551  51.445  0.00  0.00     0.073 A 
ATOM     10  C   UNL d   1      60.966  48.990  52.037  0.00  0.00     0.004 A 
ATOM     11  C   UNL d   1      60.540  49.568  52.457  0.00  0.00     0.002 A 
ATOM     12  C   UNL d   1      59.749  49.694  52.283  0.00  0.00     0.019 A 
BRANCH   9  13
ATOM     13  C   UNL d   1      60.951  47.984  51.019  0.00  0.00     0.419 C 
ATOM     14  F   UNL d   1      61.398  47.448  50.583  0.00  0.00    -0.166 F 
ATOM     15  F   UNL d   1      60.551  47.209  50.792  0.00  0.00    -0.166 F 
ATOM     16  F   UNL d   1      61.675  48.142  50.817  0.00  0.00    -0.166 F 
ENDBRANCH   9  13
ENDBRANCH   5   7
ENDBRANCH   1   4
BRANCH   1  17
ATOM     17  C   UNL d   1      56.920  49.652  51.228  0.00  0.00     0.040 C 
BRANCH  17  18
ATOM     18  C   UNL d   1      56.709  49.396  51.999  0.00  0.00     0.101 A 
ATOM     19  O   UNL d   1      57.041  49.703  52.701  0.00  0.00    -0.307 OA
ATOM     20  C   UNL d   1      56.677  49.296  53.325  0.00  0.00     0.100 A 
ATOM     21  C   UNL d   1      56.127  48.747  52.992  0.00  0.00     0.027 A 
ATOM     22  C   UNL d   1      56.167  48.829  52.172  0.00  0.00     0.027 A 
BRANCH  20  23
ATOM     23  C   UNL d   1      56.774  49.355  54.159  0.00  0.00     0.024 A 
ATOM     24  C   UNL d   1      57.500  49.502  54.529  0.00  0.00     0.013 A 
ATOM     25  C   UNL d   1      57.567  49.555  55.370  0.00  0.00     0.058 A 
ATOM     26 CL   UNL d   1      58.329  49.708  55.706  0.00  0.00    -0.082 Cl
ATOM     27  C   UNL d   1      56.893  49.458  55.829  0.00  0.00     0.011 A 
ATOM     28  C   UNL d   1      56.174  49.313  55.491  0.00  0.00     0.001 A 
ATOM     29  C   UNL d   1      56.081  49.257  54.694  0.00  0.00     0.002 A 
ENDBRANCH  20  23
ENDBRANCH  17  18
ENDBRANCH   1  17
TORSDOF 6
ENDMDL
