MODEL 1
REMARK VINA RESULT:      35.1      0.000      0.000
REMARK  5 active torsions:
REMARK  status: ('A' for Active; 'I' for Inactive)
REMARK    1  A    between atoms: N_2  and  S_1 
REMARK    2  A    between atoms: C_3  and  S_1 
REMARK    3  A    between atoms: C_10  and  C_3 
REMARK    4  A    between atoms: C_9  and  N_4 
REMARK    5  A    between atoms: C_16  and  C_10 
ROOT
ATOM      1  N   UNL d   1     -54.982-102.073 -40.854  0.00  0.00    -0.226 N 
ATOM      2  N   UNL d   1     -54.979-102.125 -39.221  0.00  0.00    -0.301 N 
ATOM      3  C   UNL d   1     -54.726-101.421 -40.432  0.00  0.00     0.111 A 
ATOM      4  C   UNL d   1     -55.239-102.757 -40.470  0.00  0.00     0.111 A 
ATOM      5  C   UNL d   1     -54.722-101.441 -39.609  0.00  0.00     0.100 A 
ATOM      6  C   UNL d   1     -55.239-102.787 -39.646  0.00  0.00     0.100 A 
ENDROOT
BRANCH   1   7
ATOM      7  S   UNL d   1     -54.982-102.042 -41.696  0.00  0.00     0.272 S 
ATOM      8  O   UNL d   1     -54.716-101.259 -41.664  0.00  0.00    -0.200 OA
ATOM      9  O   UNL d   1     -55.252-102.836 -41.721  0.00  0.00    -0.200 OA
BRANCH   7  10
ATOM     10  C   UNL d   1     -54.986-102.022 -42.531  0.00  0.00     0.116 C 
BRANCH  10  11
ATOM     11  C   UNL d   1     -54.835-101.307 -42.918  0.00  0.00     0.014 C 
BRANCH  11  12
ATOM     12  C   UNL d   1     -54.857-101.283 -43.741  0.00  0.00     0.001 A 
ATOM     13  C   UNL d   1     -55.004-101.989 -44.190  0.00  0.00     0.000 A 
ATOM     14  C   UNL d   1     -55.024-101.955 -45.017  0.00  0.00     0.000 A 
ATOM     15  C   UNL d   1     -54.898-101.214 -45.403  0.00  0.00     0.000 A 
ATOM     16  C   UNL d   1     -54.757-100.537 -44.970  0.00  0.00     0.000 A 
ATOM     17  C   UNL d   1     -54.738-100.579 -44.135  0.00  0.00     0.000 A 
ENDBRANCH  11  12
ENDBRANCH  10  11
ENDBRANCH   7  10
ENDBRANCH   1   7
BRANCH   2  18
ATOM     18  C   UNL d   1     -54.975-102.145 -38.386  0.00  0.00     0.064 A 
ATOM     19  C   UNL d   1     -54.726-101.487 -37.960  0.00  0.00     0.020 A 
ATOM     20  C   UNL d   1     -54.724-101.514 -37.137  0.00  0.00     0.031 A 
ATOM     21  C   UNL d   1     -54.970-102.194 -36.749  0.00  0.00     0.140 A 
ATOM     22  C   UNL d   1     -55.223-102.863 -37.174  0.00  0.00     0.031 A 
ATOM     23  F   UNL d   1     -54.969-102.225 -35.899  0.00  0.00    -0.204 F 
ATOM     24  C   UNL d   1     -55.223-102.833 -37.999  0.00  0.00     0.020 A 
ENDBRANCH   2  18
TORSDOF 5
ENDMDL
