MODEL 1
REMARK VINA RESULT:      15.2      0.000      0.000
REMARK  2 active torsions:
REMARK  status: ('A' for Active; 'I' for Inactive)
REMARK    1  A    between atoms: N_10  and  C_1 
REMARK       I    between atoms: C_12  and  N_10 
REMARK    2  A    between atoms: C_17  and  C_12 
ROOT
ATOM      1  C   UNL d   1      13.442  11.801  -3.195  0.00  0.00     0.197 A 
ATOM      2  C   UNL d   1      13.977  11.818  -1.981  0.00  0.00     0.057 A 
ATOM      3  C   UNL d   1      14.451  11.834  -1.334  0.00  0.00     0.056 A 
ATOM      4  N   UNL d   1      12.826  11.781  -2.682  0.00  0.00    -0.221 NA
ATOM      5  S   UNL d   1      14.177  11.825  -2.796  0.00  0.00    -0.046 SA
ATOM      6  N   UNL d   1      14.726  11.842  -0.038  0.00  0.00    -0.238 NA
ATOM      7  S   UNL d   1      15.257  11.859  -1.238  0.00  0.00    -0.066 SA
ATOM      8  C   UNL d   1      13.158  11.792  -1.912  0.00  0.00     0.090 A 
ATOM      9  C   UNL d   1      14.124  11.823  -0.572  0.00  0.00     0.088 A 
ATOM     10  C   UNL d   1      15.431  11.865  -0.393  0.00  0.00     0.111 A 
ATOM     11  C   UNL d   1      12.816  11.781  -1.162  0.00  0.00     0.021 A 
ATOM     12  C   UNL d   1      13.308  11.797  -0.475  0.00  0.00     0.021 A 
ATOM     13  C   UNL d   1      16.184  11.889  -0.023  0.00  0.00     0.028 C 
ENDROOT
BRANCH   1  14
ATOM     14  N   UNL d   1      13.370  11.799  -4.048  0.00  0.00    -0.183 NA
ATOM     15  C   UNL d   1      13.101  12.477  -4.419  0.00  0.00     0.281 C 
ATOM     16  O   UNL d   1      12.912  13.138  -3.909  0.00  0.00    -0.265 OA
BRANCH  15  17
ATOM     17  C   UNL d   1      13.035  12.474  -5.204  0.00  0.00     0.063 C 
ATOM     18  C   UNL d   1      13.467  11.784  -5.706  0.00  0.00     0.005 C 
ENDBRANCH  15  17
ENDBRANCH   1  14
TORSDOF 2
ENDMDL
