MODEL 1
REMARK VINA RESULT:      33.8      0.000      0.000
REMARK  1 active torsions:
REMARK  status: ('A' for Active; 'I' for Inactive)
REMARK    1  A    between atoms: C_9  and  C_1 
ROOT
ATOM      1  C   UNL d   1      58.118  49.678  51.516  0.00  0.00     0.087 A 
ATOM      2  N   UNL d   1      58.050  49.685  52.359  0.00  0.00    -0.191 NA
ATOM      3  C   UNL d   1      57.447  49.680  51.049  0.00  0.00     0.036 A 
ATOM      4  C   UNL d   1      57.256  49.695  52.697  0.00  0.00     0.369 A 
ATOM      5  N   UNL d   1      56.593  49.697  52.163  0.00  0.00    -0.191 NA
ATOM      6  C   UNL d   1      56.692  49.690  51.369  0.00  0.00     0.088 A 
ATOM      7  C   UNL d   1      57.564  49.673  50.212  0.00  0.00     0.014 A 
ATOM      8  O   UNL d   1      57.095  49.703  53.552  0.00  0.00    -0.242 OA
ATOM      9  C   UNL d   1      56.039  49.692  50.860  0.00  0.00     0.020 A 
ATOM     10  C   UNL d   1      56.925  49.675  49.709  0.00  0.00     0.058 A 
ATOM     11  C   UNL d   1      56.130  49.685  50.047  0.00  0.00     0.013 A 
ATOM     12 CL   UNL d   1      57.061  49.667  48.865  0.00  0.00    -0.082 Cl
ENDROOT
BRANCH   1  13
ATOM     13  C   UNL d   1      58.843  49.669  51.208  0.00  0.00     0.018 A 
ATOM     14  C   UNL d   1      59.492  49.631  51.707  0.00  0.00     0.002 A 
ATOM     15  C   UNL d   1      60.264  49.620  51.425  0.00  0.00     0.000 A 
ATOM     16  C   UNL d   1      60.398  49.650  50.547  0.00  0.00     0.000 A 
ATOM     17  C   UNL d   1      59.731  49.687  50.062  0.00  0.00     0.000 A 
ATOM     18  C   UNL d   1      58.966  49.697  50.387  0.00  0.00     0.002 A 
ENDBRANCH   1  13
TORSDOF 1
ENDMDL
