MODEL 1
REMARK VINA RESULT:      22.1      0.000      0.000
REMARK  9 active torsions:
REMARK  status: ('A' for Active; 'I' for Inactive)
REMARK    1  A    between atoms: C_5  and  C_1 
REMARK    2  A    between atoms: N_4  and  C_2 
REMARK       I    between atoms: C_3  and  N_4 
REMARK    3  A    between atoms: C_10  and  C_3 
REMARK    4  A    between atoms: N_6  and  C_5 
REMARK    5  A    between atoms: C_12  and  C_5 
REMARK    6  A    between atoms: C_14  and  N_6 
REMARK    7  A    between atoms: C_8  and  C_14 
REMARK    8  A    between atoms: O_17  and  C_8 
REMARK    9  A    between atoms: C_23  and  O_17 
ROOT
ATOM      1  C   UNL d   1     -41.897-121.865 -51.693  0.00  0.00     0.036 A 
ATOM      2  C   UNL d   1     -41.667-121.907 -52.471  0.00  0.00     0.086 A 
ATOM      3  C   UNL d   1     -41.745-122.495 -51.192  0.00  0.00     0.010 A 
ATOM      4  C   UNL d   1     -41.282-122.575 -52.766  0.00  0.00     0.020 A 
ATOM      5  C   UNL d   1     -41.361-123.170 -51.471  0.00  0.00     0.035 A 
ATOM      6  C   UNL d   1     -41.127-123.199 -52.284  0.00  0.00     0.008 A 
ATOM      7 BR   UNL d   1     -41.205-123.814 -50.956  0.00  0.00    -0.049 Br
ENDROOT
BRANCH   1   8
ATOM      8  C   UNL d   1     -42.282-121.198 -51.398  0.00  0.00     0.083 C 
BRANCH   8   9
ATOM      9  N   UNL d   1     -42.096-120.450 -51.660  0.00  0.00    -0.238 NA
BRANCH   9  10
ATOM     10  C   UNL d   1     -41.560-120.002 -51.210  0.00  0.00     0.167 C 
BRANCH  10  11
ATOM     11  C   UNL d   1     -41.456-119.192 -51.414  0.00  0.00     0.320 C 
ATOM     12  O   UNL d   1     -41.127-118.668 -50.835  0.00  0.00    -0.257 OA
BRANCH  11  13
ATOM     13  O   UNL d   1     -41.666-118.905 -52.158  0.00  0.00    -0.270 OA
BRANCH  13  14
ATOM     14  C   UNL d   1     -41.420-118.182 -52.393  0.00  0.00     0.126 C 
ATOM     15  C   UNL d   1     -41.125-118.097 -53.136  0.00  0.00     0.029 C 
ENDBRANCH  13  14
ENDBRANCH  11  13
ENDBRANCH  10  11
ENDBRANCH   9  10
ENDBRANCH   8   9
BRANCH   8  16
ATOM     16  C   UNL d   1     -42.866-121.287 -50.828  0.00  0.00     0.018 A 
ATOM     17  C   UNL d   1     -43.663-121.192 -51.019  0.00  0.00     0.002 A 
ATOM     18  C   UNL d   1     -44.257-121.276 -50.467  0.00  0.00     0.000 A 
ATOM     19  C   UNL d   1     -44.032-121.469 -49.663  0.00  0.00     0.000 A 
ATOM     20  C   UNL d   1     -43.237-121.565 -49.464  0.00  0.00     0.000 A 
ATOM     21  C   UNL d   1     -42.655-121.475 -50.043  0.00  0.00     0.002 A 
ENDBRANCH   8  16
ENDBRANCH   1   8
BRANCH   2  22
ATOM     22  N   UNL d   1     -41.828-121.254 -52.983  0.00  0.00    -0.208 NA
ATOM     23  C   UNL d   1     -41.991-121.389 -53.784  0.00  0.00     0.279 C 
ATOM     24  O   UNL d   1     -42.144-120.766 -54.271  0.00  0.00    -0.265 OA
BRANCH  23  25
ATOM     25  C   UNL d   1     -42.001-122.147 -54.093  0.00  0.00     0.058 A 
ATOM     26  C   UNL d   1     -42.605-122.670 -53.908  0.00  0.00     0.005 A 
ATOM     27  C   UNL d   1     -42.599-123.430 -54.228  0.00  0.00     0.000 A 
ATOM     28  C   UNL d   1     -41.993-123.658 -54.726  0.00  0.00     0.000 A 
ATOM     29  C   UNL d   1     -41.398-123.140 -54.907  0.00  0.00     0.000 A 
ATOM     30  C   UNL d   1     -41.404-122.379 -54.586  0.00  0.00     0.005 A 
ENDBRANCH  23  25
ENDBRANCH   2  22
TORSDOF 9
ENDMDL
MODEL 2
REMARK VINA RESULT:      22.4      1.985      3.111
REMARK  9 active torsions:
REMARK  status: ('A' for Active; 'I' for Inactive)
REMARK    1  A    between atoms: C_5  and  C_1 
REMARK    2  A    between atoms: N_4  and  C_2 
REMARK       I    between atoms: C_3  and  N_4 
REMARK    3  A    between atoms: C_10  and  C_3 
REMARK    4  A    between atoms: N_6  and  C_5 
REMARK    5  A    between atoms: C_12  and  C_5 
REMARK    6  A    between atoms: C_14  and  N_6 
REMARK    7  A    between atoms: C_8  and  C_14 
REMARK    8  A    between atoms: O_17  and  C_8 
REMARK    9  A    between atoms: C_23  and  O_17 
ROOT
ATOM      1  C   UNL d   1     -41.839-121.329 -53.029  0.00  0.00     0.036 A 
ATOM      2  C   UNL d   1     -41.765-121.742 -53.725  0.00  0.00     0.086 A 
ATOM      3  C   UNL d   1     -41.814-120.510 -53.041  0.00  0.00     0.010 A 
ATOM      4  C   UNL d   1     -41.665-121.351 -54.444  0.00  0.00     0.020 A 
ATOM      5  C   UNL d   1     -41.715-120.103 -53.752  0.00  0.00     0.035 A 
ATOM      6  C   UNL d   1     -41.639-120.547 -54.469  0.00  0.00     0.008 A 
ATOM      7 BR   UNL d   1     -41.689-119.264 -53.762  0.00  0.00    -0.049 Br
ENDROOT
BRANCH   1   8
ATOM      8  C   UNL d   1     -41.939-121.720 -52.310  0.00  0.00     0.083 C 
BRANCH   8   9
ATOM      9  N   UNL d   1     -41.349-122.183 -51.993  0.00  0.00    -0.238 NA
BRANCH   9  10
ATOM     10  C   UNL d   1     -41.275-122.210 -51.166  0.00  0.00     0.167 C 
BRANCH  10  11
ATOM     11  C   UNL d   1     -41.281-122.965 -50.794  0.00  0.00     0.320 C 
ATOM     12  O   UNL d   1     -41.144-123.651 -51.271  0.00  0.00    -0.257 OA
BRANCH  11  13
ATOM     13  O   UNL d   1     -41.418-123.045 -49.984  0.00  0.00    -0.270 OA
BRANCH  13  14
ATOM     14  C   UNL d   1     -41.611-123.757 -49.679  0.00  0.00     0.126 C 
ATOM     15  C   UNL d   1     -41.924-123.788 -48.939  0.00  0.00     0.029 C 
ENDBRANCH  13  14
ENDBRANCH  11  13
ENDBRANCH  10  11
ENDBRANCH   9  10
ENDBRANCH   8   9
BRANCH   8  16
ATOM     16  C   UNL d   1     -42.646-121.641 -51.901  0.00  0.00     0.018 A 
ATOM     17  C   UNL d   1     -42.687-121.199 -51.206  0.00  0.00     0.002 A 
ATOM     18  C   UNL d   1     -43.381-121.110 -50.786  0.00  0.00     0.000 A 
ATOM     19  C   UNL d   1     -44.084-121.494 -51.089  0.00  0.00     0.000 A 
ATOM     20  C   UNL d   1     -44.051-121.938 -51.783  0.00  0.00     0.000 A 
ATOM     21  C   UNL d   1     -43.335-122.012 -52.189  0.00  0.00     0.002 A 
ENDBRANCH   8  16
ENDBRANCH   1   8
BRANCH   2  22
ATOM     22  N   UNL d   1     -41.791-122.587 -53.706  0.00  0.00    -0.208 NA
ATOM     23  C   UNL d   1     -41.849-123.012 -54.414  0.00  0.00     0.279 C 
ATOM     24  O   UNL d   1     -41.874-123.817 -54.395  0.00  0.00    -0.265 OA
BRANCH  23  25
ATOM     25  C   UNL d   1     -41.880-122.630 -55.137  0.00  0.00     0.058 A 
ATOM     26  C   UNL d   1     -41.225-122.607 -55.630  0.00  0.00     0.005 A 
ATOM     27  C   UNL d   1     -41.275-122.217 -56.356  0.00  0.00     0.000 A 
ATOM     28  C   UNL d   1     -41.974-121.858 -56.579  0.00  0.00     0.000 A 
ATOM     29  C   UNL d   1     -42.619-121.883 -56.090  0.00  0.00     0.000 A 
ATOM     30  C   UNL d   1     -42.569-122.273 -55.364  0.00  0.00     0.005 A 
ENDBRANCH  23  25
ENDBRANCH   2  22
TORSDOF 9
ENDMDL
MODEL 3
REMARK VINA RESULT:      22.6      1.939      4.053
REMARK  9 active torsions:
REMARK  status: ('A' for Active; 'I' for Inactive)
REMARK    1  A    between atoms: C_5  and  C_1 
REMARK    2  A    between atoms: N_4  and  C_2 
REMARK       I    between atoms: C_3  and  N_4 
REMARK    3  A    between atoms: C_10  and  C_3 
REMARK    4  A    between atoms: N_6  and  C_5 
REMARK    5  A    between atoms: C_12  and  C_5 
REMARK    6  A    between atoms: C_14  and  N_6 
REMARK    7  A    between atoms: C_8  and  C_14 
REMARK    8  A    between atoms: O_17  and  C_8 
REMARK    9  A    between atoms: C_23  and  O_17 
ROOT
ATOM      1  C   UNL d   1     -42.270-121.628 -52.028  0.00  0.00     0.036 A 
ATOM      2  C   UNL d   1     -42.438-121.934 -51.295  0.00  0.00     0.086 A 
ATOM      3  C   UNL d   1     -41.840-120.933 -52.087  0.00  0.00     0.010 A 
ATOM      4  C   UNL d   1     -42.182-121.557 -50.607  0.00  0.00     0.020 A 
ATOM      5  C   UNL d   1     -41.576-120.543 -51.409  0.00  0.00     0.035 A 
ATOM      6  C   UNL d   1     -41.758-120.875 -50.652  0.00  0.00     0.008 A 
ATOM      7 BR   UNL d   1     -41.135-119.832 -51.472  0.00  0.00    -0.049 Br
ENDROOT
BRANCH   1   8
ATOM      8  C   UNL d   1     -42.526-122.004 -52.716  0.00  0.00     0.083 C 
BRANCH   8   9
ATOM      9  N   UNL d   1     -43.224-121.795 -53.079  0.00  0.00    -0.238 NA
BRANCH   9  10
ATOM     10  C   UNL d   1     -43.182-121.329 -53.766  0.00  0.00     0.167 C 
BRANCH  10  11
ATOM     11  C   UNL d   1     -43.610-121.587 -54.444  0.00  0.00     0.320 C 
ATOM     12  O   UNL d   1     -44.297-122.068 -54.328  0.00  0.00    -0.257 OA
BRANCH  11  13
ATOM     13  O   UNL d   1     -43.373-121.381 -55.206  0.00  0.00    -0.270 OA
BRANCH  13  14
ATOM     14  C   UNL d   1     -42.667-121.027 -55.325  0.00  0.00     0.126 C 
ATOM     15  C   UNL d   1     -42.455-120.829 -56.075  0.00  0.00     0.029 C 
ENDBRANCH  13  14
ENDBRANCH  11  13
ENDBRANCH  10  11
ENDBRANCH   9  10
ENDBRANCH   8   9
BRANCH   8  16
ATOM     16  C   UNL d   1     -42.070-122.602 -53.044  0.00  0.00     0.018 A 
ATOM     17  C   UNL d   1     -42.079-122.744 -53.857  0.00  0.00     0.002 A 
ATOM     18  C   UNL d   1     -41.633-123.333 -54.202  0.00  0.00     0.000 A 
ATOM     19  C   UNL d   1     -41.142-123.815 -53.690  0.00  0.00     0.000 A 
ATOM     20  C   UNL d   1     -41.128-123.679 -52.877  0.00  0.00     0.000 A 
ATOM     21  C   UNL d   1     -41.590-123.075 -52.553  0.00  0.00     0.002 A 
ENDBRANCH   8  16
ENDBRANCH   1   8
BRANCH   2  22
ATOM     22  N   UNL d   1     -42.882-122.651 -51.240  0.00  0.00    -0.208 NA
ATOM     23  C   UNL d   1     -42.917-123.060 -50.521  0.00  0.00     0.279 C 
ATOM     24  O   UNL d   1     -43.341-123.743 -50.470  0.00  0.00    -0.265 OA
BRANCH  23  25
ATOM     25  C   UNL d   1     -42.528-122.783 -49.857  0.00  0.00     0.058 A 
ATOM     26  C   UNL d   1     -42.892-122.257 -49.343  0.00  0.00     0.005 A 
ATOM     27  C   UNL d   1     -42.484-121.988 -48.678  0.00  0.00     0.000 A 
ATOM     28  C   UNL d   1     -41.723-122.246 -48.534  0.00  0.00     0.000 A 
ATOM     29  C   UNL d   1     -41.366-122.766 -49.042  0.00  0.00     0.000 A 
ATOM     30  C   UNL d   1     -41.774-123.035 -49.708  0.00  0.00     0.005 A 
ENDBRANCH  23  25
ENDBRANCH   2  22
TORSDOF 9
ENDMDL
