MODEL 1
REMARK VINA RESULT:      -7.8      0.000      0.000
REMARK  5 active torsions:
REMARK  status: ('A' for Active; 'I' for Inactive)
REMARK    1  A    between atoms: C_10  and  N_4 
REMARK    2  A    between atoms: C_12  and  C_10 
REMARK    3  A    between atoms: N_13  and  C_12 
REMARK    4  A    between atoms: C_19  and  N_13 
REMARK    5  A    between atoms: C_20  and  N_13 
ROOT
ATOM      1  C   UNL d   1     -49.119  13.583  23.249  0.00  0.00     0.102 A 
ATOM      2  N   UNL d   1     -48.314  13.450  23.192  0.00  0.00    -0.163 NA
ATOM      3  C   UNL d   1     -49.641  12.964  23.404  0.00  0.00     0.024 A 
ATOM      4  N   UNL d   1     -48.097  12.352  23.355  0.00  0.00    -0.192 N 
ATOM      5  C   UNL d   1     -48.732  11.857  23.500  0.00  0.00     0.280 A 
ATOM      6  C   UNL d   1     -49.505  12.164  23.525  0.00  0.00     0.059 A 
ATOM      7  C   UNL d   1     -50.402  13.265  23.428  0.00  0.00     0.002 A 
ATOM      8  C   UNL d   1     -49.568  14.272  23.177  0.00  0.00     0.019 A 
ATOM      9  C   UNL d   1     -50.362  14.076  23.288  0.00  0.00     0.002 A 
ATOM     10  O   UNL d   1     -48.602  11.046  23.624  0.00  0.00    -0.265 OA
ATOM     11  C   UNL d   1     -50.149  11.660  23.673  0.00  0.00     0.005 A 
ATOM     12  C   UNL d   1     -51.041  12.773  23.573  0.00  0.00     0.000 A 
ATOM     13  C   UNL d   1     -49.357  15.055  23.025  0.00  0.00     0.002 A 
ATOM     14  C   UNL d   1     -50.940  14.665  23.245  0.00  0.00     0.000 A 
ATOM     15  C   UNL d   1     -50.910  11.962  23.696  0.00  0.00     0.000 A 
ATOM     16  C   UNL d   1     -49.935  15.643  22.982  0.00  0.00     0.000 A 
ATOM     17  C   UNL d   1     -50.729  15.448  23.093  0.00  0.00     0.000 A 
ENDROOT
BRANCH   4  18
ATOM     18  C   UNL d   1     -47.415  11.881  23.367  0.00  0.00     0.123 C 
BRANCH  18  19
ATOM     19  C   UNL d   1     -46.665  12.238  23.380  0.00  0.00     0.101 C 
BRANCH  19  20
ATOM     20  N   UNL d   1     -45.987  11.782  23.240  0.00  0.00    -0.301 N 
BRANCH  20  21
ATOM     21  C   UNL d   1     -45.828  11.122  23.698  0.00  0.00     0.080 C 
ATOM     22  C   UNL d   1     -45.146  10.677  23.570  0.00  0.00     0.021 C 
ENDBRANCH  20  21
BRANCH  20  23
ATOM     23  C   UNL d   1     -45.470  12.001  22.632  0.00  0.00     0.080 C 
ATOM     24  C   UNL d   1     -45.214  12.781  22.574  0.00  0.00     0.021 C 
ENDBRANCH  20  23
ENDBRANCH  19  20
ENDBRANCH  18  19
ENDBRANCH   4  18
TORSDOF 5
ENDMDL
MODEL 2
REMARK VINA RESULT:      -7.0      1.229      2.460
REMARK  5 active torsions:
REMARK  status: ('A' for Active; 'I' for Inactive)
REMARK    1  A    between atoms: C_10  and  N_4 
REMARK    2  A    between atoms: C_12  and  C_10 
REMARK    3  A    between atoms: N_13  and  C_12 
REMARK    4  A    between atoms: C_19  and  N_13 
REMARK    5  A    between atoms: C_20  and  N_13 
ROOT
ATOM      1  C   UNL d   1     -48.732  12.984  23.150  0.00  0.00     0.102 A 
ATOM      2  N   UNL d   1     -48.000  12.627  23.067  0.00  0.00    -0.163 NA
ATOM      3  C   UNL d   1     -48.822  13.796  23.042  0.00  0.00     0.024 A 
ATOM      4  N   UNL d   1     -47.225  13.408  22.801  0.00  0.00    -0.192 N 
ATOM      5  C   UNL d   1     -47.476  14.182  22.729  0.00  0.00     0.280 A 
ATOM      6  C   UNL d   1     -48.276  14.377  22.850  0.00  0.00     0.059 A 
ATOM      7  C   UNL d   1     -49.609  13.988  23.161  0.00  0.00     0.002 A 
ATOM      8  C   UNL d   1     -49.474  12.675  23.337  0.00  0.00     0.019 A 
ATOM      9  C   UNL d   1     -50.017  13.297  23.343  0.00  0.00     0.002 A 
ATOM     10  O   UNL d   1     -46.928  14.776  22.535  0.00  0.00    -0.265 OA
ATOM     11  C   UNL d   1     -48.529  15.165  22.777  0.00  0.00     0.005 A 
ATOM     12  C   UNL d   1     -49.865  14.764  23.090  0.00  0.00     0.000 A 
ATOM     13  C   UNL d   1     -49.728  11.908  23.502  0.00  0.00     0.002 A 
ATOM     14  C   UNL d   1     -50.811  13.145  23.516  0.00  0.00     0.000 A 
ATOM     15  C   UNL d   1     -49.316  15.357  22.895  0.00  0.00     0.000 A 
ATOM     16  C   UNL d   1     -50.521  11.758  23.674  0.00  0.00     0.000 A 
ATOM     17  C   UNL d   1     -51.064  12.378  23.681  0.00  0.00     0.000 A 
ENDROOT
BRANCH   4  18
ATOM     18  C   UNL d   1     -46.410  13.400  22.649  0.00  0.00     0.123 C 
BRANCH  18  19
ATOM     19  C   UNL d   1     -46.013  12.678  22.550  0.00  0.00     0.101 C 
BRANCH  19  20
ATOM     20  N   UNL d   1     -45.193  12.669  22.429  0.00  0.00    -0.301 N 
BRANCH  20  21
ATOM     21  C   UNL d   1     -44.852  13.147  21.858  0.00  0.00     0.080 C 
ATOM     22  C   UNL d   1     -44.145  12.927  21.494  0.00  0.00     0.021 C 
ENDBRANCH  20  21
BRANCH  20  23
ATOM     23  C   UNL d   1     -44.721  12.172  22.892  0.00  0.00     0.080 C 
ATOM     24  C   UNL d   1     -44.933  11.383  22.993  0.00  0.00     0.021 C 
ENDBRANCH  20  23
ENDBRANCH  19  20
ENDBRANCH  18  19
ENDBRANCH   4  18
TORSDOF 5
ENDMDL
MODEL 3
REMARK VINA RESULT:      -6.4      9.797     10.598
REMARK  5 active torsions:
REMARK  status: ('A' for Active; 'I' for Inactive)
REMARK    1  A    between atoms: C_10  and  N_4 
REMARK    2  A    between atoms: C_12  and  C_10 
REMARK    3  A    between atoms: N_13  and  C_12 
REMARK    4  A    between atoms: C_19  and  N_13 
REMARK    5  A    between atoms: C_20  and  N_13 
ROOT
ATOM      1  C   UNL d   1     -39.877  14.757  18.641  0.00  0.00     0.102 A 
ATOM      2  N   UNL d   1     -39.869  14.861  19.452  0.00  0.00    -0.163 NA
ATOM      3  C   UNL d   1     -39.364  14.224  18.277  0.00  0.00     0.024 A 
ATOM      4  N   UNL d   1     -39.085  14.188  19.914  0.00  0.00    -0.192 N 
ATOM      5  C   UNL d   1     -38.652  13.711  19.412  0.00  0.00     0.280 A 
ATOM      6  C   UNL d   1     -38.791  13.729  18.592  0.00  0.00     0.059 A 
ATOM      7  C   UNL d   1     -39.501  14.241  17.470  0.00  0.00     0.002 A 
ATOM      8  C   UNL d   1     -40.334  15.104  18.047  0.00  0.00     0.019 A 
ATOM      9  C   UNL d   1     -40.101  14.785  17.323  0.00  0.00     0.002 A 
ATOM     10  O   UNL d   1     -38.070  13.207  19.724  0.00  0.00    -0.265 OA
ATOM     11  C   UNL d   1     -38.349  13.242  18.083  0.00  0.00     0.005 A 
ATOM     12  C   UNL d   1     -39.068  13.764  16.963  0.00  0.00     0.000 A 
ATOM     13  C   UNL d   1     -40.932  15.671  18.072  0.00  0.00     0.002 A 
ATOM     14  C   UNL d   1     -40.470  15.036  16.627  0.00  0.00     0.000 A 
ATOM     15  C   UNL d   1     -38.486  13.260  17.276  0.00  0.00     0.000 A 
ATOM     16  C   UNL d   1     -41.300  15.921  17.377  0.00  0.00     0.000 A 
ATOM     17  C   UNL d   1     -41.068  15.603  16.652  0.00  0.00     0.000 A 
ENDROOT
BRANCH   4  18
ATOM     18  C   UNL d   1     -38.816  14.041  20.684  0.00  0.00     0.123 C 
BRANCH  18  19
ATOM     19  C   UNL d   1     -39.159  14.438  21.327  0.00  0.00     0.101 C 
BRANCH  19  20
ATOM     20  N   UNL d   1     -38.892  14.288  22.097  0.00  0.00    -0.301 N 
BRANCH  20  21
ATOM     21  C   UNL d   1     -39.100  13.595  22.482  0.00  0.00     0.080 C 
ATOM     22  C   UNL d   1     -38.675  13.336  23.139  0.00  0.00     0.021 C 
ENDBRANCH  20  21
BRANCH  20  23
ATOM     23  C   UNL d   1     -38.412  14.845  22.476  0.00  0.00     0.080 C 
ATOM     24  C   UNL d   1     -38.742  15.543  22.760  0.00  0.00     0.021 C 
ENDBRANCH  20  23
ENDBRANCH  19  20
ENDBRANCH  18  19
ENDBRANCH   4  18
TORSDOF 5
ENDMDL
MODEL 4
REMARK VINA RESULT:      -6.3      9.208     10.925
REMARK  5 active torsions:
REMARK  status: ('A' for Active; 'I' for Inactive)
REMARK    1  A    between atoms: C_10  and  N_4 
REMARK    2  A    between atoms: C_12  and  C_10 
REMARK    3  A    between atoms: N_13  and  C_12 
REMARK    4  A    between atoms: C_19  and  N_13 
REMARK    5  A    between atoms: C_20  and  N_13 
ROOT
ATOM      1  C   UNL d   1     -39.101  14.458  20.009  0.00  0.00     0.102 A 
ATOM      2  N   UNL d   1     -38.727  14.368  19.287  0.00  0.00    -0.163 NA
ATOM      3  C   UNL d   1     -39.755  14.954  20.089  0.00  0.00     0.024 A 
ATOM      4  N   UNL d   1     -39.247  15.004  18.509  0.00  0.00    -0.192 N 
ATOM      5  C   UNL d   1     -39.891  15.446  18.749  0.00  0.00     0.280 A 
ATOM      6  C   UNL d   1     -40.146  15.421  19.540  0.00  0.00     0.059 A 
ATOM      7  C   UNL d   1     -40.005  14.929  20.869  0.00  0.00     0.002 A 
ATOM      8  C   UNL d   1     -38.950  14.126  20.750  0.00  0.00     0.019 A 
ATOM      9  C   UNL d   1     -39.510  14.418  21.282  0.00  0.00     0.002 A 
ATOM     10  O   UNL d   1     -40.292  15.922  18.198  0.00  0.00    -0.265 OA
ATOM     11  C   UNL d   1     -40.801  15.872  19.782  0.00  0.00     0.005 A 
ATOM     12  C   UNL d   1     -40.651  15.372  21.114  0.00  0.00     0.000 A 
ATOM     13  C   UNL d   1     -38.375  13.595  21.011  0.00  0.00     0.002 A 
ATOM     14  C   UNL d   1     -39.489  14.176  22.072  0.00  0.00     0.000 A 
ATOM     15  C   UNL d   1     -41.051  15.847  20.562  0.00  0.00     0.000 A 
ATOM     16  C   UNL d   1     -38.356  13.354  21.799  0.00  0.00     0.000 A 
ATOM     17  C   UNL d   1     -38.914  13.645  22.332  0.00  0.00     0.000 A 
ENDROOT
BRANCH   4  18
ATOM     18  C   UNL d   1     -39.139  15.150  17.700  0.00  0.00     0.123 C 
BRANCH  18  19
ATOM     19  C   UNL d   1     -38.518  14.781  17.291  0.00  0.00     0.101 C 
BRANCH  19  20
ATOM     20  N   UNL d   1     -38.396  14.944  16.487  0.00  0.00    -0.301 N 
BRANCH  20  21
ATOM     21  C   UNL d   1     -38.052  15.649  16.253  0.00  0.00     0.080 C 
ATOM     22  C   UNL d   1     -37.969  15.830  15.453  0.00  0.00     0.021 C 
ENDBRANCH  20  21
BRANCH  20  23
ATOM     23  C   UNL d   1     -38.627  14.386  15.922  0.00  0.00     0.080 C 
ATOM     24  C   UNL d   1     -38.165  13.716  15.795  0.00  0.00     0.021 C 
ENDBRANCH  20  23
ENDBRANCH  19  20
ENDBRANCH  18  19
ENDBRANCH   4  18
TORSDOF 5
ENDMDL
MODEL 5
REMARK VINA RESULT:      -6.3      9.685     10.905
REMARK  5 active torsions:
REMARK  status: ('A' for Active; 'I' for Inactive)
REMARK    1  A    between atoms: C_10  and  N_4 
REMARK    2  A    between atoms: C_12  and  C_10 
REMARK    3  A    between atoms: N_13  and  C_12 
REMARK    4  A    between atoms: C_19  and  N_13 
REMARK    5  A    between atoms: C_20  and  N_13 
ROOT
ATOM      1  C   UNL d   1     -39.098  14.387  18.271  0.00  0.00     0.102 A 
ATOM      2  N   UNL d   1     -38.867  14.295  19.050  0.00  0.00    -0.163 NA
ATOM      3  C   UNL d   1     -39.758  14.842  18.075  0.00  0.00     0.024 A 
ATOM      4  N   UNL d   1     -39.573  14.865  19.726  0.00  0.00    -0.192 N 
ATOM      5  C   UNL d   1     -40.188  15.273  19.374  0.00  0.00     0.280 A 
ATOM      6  C   UNL d   1     -40.281  15.261  18.547  0.00  0.00     0.059 A 
ATOM      7  C   UNL d   1     -39.848  14.830  17.261  0.00  0.00     0.002 A 
ATOM      8  C   UNL d   1     -38.782  14.094  17.567  0.00  0.00     0.019 A 
ATOM      9  C   UNL d   1     -39.246  14.368  16.942  0.00  0.00     0.002 A 
ATOM     10  O   UNL d   1     -40.722  15.700  19.846  0.00  0.00    -0.265 OA
ATOM     11  C   UNL d   1     -40.907  15.676  18.191  0.00  0.00     0.005 A 
ATOM     12  C   UNL d   1     -40.464  15.237  16.905  0.00  0.00     0.000 A 
ATOM     13  C   UNL d   1     -38.131  13.612  17.412  0.00  0.00     0.002 A 
ATOM     14  C   UNL d   1     -39.055  14.157  16.166  0.00  0.00     0.000 A 
ATOM     15  C   UNL d   1     -40.997  15.665  17.378  0.00  0.00     0.000 A 
ATOM     16  C   UNL d   1     -37.940  13.402  16.637  0.00  0.00     0.000 A 
ATOM     17  C   UNL d   1     -38.403  13.676  16.012  0.00  0.00     0.000 A 
ENDROOT
BRANCH   4  18
ATOM     18  C   UNL d   1     -39.636  14.988  20.543  0.00  0.00     0.123 C 
BRANCH  18  19
ATOM     19  C   UNL d   1     -39.074  14.656  21.057  0.00  0.00     0.101 C 
BRANCH  19  20
ATOM     20  N   UNL d   1     -39.085  14.849  21.863  0.00  0.00    -0.301 N 
BRANCH  20  21
ATOM     21  C   UNL d   1     -38.828  15.583  22.119  0.00  0.00     0.080 C 
ATOM     22  C   UNL d   1     -39.003  15.847  22.880  0.00  0.00     0.021 C 
ENDBRANCH  20  21
BRANCH  20  23
ATOM     23  C   UNL d   1     -39.359  14.291  22.409  0.00  0.00     0.080 C 
ATOM     24  C   UNL d   1     -38.938  13.594  22.528  0.00  0.00     0.021 C 
ENDBRANCH  20  23
ENDBRANCH  19  20
ENDBRANCH  18  19
ENDBRANCH   4  18
TORSDOF 5
ENDMDL
MODEL 6
REMARK VINA RESULT:      -5.8      1.441      2.248
REMARK  5 active torsions:
REMARK  status: ('A' for Active; 'I' for Inactive)
REMARK    1  A    between atoms: C_10  and  N_4 
REMARK    2  A    between atoms: C_12  and  C_10 
REMARK    3  A    between atoms: N_13  and  C_12 
REMARK    4  A    between atoms: C_19  and  N_13 
REMARK    5  A    between atoms: C_20  and  N_13 
ROOT
ATOM      1  C   UNL d   1     -46.998  13.073  23.054  0.00  0.00     0.102 A 
ATOM      2  N   UNL d   1     -46.225  12.803  23.040  0.00  0.00    -0.163 NA
ATOM      3  C   UNL d   1     -47.620  12.569  23.250  0.00  0.00     0.024 A 
ATOM      4  N   UNL d   1     -46.201  11.707  23.320  0.00  0.00    -0.192 N 
ATOM      5  C   UNL d   1     -46.914  11.343  23.490  0.00  0.00     0.280 A 
ATOM      6  C   UNL d   1     -47.624  11.775  23.455  0.00  0.00     0.059 A 
ATOM      7  C   UNL d   1     -48.319  12.994  23.215  0.00  0.00     0.002 A 
ATOM      8  C   UNL d   1     -47.322  13.816  22.897  0.00  0.00     0.019 A 
ATOM      9  C   UNL d   1     -48.139  13.767  22.997  0.00  0.00     0.002 A 
ATOM     10  O   UNL d   1     -46.925  10.539  23.698  0.00  0.00    -0.265 OA
ATOM     11  C   UNL d   1     -48.347  11.403  23.628  0.00  0.00     0.005 A 
ATOM     12  C   UNL d   1     -49.035  12.633  23.385  0.00  0.00     0.000 A 
ATOM     13  C   UNL d   1     -46.978  14.533  22.676  0.00  0.00     0.002 A 
ATOM     14  C   UNL d   1     -48.608  14.437  22.875  0.00  0.00     0.000 A 
ATOM     15  C   UNL d   1     -49.046  11.828  23.593  0.00  0.00     0.000 A 
ATOM     16  C   UNL d   1     -47.447  15.201  22.554  0.00  0.00     0.000 A 
ATOM     17  C   UNL d   1     -48.265  15.153  22.654  0.00  0.00     0.000 A 
ENDROOT
BRANCH   4  18
ATOM     18  C   UNL d   1     -45.609  11.134  23.404  0.00  0.00     0.123 C 
BRANCH  18  19
ATOM     19  C   UNL d   1     -44.937  11.157  22.917  0.00  0.00     0.101 C 
BRANCH  19  20
ATOM     20  N   UNL d   1     -44.203  10.906  23.211  0.00  0.00    -0.301 N 
BRANCH  20  21
ATOM     21  C   UNL d   1     -43.521  11.326  23.040  0.00  0.00     0.080 C 
ATOM     22  C   UNL d   1     -43.463  11.767  22.345  0.00  0.00     0.021 C 
ENDBRANCH  20  21
BRANCH  20  23
ATOM     23  C   UNL d   1     -44.166  10.226  23.680  0.00  0.00     0.080 C 
ATOM     24  C   UNL d   1     -43.625   9.633  23.499  0.00  0.00     0.021 C 
ENDBRANCH  20  23
ENDBRANCH  19  20
ENDBRANCH  18  19
ENDBRANCH   4  18
TORSDOF 5
ENDMDL
MODEL 7
REMARK VINA RESULT:      -5.8      1.402      4.818
REMARK  5 active torsions:
REMARK  status: ('A' for Active; 'I' for Inactive)
REMARK    1  A    between atoms: C_10  and  N_4 
REMARK    2  A    between atoms: C_12  and  C_10 
REMARK    3  A    between atoms: N_13  and  C_12 
REMARK    4  A    between atoms: C_19  and  N_13 
REMARK    5  A    between atoms: C_20  and  N_13 
ROOT
ATOM      1  C   UNL d   1     -47.200  12.410  23.178  0.00  0.00     0.102 A 
ATOM      2  N   UNL d   1     -48.013  12.499  23.219  0.00  0.00    -0.163 NA
ATOM      3  C   UNL d   1     -46.716  13.036  22.946  0.00  0.00     0.024 A 
ATOM      4  N   UNL d   1     -48.294  13.554  22.920  0.00  0.00    -0.192 N 
ATOM      5  C   UNL d   1     -47.689  14.064  22.713  0.00  0.00     0.280 A 
ATOM      6  C   UNL d   1     -46.899  13.804  22.726  0.00  0.00     0.059 A 
ATOM      7  C   UNL d   1     -45.938  12.780  22.959  0.00  0.00     0.002 A 
ATOM      8  C   UNL d   1     -46.711  11.764  23.335  0.00  0.00     0.019 A 
ATOM      9  C   UNL d   1     -45.930  11.993  23.199  0.00  0.00     0.002 A 
ATOM     10  O   UNL d   1     -47.867  14.844  22.490  0.00  0.00    -0.265 OA
ATOM     11  C   UNL d   1     -46.286  14.324  22.516  0.00  0.00     0.005 A 
ATOM     12  C   UNL d   1     -45.329  13.288  22.752  0.00  0.00     0.000 A 
ATOM     13  C   UNL d   1     -46.875  10.995  23.584  0.00  0.00     0.002 A 
ATOM     14  C   UNL d   1     -45.318  11.449  23.314  0.00  0.00     0.000 A 
ATOM     15  C   UNL d   1     -45.508  14.069  22.528  0.00  0.00     0.000 A 
ATOM     16  C   UNL d   1     -46.263  10.453  23.698  0.00  0.00     0.000 A 
ATOM     17  C   UNL d   1     -45.482  10.681  23.563  0.00  0.00     0.000 A 
ENDROOT
BRANCH   4  18
ATOM     18  C   UNL d   1     -49.003  13.977  22.850  0.00  0.00     0.123 C 
BRANCH  18  19
ATOM     19  C   UNL d   1     -49.713  13.574  22.697  0.00  0.00     0.101 C 
BRANCH  19  20
ATOM     20  N   UNL d   1     -50.427  13.993  22.658  0.00  0.00    -0.301 N 
BRANCH  20  21
ATOM     21  C   UNL d   1     -50.858  14.145  23.338  0.00  0.00     0.080 C 
ATOM     22  C   UNL d   1     -51.063  14.918  23.541  0.00  0.00     0.021 C 
ENDBRANCH  20  21
BRANCH  20  23
ATOM     23  C   UNL d   1     -50.703  14.257  21.924  0.00  0.00     0.080 C 
ATOM     24  C   UNL d   1     -51.064  13.727  21.408  0.00  0.00     0.021 C 
ENDBRANCH  20  23
ENDBRANCH  19  20
ENDBRANCH  18  19
ENDBRANCH   4  18
TORSDOF 5
ENDMDL
MODEL 8
REMARK VINA RESULT:      -5.6      9.209     10.622
REMARK  5 active torsions:
REMARK  status: ('A' for Active; 'I' for Inactive)
REMARK    1  A    between atoms: C_10  and  N_4 
REMARK    2  A    between atoms: C_12  and  C_10 
REMARK    3  A    between atoms: N_13  and  C_12 
REMARK    4  A    between atoms: C_19  and  N_13 
REMARK    5  A    between atoms: C_20  and  N_13 
ROOT
ATOM      1  C   UNL d   1     -38.931  14.233  20.794  0.00  0.00     0.102 A 
ATOM      2  N   UNL d   1     -38.584  13.839  20.166  0.00  0.00    -0.163 NA
ATOM      3  C   UNL d   1     -39.586  14.720  20.680  0.00  0.00     0.024 A 
ATOM      4  N   UNL d   1     -39.141  14.083  19.212  0.00  0.00    -0.192 N 
ATOM      5  C   UNL d   1     -39.781  14.590  19.264  0.00  0.00     0.280 A 
ATOM      6  C   UNL d   1     -40.003  14.909  20.000  0.00  0.00     0.059 A 
ATOM      7  C   UNL d   1     -39.806  15.034  21.404  0.00  0.00     0.002 A 
ATOM      8  C   UNL d   1     -38.748  14.250  21.599  0.00  0.00     0.019 A 
ATOM      9  C   UNL d   1     -39.289  14.745  21.976  0.00  0.00     0.002 A 
ATOM     10  O   UNL d   1     -40.208  14.786  18.579  0.00  0.00    -0.265 OA
ATOM     11  C   UNL d   1     -40.654  15.424  20.051  0.00  0.00     0.005 A 
ATOM     12  C   UNL d   1     -40.446  15.542  21.461  0.00  0.00     0.000 A 
ATOM     13  C   UNL d   1     -38.157  13.878  22.039  0.00  0.00     0.002 A 
ATOM     14  C   UNL d   1     -39.235  14.865  22.792  0.00  0.00     0.000 A 
ATOM     15  C   UNL d   1     -40.873  15.738  20.775  0.00  0.00     0.000 A 
ATOM     16  C   UNL d   1     -38.104  13.998  22.854  0.00  0.00     0.000 A 
ATOM     17  C   UNL d   1     -38.645  14.494  23.232  0.00  0.00     0.000 A 
ENDROOT
BRANCH   4  18
ATOM     18  C   UNL d   1     -39.067  13.867  18.415  0.00  0.00     0.123 C 
BRANCH  18  19
ATOM     19  C   UNL d   1     -38.448  13.367  18.177  0.00  0.00     0.101 C 
BRANCH  19  20
ATOM     20  N   UNL d   1     -38.382  13.139  17.382  0.00  0.00    -0.301 N 
BRANCH  20  21
ATOM     21  C   UNL d   1     -38.300  13.703  16.794  0.00  0.00     0.080 C 
ATOM     22  C   UNL d   1     -38.069  13.483  16.032  0.00  0.00     0.021 C 
ENDBRANCH  20  21
BRANCH  20  23
ATOM     23  C   UNL d   1     -38.401  12.335  17.189  0.00  0.00     0.080 C 
ATOM     24  C   UNL d   1     -37.942  11.801  17.616  0.00  0.00     0.021 C 
ENDBRANCH  20  23
ENDBRANCH  19  20
ENDBRANCH  18  19
ENDBRANCH   4  18
TORSDOF 5
ENDMDL
