MODEL 1
REMARK VINA RESULT:      22.6      0.000      0.000
REMARK  3 active torsions:
REMARK  status: ('A' for Active; 'I' for Inactive)
REMARK    1  A    between atoms: C_9  and  C_2 
REMARK    2  A    between atoms: C_10  and  C_6 
REMARK    3  A    between atoms: O_18  and  C_9 
ROOT
ATOM      1  C   UNL d   1      46.139 -18.095  43.382  0.00  0.00     0.044 A 
ATOM      2  C   UNL d   1      46.010 -16.853  43.889  0.00  0.00     0.113 A 
ATOM      3  C   UNL d   1      45.994 -17.656  44.078  0.00  0.00     0.116 A 
ATOM      4  C   UNL d   1      46.245 -17.553  42.759  0.00  0.00     0.112 A 
ATOM      5  S   UNL d   1      46.165 -16.784  43.074  0.00  0.00    -0.061 SA
ATOM      6  C   UNL d   1      46.188 -18.899  43.234  0.00  0.00     0.011 A 
ATOM      7  N   UNL d   1      46.396 -17.825  42.009  0.00  0.00    -0.239 NA
ATOM      8  C   UNL d   1      46.340 -19.166  42.477  0.00  0.00     0.018 A 
ATOM      9  C   UNL d   1      46.445 -18.635  41.865  0.00  0.00     0.082 A 
ATOM     10  N   UNL d   1      45.858 -17.973  44.827  0.00  0.00    -0.147 N 
ATOM     11  C   UNL d   1      46.388 -19.980  42.340  0.00  0.00     0.002 A 
ATOM     12  C   UNL d   1      46.598 -18.908  41.104  0.00  0.00     0.019 A 
ATOM     13  C   UNL d   1      46.542 -20.244  41.575  0.00  0.00     0.000 A 
ATOM     14  C   UNL d   1      46.647 -19.708  40.957  0.00  0.00     0.002 A 
ENDROOT
BRANCH   6  15
ATOM     15  C   UNL d   1      46.082 -19.429  43.856  0.00  0.00     0.030 A 
ATOM     16  S   UNL d   1      45.406 -19.879  44.012  0.00  0.00    -0.086 SA
ATOM     17  C   UNL d   1      45.555 -20.327  44.690  0.00  0.00     0.035 A 
ATOM     18  C   UNL d   1      46.318 -20.156  44.955  0.00  0.00     0.007 A 
ATOM     19  C   UNL d   1      46.644 -19.600  44.438  0.00  0.00     0.007 A 
ENDBRANCH   6  15
BRANCH   2  20
ATOM     20  C   UNL d   1      45.893 -16.226  44.413  0.00  0.00     0.303 C 
ATOM     21  O   UNL d   1      46.516 -15.953  44.875  0.00  0.00    -0.259 OA
BRANCH  20  22
ATOM     22  O   UNL d   1      45.153 -15.878  44.469  0.00  0.00    -0.295 OA
ATOM     23  C   UNL d   1      45.080 -15.127  44.801  0.00  0.00     0.185 C 
ENDBRANCH  20  22
ENDBRANCH   2  20
TORSDOF 3
ENDMDL
