MODEL 1
REMARK VINA RESULT:      -0.6      0.000      0.000
REMARK  5 active torsions:
REMARK  status: ('A' for Active; 'I' for Inactive)
REMARK    1  A    between atoms: N_7  and  C_1 
REMARK    2  A    between atoms: C_14  and  N_4 
REMARK    3  A    between atoms: S_5  and  N_8 
REMARK    4  A    between atoms: C_13  and  S_5 
REMARK       I    between atoms: C_9  and  N_7 
REMARK    5  A    between atoms: C_15  and  C_9 
ROOT
ATOM      1  N   UNL d   1      33.015  19.549 -22.311  0.00  0.00    -0.202 NA
ATOM      2  C   UNL d   1      32.444  20.116 -22.096  0.00  0.00     0.279 C 
ATOM      3  O   UNL d   1      31.759  20.217 -22.556  0.00  0.00    -0.265 OA
ENDROOT
BRANCH   2   4
ATOM      4  C   UNL d   1      32.553  20.582 -21.425  0.00  0.00     0.061 A 
ATOM      5  C   UNL d   1      32.220  21.336 -21.369  0.00  0.00     0.025 A 
ATOM      6  C   UNL d   1      32.334  21.795 -20.695  0.00  0.00     0.092 A 
ATOM      7  N   UNL d   1      32.781  21.505 -20.069  0.00  0.00    -0.229 N 
ATOM      8  C   UNL d   1      33.122  20.745 -20.113  0.00  0.00     0.092 A 
ATOM      9  C   UNL d   1      33.009  20.288 -20.784  0.00  0.00     0.025 A 
BRANCH   7  10
ATOM     10  S   UNL d   1      32.895  21.974 -19.386  0.00  0.00     0.271 S 
ATOM     11  O   UNL d   1      32.583  22.630 -19.784  0.00  0.00    -0.200 OA
ATOM     12  O   UNL d   1      33.205  21.306 -18.999  0.00  0.00    -0.200 OA
BRANCH  10  13
ATOM     13  C   UNL d   1      33.009  22.430 -18.709  0.00  0.00     0.104 A 
ATOM     14  C   UNL d   1      33.123  23.245 -18.772  0.00  0.00     0.013 A 
ATOM     15  C   UNL d   1      33.238  23.702 -18.096  0.00  0.00     0.001 A 
ATOM     16  C   UNL d   1      33.239  23.341 -17.350  0.00  0.00     0.000 A 
ATOM     17  C   UNL d   1      33.125  22.523 -17.284  0.00  0.00     0.001 A 
ATOM     18  C   UNL d   1      33.009  22.066 -17.970  0.00  0.00     0.013 A 
ENDBRANCH  10  13
ENDBRANCH   7  10
ENDBRANCH   2   4
BRANCH   1  19
ATOM     19  C   UNL d   1      32.902  19.085 -22.982  0.00  0.00     0.160 A 
ATOM     20  C   UNL d   1      32.667  18.296 -22.990  0.00  0.00     0.298 A 
ATOM     21  N   UNL d   1      32.624  18.053 -23.774  0.00  0.00    -0.209 N 
ATOM     22  O   UNL d   1      32.506  17.837 -22.329  0.00  0.00    -0.263 OA
ATOM     23  N   UNL d   1      32.831  18.690 -24.248  0.00  0.00    -0.238 N 
ATOM     24  C   UNL d   1      33.003  19.329 -23.761  0.00  0.00     0.104 A 
ATOM     25  C   UNL d   1      32.861  18.687 -25.070  0.00  0.00     0.120 C 
ATOM     26  C   UNL d   1      33.236  20.080 -24.008  0.00  0.00     0.022 C 
BRANCH  21  27
ATOM     27  C   UNL d   1      32.409  17.301 -24.032  0.00  0.00     0.085 A 
ATOM     28  C   UNL d   1      31.616  17.138 -24.172  0.00  0.00     0.019 A 
ATOM     29  C   UNL d   1      31.394  16.387 -24.431  0.00  0.00     0.002 A 
ATOM     30  C   UNL d   1      31.972  15.803 -24.547  0.00  0.00     0.000 A 
ATOM     31  C   UNL d   1      32.769  15.975 -24.405  0.00  0.00     0.002 A 
ATOM     32  C   UNL d   1      32.986  16.724 -24.147  0.00  0.00     0.019 A 
ENDBRANCH  21  27
ENDBRANCH   1  19
TORSDOF 5
ENDMDL
