MODEL 1
REMARK VINA RESULT:      90.4      0.000      0.000
REMARK  6 active torsions:
REMARK  status: ('A' for Active; 'I' for Inactive)
REMARK    1  A    between atoms: C_7  and  C_1 
REMARK    2  A    between atoms: C_10  and  C_2 
REMARK    3  A    between atoms: C_8  and  C_7 
REMARK    4  A    between atoms: C_9  and  C_8 
REMARK    5  A    between atoms: C_13  and  C_9 
REMARK    6  A    between atoms: O_20  and  C_16 
ROOT
ATOM      1  C   UNL d   1     -48.924  29.882  34.250  0.00  0.00     0.097 A 
ATOM      2  C   UNL d   1     -48.305  30.306  34.591  0.00  0.00     0.009 A 
ATOM      3  C   UNL d   1     -49.454  30.265  33.740  0.00  0.00     0.282 A 
ATOM      4  C   UNL d   1     -48.207  31.110  34.430  0.00  0.00     0.018 A 
ATOM      5  N   UNL d   1     -49.349  31.063  33.586  0.00  0.00    -0.208 NA
ATOM      6  C   UNL d   1     -48.736  31.494  33.920  0.00  0.00     0.085 A 
ATOM      7  C   UNL d   1     -47.595  31.522  34.769  0.00  0.00     0.008 A 
ATOM      8  O   UNL d   1     -50.074  29.848  33.396  0.00  0.00    -0.265 OA
ATOM      9  C   UNL d   1     -48.639  32.278  33.764  0.00  0.00     0.020 A 
ATOM     10  C   UNL d   1     -47.495  32.330  34.608  0.00  0.00     0.035 A 
ATOM     11  C   UNL d   1     -48.025  32.713  34.099  0.00  0.00     0.008 A 
ATOM     12 BR   UNL d   1     -46.867  32.769  34.951  0.00  0.00    -0.049 Br
ENDROOT
BRANCH   1  13
ATOM     13  C   UNL d   1     -49.033  29.058  34.409  0.00  0.00     0.200 C 
ATOM     14  O   UNL d   1     -48.652  28.725  35.055  0.00  0.00    -0.286 OA
BRANCH  13  15
ATOM     15  C   UNL d   1     -49.506  28.602  33.932  0.00  0.00     0.042 C 
BRANCH  15  16
ATOM     16  C   UNL d   1     -49.511  27.777  34.015  0.00  0.00     0.005 C 
BRANCH  16  17
ATOM     17  C   UNL d   1     -50.157  27.341  33.779  0.00  0.00     0.022 A 
ATOM     18  C   UNL d   1     -50.046  26.562  33.556  0.00  0.00     0.094 A 
ATOM     19  C   UNL d   1     -50.700  26.107  33.313  0.00  0.00     0.024 A 
ATOM     20  C   UNL d   1     -51.445  26.462  33.306  0.00  0.00     0.002 A 
ATOM     21  C   UNL d   1     -51.543  27.236  33.530  0.00  0.00     0.000 A 
ATOM     22  C   UNL d   1     -50.910  27.677  33.766  0.00  0.00     0.002 A 
BRANCH  18  23
ATOM     23  O   UNL d   1     -49.297  26.205  33.562  0.00  0.00    -0.328 OA
ATOM     24  C   UNL d   1     -49.207  25.431  33.306  0.00  0.00     0.181 C 
ENDBRANCH  18  23
ENDBRANCH  16  17
ENDBRANCH  15  16
ENDBRANCH  13  15
ENDBRANCH   1  13
BRANCH   2  25
ATOM     25  C   UNL d   1     -47.766  29.916  35.109  0.00  0.00     0.000 A 
ATOM     26  C   UNL d   1     -47.897  29.931  35.927  0.00  0.00     0.000 A 
ATOM     27  C   UNL d   1     -47.365  29.546  36.438  0.00  0.00     0.000 A 
ATOM     28  C   UNL d   1     -46.717  29.156  36.119  0.00  0.00     0.000 A 
ATOM     29  C   UNL d   1     -46.591  29.143  35.300  0.00  0.00     0.000 A 
ATOM     30  C   UNL d   1     -47.111  29.520  34.800  0.00  0.00     0.000 A 
ENDBRANCH   2  25
TORSDOF 6
ENDMDL
