MODEL 1
REMARK VINA RESULT:      56.8      0.000      0.000
REMARK  6 active torsions:
REMARK  status: ('A' for Active; 'I' for Inactive)
REMARK    1  A    between atoms: C_4  and  S_1 
REMARK    2  A    between atoms: C_5  and  S_1 
REMARK    3  A    between atoms: C_2  and  N_7 
REMARK    4  A    between atoms: N_3  and  C_2 
REMARK    5  A    between atoms: C_17  and  N_6 
REMARK    6  A    between atoms: N_7  and  C_12 
ROOT
ATOM      1  C   UNL d   1     -49.756  26.914  34.104  0.00  0.00     0.206 C 
ATOM      2  S   UNL d   1     -49.683  26.188  34.483  0.00  0.00    -0.038 SA
ENDROOT
BRANCH   1   3
ATOM      3  N   UNL d   1     -50.267  26.991  33.456  0.00  0.00    -0.218 NA
BRANCH   3   4
ATOM      4  C   UNL d   1     -50.958  26.543  33.416  0.00  0.00     0.085 A 
ATOM      5  C   UNL d   1     -50.911  25.719  33.446  0.00  0.00     0.031 A 
ATOM      6  C   UNL d   1     -51.601  25.275  33.406  0.00  0.00     0.094 A 
ATOM      7  C   UNL d   1     -52.337  25.653  33.336  0.00  0.00     0.012 A 
ATOM      8  C   UNL d   1     -52.375  26.477  33.306  0.00  0.00     0.002 A 
ATOM      9  C   UNL d   1     -51.679  26.918  33.347  0.00  0.00     0.019 A 
BRANCH   6  10
ATOM     10  S   UNL d   1     -51.560  24.454  33.436  0.00  0.00     0.262 S 
ATOM     11  O   UNL d   1     -52.388  24.419  33.437  0.00  0.00    -0.213 OA
ATOM     12  O   UNL d   1     -50.740  24.495  33.435  0.00  0.00    -0.213 OA
BRANCH  10  13
ATOM     13  C   UNL d   1     -51.521  23.635  33.466  0.00  0.00     0.364 C 
ATOM     14  F   UNL d   1     -50.810  23.250  33.306  0.00  0.00    -0.159 F 
ATOM     15  F   UNL d   1     -52.195  23.192  33.656  0.00  0.00    -0.159 F 
ENDBRANCH  10  13
ENDBRANCH   6  10
ENDBRANCH   3   4
ENDBRANCH   1   3
BRANCH   1  16
ATOM     16  N   UNL d   1     -49.325  27.562  34.368  0.00  0.00    -0.278 N 
ATOM     17  C   UNL d   1     -49.299  28.251  33.919  0.00  0.00     0.101 A 
ATOM     18  C   UNL d   1     -48.868  28.898  34.183  0.00  0.00     0.100 A 
ATOM     19  N   UNL d   1     -48.462  28.856  34.895  0.00  0.00    -0.301 N 
ATOM     20  C   UNL d   1     -48.485  28.169  35.348  0.00  0.00     0.100 A 
ATOM     21  C   UNL d   1     -48.920  27.519  35.080  0.00  0.00     0.101 A 
BRANCH  19  22
ATOM     22  C   UNL d   1     -48.030  29.510  35.155  0.00  0.00     0.064 A 
ATOM     23  C   UNL d   1     -48.116  30.234  34.767  0.00  0.00     0.018 A 
ATOM     24  C   UNL d   1     -47.690  30.888  35.020  0.00  0.00     0.002 A 
ATOM     25  C   UNL d   1     -47.174  30.824  35.663  0.00  0.00     0.000 A 
ATOM     26  C   UNL d   1     -47.088  30.105  36.050  0.00  0.00     0.002 A 
ATOM     27  C   UNL d   1     -47.515  29.446  35.798  0.00  0.00     0.018 A 
ENDBRANCH  19  22
ENDBRANCH   1  16
TORSDOF 6
ENDMDL
