MODEL 1
REMARK VINA RESULT:      -7.7      0.000      0.000
REMARK  6 active torsions:
REMARK  status: ('A' for Active; 'I' for Inactive)
REMARK    1  A    between atoms: C_10  and  N_6 
REMARK    2  A    between atoms: S_14  and  C_9 
REMARK    3  A    between atoms: C_17  and  C_10 
REMARK    4  A    between atoms: N_13  and  C_25 
REMARK    5  A    between atoms: C_20  and  S_14 
REMARK    6  A    between atoms: C_25  and  C_20 
ROOT
ATOM      1  C   UNL d   1      52.354  31.098  53.317  0.00  0.00     0.174 A 
ATOM      2  C   UNL d   1      53.160  31.300  53.297  0.00  0.00     0.158 A 
ATOM      3  N   UNL d   1      51.917  31.793  53.236  0.00  0.00    -0.203 NA
ATOM      4  N   UNL d   1      52.130  30.306  53.407  0.00  0.00    -0.240 N 
ATOM      5  N   UNL d   1      53.508  29.922  53.456  0.00  0.00    -0.223 N 
ATOM      6  N   UNL d   1      53.215  32.118  53.204  0.00  0.00    -0.279 N 
ATOM      7  C   UNL d   1      52.702  29.721  53.476  0.00  0.00     0.343 A 
ATOM      8  C   UNL d   1      53.735  30.707  53.368  0.00  0.00     0.287 A 
ATOM      9  C   UNL d   1      52.446  32.414  53.167  0.00  0.00     0.181 A 
ATOM     10  O   UNL d   1      52.476  28.924  53.566  0.00  0.00    -0.245 OA
ATOM     11  O   UNL d   1      54.536  30.907  53.348  0.00  0.00    -0.265 OA
ATOM     12  C   UNL d   1      51.329  30.106  53.427  0.00  0.00     0.105 C 
ATOM     13  C   UNL d   1      54.082  29.334  53.526  0.00  0.00     0.107 C 
ENDROOT
BRANCH   9  14
ATOM     14  S   UNL d   1      52.239  33.218  53.074  0.00  0.00    -0.048 SA
BRANCH  14  15
ATOM     15  C   UNL d   1      51.487  33.422  52.818  0.00  0.00     0.057 C 
BRANCH  15  16
ATOM     16  C   UNL d   1      51.294  34.217  52.716  0.00  0.00     0.087 C 
BRANCH  16  17
ATOM     17  N   UNL d   1      50.531  34.420  52.492  0.00  0.00    -0.302 N 
ATOM     18  C   UNL d   1      50.279  34.279  51.724  0.00  0.00     0.080 A 
ATOM     19  C   UNL d   1      49.516  34.482  51.501  0.00  0.00     0.019 A 
ATOM     20  C   UNL d   1      49.007  34.825  52.043  0.00  0.00     0.003 A 
ATOM     21  C   UNL d   1      49.259  34.966  52.811  0.00  0.00     0.019 A 
ATOM     22  C   UNL d   1      50.023  34.765  53.040  0.00  0.00     0.080 A 
ENDBRANCH  16  17
ENDBRANCH  15  16
ENDBRANCH  14  15
ENDBRANCH   9  14
BRANCH   6  23
ATOM     23  C   UNL d   1      53.915  32.552  53.157  0.00  0.00     0.082 C 
BRANCH  23  24
ATOM     24  C   UNL d   1      54.234  32.913  53.834  0.00  0.00     0.018 A 
ATOM     25  C   UNL d   1      54.957  33.309  53.769  0.00  0.00     0.002 A 
ATOM     26  C   UNL d   1      55.283  33.671  54.434  0.00  0.00     0.011 A 
ATOM     27  C   UNL d   1      54.884  33.635  55.159  0.00  0.00     0.058 A 
ATOM     28  C   UNL d   1      54.154  33.232  55.215  0.00  0.00     0.011 A 
ATOM     29 CL   UNL d   1      55.206  33.995  55.827  0.00  0.00    -0.082 Cl
ATOM     30  C   UNL d   1      53.839  32.875  54.544  0.00  0.00     0.002 A 
ENDBRANCH  23  24
ENDBRANCH   6  23
TORSDOF 6
ENDMDL
MODEL 2
REMARK VINA RESULT:      -7.6      1.761      3.181
REMARK  6 active torsions:
REMARK  status: ('A' for Active; 'I' for Inactive)
REMARK    1  A    between atoms: C_10  and  N_6 
REMARK    2  A    between atoms: S_14  and  C_9 
REMARK    3  A    between atoms: C_17  and  C_10 
REMARK    4  A    between atoms: N_13  and  C_25 
REMARK    5  A    between atoms: C_20  and  S_14 
REMARK    6  A    between atoms: C_25  and  C_20 
ROOT
ATOM      1  C   UNL d   1      53.335  33.928  54.415  0.00  0.00     0.174 A 
ATOM      2  C   UNL d   1      53.747  33.357  53.973  0.00  0.00     0.158 A 
ATOM      3  N   UNL d   1      52.547  33.914  54.174  0.00  0.00    -0.203 NA
ATOM      4  N   UNL d   1      53.739  34.382  54.977  0.00  0.00    -0.240 N 
ATOM      5  N   UNL d   1      54.955  33.699  54.657  0.00  0.00    -0.223 N 
ATOM      6  N   UNL d   1      53.209  32.995  53.463  0.00  0.00    -0.279 N 
ATOM      7  C   UNL d   1      54.544  34.270  55.098  0.00  0.00     0.343 A 
ATOM      8  C   UNL d   1      54.558  33.246  54.098  0.00  0.00     0.287 A 
ATOM      9  C   UNL d   1      52.473  33.343  53.593  0.00  0.00     0.181 A 
ATOM     10  O   UNL d   1      54.949  34.728  55.664  0.00  0.00    -0.245 OA
ATOM     11  O   UNL d   1      54.967  32.678  53.659  0.00  0.00    -0.265 OA
ATOM     12  C   UNL d   1      53.331  34.950  55.416  0.00  0.00     0.105 C 
ATOM     13  C   UNL d   1      55.763  33.586  54.779  0.00  0.00     0.107 C 
ENDROOT
BRANCH   9  14
ATOM     14  S   UNL d   1      51.765  33.146  53.196  0.00  0.00    -0.048 SA
BRANCH  14  15
ATOM     15  C   UNL d   1      51.219  33.730  53.013  0.00  0.00     0.057 C 
BRANCH  15  16
ATOM     16  C   UNL d   1      50.440  33.520  52.842  0.00  0.00     0.087 C 
BRANCH  16  17
ATOM     17  N   UNL d   1      49.925  34.088  52.550  0.00  0.00    -0.302 N 
ATOM     18  C   UNL d   1      49.732  34.094  51.752  0.00  0.00     0.080 A 
ATOM     19  C   UNL d   1      49.217  34.662  51.460  0.00  0.00     0.019 A 
ATOM     20  C   UNL d   1      48.897  35.223  51.964  0.00  0.00     0.003 A 
ATOM     21  C   UNL d   1      49.090  35.218  52.761  0.00  0.00     0.019 A 
ATOM     22  C   UNL d   1      49.605  34.650  53.059  0.00  0.00     0.080 A 
ENDBRANCH  16  17
ENDBRANCH  15  16
ENDBRANCH  14  15
ENDBRANCH   9  14
BRANCH   6  23
ATOM     23  C   UNL d   1      53.384  32.395  52.924  0.00  0.00     0.082 C 
BRANCH  23  24
ATOM     24  C   UNL d   1      53.209  31.603  53.103  0.00  0.00     0.018 A 
ATOM     25  C   UNL d   1      52.841  31.137  52.528  0.00  0.00     0.002 A 
ATOM     26  C   UNL d   1      52.664  30.350  52.694  0.00  0.00     0.011 A 
ATOM     27  C   UNL d   1      52.855  30.033  53.436  0.00  0.00     0.058 A 
ATOM     28  C   UNL d   1      53.227  30.511  54.011  0.00  0.00     0.011 A 
ATOM     29 CL   UNL d   1      52.679  29.245  53.607  0.00  0.00    -0.082 Cl
ATOM     30  C   UNL d   1      53.399  31.295  53.832  0.00  0.00     0.002 A 
ENDBRANCH  23  24
ENDBRANCH   6  23
TORSDOF 6
ENDMDL
MODEL 3
REMARK VINA RESULT:      -6.2      2.331      4.900
REMARK  6 active torsions:
REMARK  status: ('A' for Active; 'I' for Inactive)
REMARK    1  A    between atoms: C_10  and  N_6 
REMARK    2  A    between atoms: S_14  and  C_9 
REMARK    3  A    between atoms: C_17  and  C_10 
REMARK    4  A    between atoms: N_13  and  C_25 
REMARK    5  A    between atoms: C_20  and  S_14 
REMARK    6  A    between atoms: C_25  and  C_20 
ROOT
ATOM      1  C   UNL d   1      53.203  33.849  54.394  0.00  0.00     0.174 A 
ATOM      2  C   UNL d   1      52.924  34.358  53.800  0.00  0.00     0.158 A 
ATOM      3  N   UNL d   1      53.105  33.074  54.131  0.00  0.00    -0.203 NA
ATOM      4  N   UNL d   1      53.509  34.166  55.096  0.00  0.00    -0.240 N 
ATOM      5  N   UNL d   1      53.257  35.488  54.610  0.00  0.00    -0.223 N 
ATOM      6  N   UNL d   1      52.655  33.893  53.173  0.00  0.00    -0.279 N 
ATOM      7  C   UNL d   1      53.536  34.979  55.205  0.00  0.00     0.343 A 
ATOM      8  C   UNL d   1      52.953  35.178  53.912  0.00  0.00     0.287 A 
ATOM      9  C   UNL d   1      52.770  33.104  53.384  0.00  0.00     0.181 A 
ATOM     10  O   UNL d   1      53.844  35.296  55.911  0.00  0.00    -0.245 OA
ATOM     11  O   UNL d   1      52.675  35.684  53.321  0.00  0.00    -0.265 OA
ATOM     12  C   UNL d   1      53.786  33.660  55.687  0.00  0.00     0.105 C 
ATOM     13  C   UNL d   1      53.285  36.305  54.720  0.00  0.00     0.107 C 
ENDROOT
BRANCH   9  14
ATOM     14  S   UNL d   1      52.577  32.442  52.914  0.00  0.00    -0.048 SA
BRANCH  14  15
ATOM     15  C   UNL d   1      52.982  31.735  53.012  0.00  0.00     0.057 C 
BRANCH  15  16
ATOM     16  C   UNL d   1      52.623  31.027  52.788  0.00  0.00     0.087 C 
BRANCH  16  17
ATOM     17  N   UNL d   1      52.815  30.336  53.187  0.00  0.00    -0.302 N 
ATOM     18  C   UNL d   1      53.596  30.185  53.392  0.00  0.00     0.080 A 
ATOM     19  C   UNL d   1      53.787  29.494  53.791  0.00  0.00     0.019 A 
ATOM     20  C   UNL d   1      53.201  28.955  53.983  0.00  0.00     0.003 A 
ATOM     21  C   UNL d   1      52.421  29.106  53.778  0.00  0.00     0.019 A 
ATOM     22  C   UNL d   1      52.223  29.797  53.378  0.00  0.00     0.080 A 
ENDBRANCH  16  17
ENDBRANCH  15  16
ENDBRANCH  14  15
ENDBRANCH   9  14
BRANCH   6  23
ATOM     23  C   UNL d   1      52.333  34.174  52.468  0.00  0.00     0.082 C 
BRANCH  23  24
ATOM     24  C   UNL d   1      51.510  34.198  52.360  0.00  0.00     0.018 A 
ATOM     25  C   UNL d   1      51.209  34.209  51.590  0.00  0.00     0.002 A 
ATOM     26  C   UNL d   1      50.394  34.233  51.471  0.00  0.00     0.011 A 
ATOM     27  C   UNL d   1      49.884  34.246  52.124  0.00  0.00     0.058 A 
ATOM     28  C   UNL d   1      50.196  34.235  52.899  0.00  0.00     0.011 A 
ATOM     29 CL   UNL d   1      49.067  34.271  52.010  0.00  0.00    -0.082 Cl
ATOM     30  C   UNL d   1      51.012  34.211  53.004  0.00  0.00     0.002 A 
ENDBRANCH  23  24
ENDBRANCH   6  23
TORSDOF 6
ENDMDL
MODEL 4
REMARK VINA RESULT:      -5.7      1.682      4.239
REMARK  6 active torsions:
REMARK  status: ('A' for Active; 'I' for Inactive)
REMARK    1  A    between atoms: C_10  and  N_6 
REMARK    2  A    between atoms: S_14  and  C_9 
REMARK    3  A    between atoms: C_17  and  C_10 
REMARK    4  A    between atoms: N_13  and  C_25 
REMARK    5  A    between atoms: C_20  and  S_14 
REMARK    6  A    between atoms: C_25  and  C_20 
ROOT
ATOM      1  C   UNL d   1      51.547  32.895  53.070  0.00  0.00     0.174 A 
ATOM      2  C   UNL d   1      52.166  33.449  53.043  0.00  0.00     0.158 A 
ATOM      3  N   UNL d   1      51.882  32.145  53.151  0.00  0.00    -0.203 NA
ATOM      4  N   UNL d   1      50.762  33.153  53.018  0.00  0.00    -0.240 N 
ATOM      5  N   UNL d   1      51.213  34.507  52.911  0.00  0.00    -0.223 N 
ATOM      6  N   UNL d   1      52.878  33.037  53.107  0.00  0.00    -0.279 N 
ATOM      7  C   UNL d   1      50.594  33.953  52.939  0.00  0.00     0.343 A 
ATOM      8  C   UNL d   1      51.993  34.255  52.963  0.00  0.00     0.287 A 
ATOM      9  C   UNL d   1      52.695  32.236  53.173  0.00  0.00     0.181 A 
ATOM     10  O   UNL d   1      49.804  34.210  52.886  0.00  0.00    -0.245 OA
ATOM     11  O   UNL d   1      52.608  34.806  52.935  0.00  0.00    -0.265 OA
ATOM     12  C   UNL d   1      50.147  32.602  53.045  0.00  0.00     0.105 C 
ATOM     13  C   UNL d   1      51.044  35.309  52.832  0.00  0.00     0.107 C 
ENDROOT
BRANCH   9  14
ATOM     14  S   UNL d   1      53.248  31.615  53.250  0.00  0.00    -0.048 SA
BRANCH  14  15
ATOM     15  C   UNL d   1      52.997  30.864  53.462  0.00  0.00     0.057 C 
BRANCH  15  16
ATOM     16  C   UNL d   1      53.544  30.247  53.496  0.00  0.00     0.087 C 
BRANCH  16  17
ATOM     17  N   UNL d   1      53.465  29.672  54.076  0.00  0.00    -0.302 N 
ATOM     18  C   UNL d   1      53.399  29.892  54.864  0.00  0.00     0.080 A 
ATOM     19  C   UNL d   1      53.320  29.317  55.444  0.00  0.00     0.019 A 
ATOM     20  C   UNL d   1      53.308  28.524  55.237  0.00  0.00     0.003 A 
ATOM     21  C   UNL d   1      53.375  28.304  54.450  0.00  0.00     0.019 A 
ATOM     22  C   UNL d   1      53.454  28.877  53.864  0.00  0.00     0.080 A 
ENDBRANCH  16  17
ENDBRANCH  15  16
ENDBRANCH  14  15
ENDBRANCH   9  14
BRANCH   6  23
ATOM     23  C   UNL d   1      53.631  33.373  53.104  0.00  0.00     0.082 C 
BRANCH  23  24
ATOM     24  C   UNL d   1      54.062  33.450  53.809  0.00  0.00     0.018 A 
ATOM     25  C   UNL d   1      54.876  33.303  53.796  0.00  0.00     0.002 A 
ATOM     26  C   UNL d   1      55.314  33.376  54.490  0.00  0.00     0.011 A 
ATOM     27  C   UNL d   1      54.935  33.595  55.194  0.00  0.00     0.058 A 
ATOM     28  C   UNL d   1      54.113  33.742  55.198  0.00  0.00     0.011 A 
ATOM     29 CL   UNL d   1      55.369  33.669  55.892  0.00  0.00    -0.082 Cl
ATOM     30  C   UNL d   1      53.687  33.666  54.498  0.00  0.00     0.002 A 
ENDBRANCH  23  24
ENDBRANCH   6  23
TORSDOF 6
ENDMDL
