MODEL 1
REMARK VINA RESULT:      -3.7      0.000      0.000
REMARK  5 active torsions:
REMARK  status: ('A' for Active; 'I' for Inactive)
REMARK       I    between atoms: C_2  and  N_6 
REMARK    1  A    between atoms: C_7  and  C_2 
REMARK    2  A    between atoms: N_3  and  C_4 
REMARK    3  A    between atoms: C_12  and  N_5 
REMARK    4  A    between atoms: N_6  and  C_18 
REMARK    5  A    between atoms: O_33  and  C_30 
ROOT
ATOM      1  C   UNL d   1     -43.876  12.457  22.093  0.00  0.00     0.086 A 
ATOM      2  C   UNL d   1     -44.449  13.005  21.879  0.00  0.00     0.074 A 
ATOM      3  C   UNL d   1     -44.070  11.819  22.572  0.00  0.00     0.102 C 
ATOM      4  N   UNL d   1     -44.268  11.182  23.052  0.00  0.00    -0.191 NA
ATOM      5  C   UNL d   1     -44.255  13.644  21.399  0.00  0.00     0.020 A 
ATOM      6  C   UNL d   1     -43.095  12.546  21.823  0.00  0.00     0.031 A 
ATOM      7  C   UNL d   1     -42.893  13.182  21.343  0.00  0.00     0.085 A 
ATOM      8  C   UNL d   1     -43.477  13.740  21.125  0.00  0.00     0.021 A 
ENDROOT
BRANCH   2   9
ATOM      9  N   UNL d   1     -45.228  12.923  22.143  0.00  0.00    -0.301 N 
ATOM     10  C   UNL d   1     -45.775  12.543  21.662  0.00  0.00     0.100 A 
ATOM     11  C   UNL d   1     -46.559  12.457  21.922  0.00  0.00     0.100 A 
ATOM     12  N   UNL d   1     -46.780  12.755  22.660  0.00  0.00    -0.301 N 
ATOM     13  C   UNL d   1     -46.224  13.136  23.138  0.00  0.00     0.100 A 
ATOM     14  C   UNL d   1     -45.449  13.221  22.882  0.00  0.00     0.100 A 
BRANCH  12  15
ATOM     15  C   UNL d   1     -47.565  12.669  22.919  0.00  0.00     0.064 A 
ATOM     16  C   UNL d   1     -48.110  13.268  22.782  0.00  0.00     0.020 A 
ATOM     17  C   UNL d   1     -48.891  13.184  23.039  0.00  0.00     0.026 A 
ATOM     18  C   UNL d   1     -49.131  12.493  23.438  0.00  0.00     0.094 A 
ATOM     19  C   UNL d   1     -48.581  11.883  23.578  0.00  0.00     0.026 A 
ATOM     20  C   UNL d   1     -47.799  11.972  23.319  0.00  0.00     0.020 A 
BRANCH  18  21
ATOM     21  O   UNL d   1     -49.910  12.401  23.698  0.00  0.00    -0.328 OA
ATOM     22  C   UNL d   1     -50.489  12.176  23.159  0.00  0.00     0.181 C 
ENDBRANCH  18  21
ENDBRANCH  12  15
ENDBRANCH   2   9
BRANCH   7  23
ATOM     23  N   UNL d   1     -42.120  13.273  21.074  0.00  0.00    -0.208 NA
ATOM     24  C   UNL d   1     -41.773  14.018  21.070  0.00  0.00     0.279 C 
ATOM     25  O   UNL d   1     -42.193  14.673  21.333  0.00  0.00    -0.265 OA
BRANCH  24  26
ATOM     26  C   UNL d   1     -40.996  14.108  20.799  0.00  0.00     0.060 A 
ATOM     27  C   UNL d   1     -40.855  14.295  20.021  0.00  0.00     0.031 A 
ATOM     28  C   UNL d   1     -40.079  14.384  19.754  0.00  0.00     0.119 A 
ATOM     29  O   UNL d   1     -39.770  14.566  19.021  0.00  0.00    -0.300 OA
ATOM     30  C   UNL d   1     -39.459  14.283  20.276  0.00  0.00     0.119 A 
ATOM     31  C   UNL d   1     -38.950  14.579  19.086  0.00  0.00     0.304 A 
ATOM     32  O   UNL d   1     -38.758  14.404  19.862  0.00  0.00    -0.300 OA
ATOM     33  C   UNL d   1     -39.598  14.094  21.064  0.00  0.00     0.026 A 
ATOM     34  C   UNL d   1     -40.368  14.006  21.327  0.00  0.00     0.007 A 
ENDBRANCH  24  26
ENDBRANCH   7  23
TORSDOF 5
ENDMDL
