MODEL 1
REMARK VINA RESULT:       4.1      0.000      0.000
REMARK  7 active torsions:
REMARK  status: ('A' for Active; 'I' for Inactive)
REMARK    1  A    between atoms: C_7  and  C_1 
REMARK    2  A    between atoms: C_8  and  C_2 
REMARK    3  A    between atoms: C_10  and  C_3 
REMARK    4  A    between atoms: O_14  and  C_7 
REMARK    5  A    between atoms: O_15  and  C_8 
REMARK    6  A    between atoms: C_19  and  O_14 
REMARK    7  A    between atoms: C_20  and  O_15 
ROOT
ATOM      1  C   UNL d   1      58.074   0.045  31.423  0.00  0.00     0.100 A 
ATOM      2  C   UNL d   1      58.160   0.324  32.820  0.00  0.00     0.103 A 
ATOM      3  C   UNL d   1      57.712   0.100  32.159  0.00  0.00     0.016 A 
ATOM      4  C   UNL d   1      58.886   0.212  31.339  0.00  0.00     0.171 A 
ATOM      5  C   UNL d   1      58.972   0.491  32.737  0.00  0.00     0.204 A 
ATOM      6  C   UNL d   1      59.333   0.434  31.993  0.00  0.00     0.081 A 
ATOM      7  O   UNL d   1      59.399   0.682  33.246  0.00  0.00    -0.286 OA
ATOM      8  O   UNL d   1      58.659   0.050  30.747  0.00  0.00    -0.289 OA
ATOM      9  C   UNL d   1      59.437   0.283  31.056  0.00  0.00     0.042 C 
ENDROOT
BRANCH   3  10
ATOM     10  C   UNL d   1      56.915  -0.063  32.241  0.00  0.00     0.001 A 
ATOM     11  C   UNL d   1      56.651  -0.843  32.290  0.00  0.00     0.000 A 
ATOM     12  C   UNL d   1      55.847  -1.008  32.373  0.00  0.00     0.000 A 
ATOM     13  C   UNL d   1      55.301  -0.395  32.406  0.00  0.00     0.000 A 
ATOM     14  C   UNL d   1      55.557   0.390  32.357  0.00  0.00     0.000 A 
ATOM     15  C   UNL d   1      56.361   0.556  32.274  0.00  0.00     0.000 A 
ENDBRANCH   3  10
BRANCH   2  16
ATOM     16  C   UNL d   1      57.798   0.380  33.560  0.00  0.00     0.303 C 
ATOM     17  O   UNL d   1      57.013   0.139  33.670  0.00  0.00    -0.259 OA
BRANCH  16  18
ATOM     18  O   UNL d   1      58.199   0.676  34.213  0.00  0.00    -0.271 OA
BRANCH  18  19
ATOM     19  C   UNL d   1      57.835   0.680  34.960  0.00  0.00     0.126 C 
ATOM     20  C   UNL d   1      58.298   0.677  35.648  0.00  0.00     0.029 C 
ENDBRANCH  18  19
ENDBRANCH  16  18
ENDBRANCH   2  16
BRANCH   1  21
ATOM     21  C   UNL d   1      57.627  -0.178  30.764  0.00  0.00     0.303 C 
ATOM     22  O   UNL d   1      57.563  -0.961  30.569  0.00  0.00    -0.259 OA
BRANCH  21  23
ATOM     23  O   UNL d   1      57.236   0.380  30.290  0.00  0.00    -0.271 OA
BRANCH  23  24
ATOM     24  C   UNL d   1      57.486   0.511  29.517  0.00  0.00     0.126 C 
ATOM     25  C   UNL d   1      57.123   0.104  28.893  0.00  0.00     0.029 C 
ENDBRANCH  23  24
ENDBRANCH  21  23
ENDBRANCH   1  21
TORSDOF 7
ENDMDL
MODEL 2
REMARK VINA RESULT:       4.4      8.423      9.584
REMARK  7 active torsions:
REMARK  status: ('A' for Active; 'I' for Inactive)
REMARK    1  A    between atoms: C_7  and  C_1 
REMARK    2  A    between atoms: C_8  and  C_2 
REMARK    3  A    between atoms: C_10  and  C_3 
REMARK    4  A    between atoms: O_14  and  C_7 
REMARK    5  A    between atoms: O_15  and  C_8 
REMARK    6  A    between atoms: C_19  and  O_14 
REMARK    7  A    between atoms: C_20  and  O_15 
ROOT
ATOM      1  C   UNL d   1      59.127  -7.611  35.082  0.00  0.00     0.100 A 
ATOM      2  C   UNL d   1      58.646  -8.461  34.040  0.00  0.00     0.103 A 
ATOM      3  C   UNL d   1      59.209  -8.289  34.624  0.00  0.00     0.016 A 
ATOM      4  C   UNL d   1      58.482  -7.098  34.961  0.00  0.00     0.171 A 
ATOM      5  C   UNL d   1      58.001  -7.948  33.920  0.00  0.00     0.204 A 
ATOM      6  C   UNL d   1      57.921  -7.265  34.384  0.00  0.00     0.081 A 
ATOM      7  O   UNL d   1      57.499  -8.033  33.452  0.00  0.00    -0.286 OA
ATOM      8  O   UNL d   1      58.843  -6.846  35.446  0.00  0.00    -0.289 OA
ATOM      9  C   UNL d   1      58.111  -6.604  35.046  0.00  0.00     0.042 C 
ENDROOT
BRANCH   3  10
ATOM     10  C   UNL d   1      59.843  -8.793  34.742  0.00  0.00     0.001 A 
ATOM     11  C   UNL d   1      59.868  -9.287  35.401  0.00  0.00     0.000 A 
ATOM     12  C   UNL d   1      60.507  -9.795  35.520  0.00  0.00     0.000 A 
ATOM     13  C   UNL d   1      61.126  -9.812  34.981  0.00  0.00     0.000 A 
ATOM     14  C   UNL d   1      61.110  -9.319  34.316  0.00  0.00     0.000 A 
ATOM     15  C   UNL d   1      60.470  -8.812  34.197  0.00  0.00     0.000 A 
ENDBRANCH   3  10
BRANCH   2  16
ATOM     16  C   UNL d   1      58.727  -9.141  33.580  0.00  0.00     0.303 C 
ATOM     17  O   UNL d   1      58.259  -9.810  33.721  0.00  0.00    -0.259 OA
BRANCH  16  18
ATOM     18  O   UNL d   1      59.272  -9.182  32.966  0.00  0.00    -0.271 OA
BRANCH  18  19
ATOM     19  C   UNL d   1      59.119  -9.658  32.302  0.00  0.00     0.126 C 
ATOM     20  C   UNL d   1      58.960  -9.308  31.567  0.00  0.00     0.029 C 
ENDBRANCH  18  19
ENDBRANCH  16  18
ENDBRANCH   2  16
BRANCH   1  21
ATOM     21  C   UNL d   1      59.689  -7.441  35.663  0.00  0.00     0.303 C 
ATOM     22  O   UNL d   1      59.734  -7.903  36.326  0.00  0.00    -0.259 OA
BRANCH  21  23
ATOM     23  O   UNL d   1      60.217  -6.805  35.591  0.00  0.00    -0.271 OA
BRANCH  23  24
ATOM     24  C   UNL d   1      60.400  -6.343  36.246  0.00  0.00     0.126 C 
ATOM     25  C   UNL d   1      61.084  -5.875  36.242  0.00  0.00     0.029 C 
ENDBRANCH  23  24
ENDBRANCH  21  23
ENDBRANCH   1  21
TORSDOF 7
ENDMDL
MODEL 3
REMARK VINA RESULT:       5.2      1.561      4.169
REMARK  7 active torsions:
REMARK  status: ('A' for Active; 'I' for Inactive)
REMARK    1  A    between atoms: C_7  and  C_1 
REMARK    2  A    between atoms: C_8  and  C_2 
REMARK    3  A    between atoms: C_10  and  C_3 
REMARK    4  A    between atoms: O_14  and  C_7 
REMARK    5  A    between atoms: O_15  and  C_8 
REMARK    6  A    between atoms: C_19  and  O_14 
REMARK    7  A    between atoms: C_20  and  O_15 
ROOT
ATOM      1  C   UNL d   1      58.241   0.158  30.866  0.00  0.00     0.100 A 
ATOM      2  C   UNL d   1      59.048  -0.036  29.704  0.00  0.00     0.103 A 
ATOM      3  C   UNL d   1      58.982   0.054  30.526  0.00  0.00     0.016 A 
ATOM      4  C   UNL d   1      57.558   0.173  30.390  0.00  0.00     0.171 A 
ATOM      5  C   UNL d   1      58.365  -0.020  29.227  0.00  0.00     0.204 A 
ATOM      6  C   UNL d   1      57.619   0.085  29.574  0.00  0.00     0.081 A 
ATOM      7  O   UNL d   1      58.350  -0.088  28.540  0.00  0.00    -0.286 OA
ATOM      8  O   UNL d   1      57.364   0.254  31.010  0.00  0.00    -0.289 OA
ATOM      9  C   UNL d   1      56.952   0.216  30.246  0.00  0.00     0.042 C 
ENDROOT
BRANCH   3  10
ATOM     10  C   UNL d   1      59.653   0.038  30.994  0.00  0.00     0.001 A 
ATOM     11  C   UNL d   1      60.167   0.682  31.010  0.00  0.00     0.000 A 
ATOM     12  C   UNL d   1      60.844   0.666  31.483  0.00  0.00     0.000 A 
ATOM     13  C   UNL d   1      61.010   0.007  31.942  0.00  0.00     0.000 A 
ATOM     14  C   UNL d   1      60.499  -0.645  31.932  0.00  0.00     0.000 A 
ATOM     15  C   UNL d   1      59.823  -0.629  31.460  0.00  0.00     0.000 A 
ENDBRANCH   3  10
BRANCH   2  16
ATOM     16  C   UNL d   1      59.791  -0.140  29.361  0.00  0.00     0.303 C 
ATOM     17  O   UNL d   1      60.360   0.462  29.386  0.00  0.00    -0.259 OA
BRANCH  16  18
ATOM     18  O   UNL d   1      59.995  -0.841  28.984  0.00  0.00    -0.271 OA
BRANCH  18  19
ATOM     19  C   UNL d   1      60.791  -1.079  28.947  0.00  0.00     0.126 C 
ATOM     20  C   UNL d   1      60.982  -1.865  28.769  0.00  0.00     0.029 C 
ENDBRANCH  18  19
ENDBRANCH  16  18
ENDBRANCH   2  16
BRANCH   1  21
ATOM     21  C   UNL d   1      58.177   0.247  31.686  0.00  0.00     0.303 C 
ATOM     22  O   UNL d   1      58.730   0.681  32.086  0.00  0.00    -0.259 OA
BRANCH  21  23
ATOM     23  O   UNL d   1      57.557  -0.098  32.117  0.00  0.00    -0.271 OA
BRANCH  23  24
ATOM     24  C   UNL d   1      57.259   0.280  32.784  0.00  0.00     0.126 C 
ATOM     25  C   UNL d   1      56.857  -0.159  33.361  0.00  0.00     0.029 C 
ENDBRANCH  23  24
ENDBRANCH  21  23
ENDBRANCH   1  21
TORSDOF 7
ENDMDL
