MODEL 1
REMARK VINA RESULT:      -5.9      0.000      0.000
REMARK  5 active torsions:
REMARK  status: ('A' for Active; 'I' for Inactive)
REMARK    1  A    between atoms: C_6  and  C_1 
REMARK    2  A    between atoms: C_3  and  C_5 
REMARK    3  A    between atoms: C_5  and  C_6 
REMARK    4  A    between atoms: C_17  and  C_13 
REMARK    5  A    between atoms: C_20  and  C_17 
ROOT
ATOM      1  C   UNL d   1     -41.935-122.457 -50.607  0.00  0.00     0.201 C 
ATOM      2  O   UNL d   1     -42.276-121.765 -50.906  0.00  0.00    -0.286 OA
ENDROOT
BRANCH   1   3
ATOM      3  C   UNL d   1     -42.238-122.782 -49.911  0.00  0.00     0.078 A 
ATOM      4  C   UNL d   1     -43.057-122.753 -49.763  0.00  0.00     0.202 A 
ATOM      5  C   UNL d   1     -43.359-123.077 -49.068  0.00  0.00     0.084 A 
ATOM      6  O   UNL d   1     -43.560-122.400 -50.313  0.00  0.00    -0.286 OA
ATOM      7  C   UNL d   1     -42.857-123.426 -48.525  0.00  0.00     0.199 A 
ATOM      8  C   UNL d   1     -42.038-123.455 -48.674  0.00  0.00     0.039 A 
ATOM      9  O   UNL d   1     -43.174-123.749 -47.827  0.00  0.00    -0.286 OA
ATOM     10  C   UNL d   1     -41.748-123.137 -49.354  0.00  0.00     0.010 A 
BRANCH   8  11
ATOM     11  C   UNL d   1     -41.548-123.812 -48.112  0.00  0.00     0.003 C 
BRANCH  11  12
ATOM     12  C   UNL d   1     -41.276-123.402 -47.450  0.00  0.00     0.000 C 
ATOM     13  C   UNL d   1     -41.123-123.785 -46.740  0.00  0.00     0.000 C 
ENDBRANCH  11  12
ENDBRANCH   8  11
ENDBRANCH   1   3
BRANCH   1  14
ATOM     14  C   UNL d   1     -41.301-122.811 -51.007  0.00  0.00     0.068 C 
BRANCH  14  15
ATOM     15  C   UNL d   1     -41.297-122.870 -51.822  0.00  0.00     0.114 A 
ATOM     16  N   UNL d   1     -41.407-123.563 -52.258  0.00  0.00    -0.238 NA
ATOM     17  C   UNL d   1     -41.359-123.363 -53.057  0.00  0.00     0.088 A 
ATOM     18  C   UNL d   1     -41.425-123.817 -53.735  0.00  0.00     0.020 A 
ATOM     19  C   UNL d   1     -41.221-122.556 -53.118  0.00  0.00     0.049 A 
ATOM     20  C   UNL d   1     -41.354-123.474 -54.485  0.00  0.00     0.002 A 
ATOM     21  C   UNL d   1     -41.213-122.654 -54.536  0.00  0.00     0.001 A 
ATOM     22  C   UNL d   1     -41.148-122.200 -53.858  0.00  0.00     0.008 A 
ATOM     23  S   UNL d   1     -41.179-122.233 -52.350  0.00  0.00    -0.066 SA
ENDBRANCH  14  15
ENDBRANCH   1  14
TORSDOF 5
ENDMDL
