MODEL 1
REMARK VINA RESULT:      10.8      0.000      0.000
REMARK  2 active torsions:
REMARK  status: ('A' for Active; 'I' for Inactive)
REMARK    1  A    between atoms: C_2  and  C_1 
REMARK    2  A    between atoms: N_6  and  C_2 
ROOT
ATOM      1  C   UNL d   1      45.099 -13.826  44.597  0.00  0.00     0.047 A 
ATOM      2  C   UNL d   1      44.297 -13.880  44.793  0.00  0.00     0.101 A 
ATOM      3  C   UNL d   1      45.419 -14.586  44.640  0.00  0.00     0.021 A 
ATOM      4  N   UNL d   1      44.124 -14.671  44.955  0.00  0.00    -0.244 NA
ATOM      5  C   UNL d   1      44.821 -15.106  44.860  0.00  0.00     0.082 A 
ATOM      6  C   UNL d   1      46.176 -14.868  44.507  0.00  0.00     0.002 A 
ATOM      7  C   UNL d   1      44.978 -15.906  44.946  0.00  0.00     0.019 A 
ATOM      8  C   UNL d   1      46.336 -15.671  44.593  0.00  0.00     0.000 A 
ATOM      9  C   UNL d   1      45.733 -16.192  44.814  0.00  0.00     0.002 A 
ENDROOT
BRANCH   1  10
ATOM     10  C   UNL d   1      45.511 -13.140  44.395  0.00  0.00     0.122 C 
ATOM     11  S   UNL d   1      46.050 -12.809  44.923  0.00  0.00    -0.059 SA
BRANCH  10  12
ATOM     12  N   UNL d   1      45.379 -12.789  43.658  0.00  0.00    -0.292 N 
ATOM     13  C   UNL d   1      45.975 -12.798  43.083  0.00  0.00     0.108 A 
ATOM     14  C   UNL d   1      45.843 -12.446  42.347  0.00  0.00     0.142 A 
ATOM     15  O   UNL d   1      45.116 -12.087  42.187  0.00  0.00    -0.300 OA
ATOM     16  C   UNL d   1      44.522 -12.080  42.764  0.00  0.00     0.142 A 
ATOM     17  C   UNL d   1      44.655 -12.431  43.499  0.00  0.00     0.108 A 
ENDBRANCH  10  12
ENDBRANCH   1  10
TORSDOF 2
ENDMDL
