MODEL 1
REMARK VINA RESULT:      -5.6      0.000      0.000
REMARK  4 active torsions:
REMARK  status: ('A' for Active; 'I' for Inactive)
REMARK    1  A    between atoms: S_3  and  N_1 
REMARK    2  A    between atoms: C_9  and  S_3 
REMARK    3  A    between atoms: C_10  and  N_5 
REMARK    4  A    between atoms: C_15  and  C_10 
ROOT
ATOM      1  N   UNL d   1     -38.323  14.151  19.291  0.00  0.00    -0.195 N 
ATOM      2  C   UNL d   1     -38.882  14.350  18.732  0.00  0.00     0.193 A 
ATOM      3  C   UNL d   1     -38.887  13.969  18.001  0.00  0.00     0.185 A 
ATOM      4  N   UNL d   1     -38.268  13.437  18.028  0.00  0.00    -0.269 N 
ATOM      5  C   UNL d   1     -37.941  13.538  18.767  0.00  0.00     0.179 A 
ATOM      6  N   UNL d   1     -39.438  14.931  18.902  0.00  0.00    -0.223 NA
ATOM      7  N   UNL d   1     -39.453  14.172  17.438  0.00  0.00    -0.224 NA
ATOM      8  C   UNL d   1     -40.002  15.131  18.337  0.00  0.00     0.101 A 
ATOM      9  C   UNL d   1     -40.010  14.753  17.608  0.00  0.00     0.101 A 
ATOM     10  C   UNL d   1     -40.578  14.959  17.048  0.00  0.00     0.021 A 
ATOM     11  C   UNL d   1     -40.556  15.711  18.510  0.00  0.00     0.021 A 
ATOM     12  C   UNL d   1     -41.120  15.912  17.945  0.00  0.00     0.002 A 
ATOM     13  C   UNL d   1     -41.125  15.533  17.219  0.00  0.00     0.002 A 
ENDROOT
BRANCH   1  14
ATOM     14  S   UNL d   1     -38.345  14.584  20.074  0.00  0.00     0.274 S 
ATOM     15  O   UNL d   1     -37.974  15.394  20.097  0.00  0.00    -0.200 OA
ATOM     16  O   UNL d   1     -37.952  15.100  19.541  0.00  0.00    -0.200 OA
BRANCH  14  17
ATOM     17  C   UNL d   1     -38.646  14.395  20.815  0.00  0.00     0.104 A 
ATOM     18  C   UNL d   1     -39.149  14.930  21.207  0.00  0.00     0.013 A 
ATOM     19  C   UNL d   1     -39.449  14.731  21.957  0.00  0.00     0.001 A 
ATOM     20  C   UNL d   1     -39.251  14.010  22.308  0.00  0.00     0.000 A 
ATOM     21  C   UNL d   1     -38.747  13.480  21.908  0.00  0.00     0.001 A 
ATOM     22  C   UNL d   1     -39.551  13.817  23.050  0.00  0.00     0.000 C 
ATOM     23  C   UNL d   1     -38.448  13.674  21.167  0.00  0.00     0.013 A 
ENDBRANCH  14  17
ENDBRANCH   1  14
BRANCH   4  24
ATOM     24  C   UNL d   1     -38.030  12.913  17.435  0.00  0.00     0.108 C 
BRANCH  24  25
ATOM     25  C   UNL d   1     -38.008  12.096  17.581  0.00  0.00     0.118 A 
ATOM     26  O   UNL d   1     -37.942  11.738  18.325  0.00  0.00    -0.304 OA
ATOM     27  C   UNL d   1     -37.940  10.906  18.218  0.00  0.00     0.123 A 
ATOM     28  C   UNL d   1     -38.005  10.758  17.403  0.00  0.00     0.029 A 
ATOM     29  C   UNL d   1     -38.046  11.496  17.014  0.00  0.00     0.028 A 
ENDBRANCH  24  25
ENDBRANCH   4  24
TORSDOF 4
ENDMDL
MODEL 2
REMARK VINA RESULT:      -4.9      1.122      3.816
REMARK  4 active torsions:
REMARK  status: ('A' for Active; 'I' for Inactive)
REMARK    1  A    between atoms: S_3  and  N_1 
REMARK    2  A    between atoms: C_9  and  S_3 
REMARK    3  A    between atoms: C_10  and  N_5 
REMARK    4  A    between atoms: C_15  and  C_10 
ROOT
ATOM      1  N   UNL d   1     -39.191  14.126  19.176  0.00  0.00    -0.195 N 
ATOM      2  C   UNL d   1     -39.830  14.534  18.875  0.00  0.00     0.193 A 
ATOM      3  C   UNL d   1     -40.431  14.786  19.379  0.00  0.00     0.185 A 
ATOM      4  N   UNL d   1     -40.210  14.538  20.125  0.00  0.00    -0.269 N 
ATOM      5  C   UNL d   1     -39.498  14.158  20.013  0.00  0.00     0.179 A 
ATOM      6  N   UNL d   1     -39.869  14.690  18.069  0.00  0.00    -0.223 NA
ATOM      7  N   UNL d   1     -41.076  15.198  19.073  0.00  0.00    -0.224 NA
ATOM      8  C   UNL d   1     -40.515  15.102  17.767  0.00  0.00     0.101 A 
ATOM      9  C   UNL d   1     -41.115  15.355  18.267  0.00  0.00     0.101 A 
ATOM     10  C   UNL d   1     -41.758  15.766  17.956  0.00  0.00     0.021 A 
ATOM     11  C   UNL d   1     -40.551  15.257  16.962  0.00  0.00     0.021 A 
ATOM     12  C   UNL d   1     -41.197  15.668  16.659  0.00  0.00     0.002 A 
ATOM     13  C   UNL d   1     -41.794  15.919  17.161  0.00  0.00     0.002 A 
ENDROOT
BRANCH   1  14
ATOM     14  S   UNL d   1     -38.556  13.866  18.601  0.00  0.00     0.274 S 
ATOM     15  O   UNL d   1     -37.940  14.472  18.382  0.00  0.00    -0.200 OA
ATOM     16  O   UNL d   1     -38.381  14.666  18.786  0.00  0.00    -0.200 OA
BRANCH  14  17
ATOM     17  C   UNL d   1     -38.404  13.160  18.210  0.00  0.00     0.104 A 
ATOM     18  C   UNL d   1     -38.400  13.140  17.378  0.00  0.00     0.013 A 
ATOM     19  C   UNL d   1     -38.246  12.421  16.988  0.00  0.00     0.001 A 
ATOM     20  C   UNL d   1     -38.098  11.735  17.423  0.00  0.00     0.000 A 
ATOM     21  C   UNL d   1     -38.103  11.764  18.256  0.00  0.00     0.001 A 
ATOM     22  C   UNL d   1     -37.946  11.025  17.035  0.00  0.00     0.000 C 
ATOM     23  C   UNL d   1     -38.256  12.473  18.644  0.00  0.00     0.013 A 
ENDBRANCH  14  17
ENDBRANCH   1  14
BRANCH   4  24
ATOM     24  C   UNL d   1     -40.620  14.649  20.834  0.00  0.00     0.108 C 
BRANCH  24  25
ATOM     25  C   UNL d   1     -40.251  15.023  21.477  0.00  0.00     0.118 A 
ATOM     26  O   UNL d   1     -40.466  15.755  21.801  0.00  0.00    -0.304 OA
ATOM     27  C   UNL d   1     -39.948  15.922  22.440  0.00  0.00     0.123 A 
ATOM     28  C   UNL d   1     -39.417  15.288  22.504  0.00  0.00     0.029 A 
ATOM     29  C   UNL d   1     -39.607  14.735  21.907  0.00  0.00     0.028 A 
ENDBRANCH  24  25
ENDBRANCH   4  24
TORSDOF 4
ENDMDL
MODEL 3
REMARK VINA RESULT:      -4.6      1.562      3.869
REMARK  4 active torsions:
REMARK  status: ('A' for Active; 'I' for Inactive)
REMARK    1  A    between atoms: S_3  and  N_1 
REMARK    2  A    between atoms: C_9  and  S_3 
REMARK    3  A    between atoms: C_10  and  N_5 
REMARK    4  A    between atoms: C_15  and  C_10 
ROOT
ATOM      1  N   UNL d   1     -38.463  14.942  20.218  0.00  0.00    -0.195 N 
ATOM      2  C   UNL d   1     -39.222  15.144  20.436  0.00  0.00     0.193 A 
ATOM      3  C   UNL d   1     -39.426  15.181  21.234  0.00  0.00     0.185 A 
ATOM      4  N   UNL d   1     -38.746  14.985  21.642  0.00  0.00    -0.269 N 
ATOM      5  C   UNL d   1     -38.191  14.847  21.063  0.00  0.00     0.179 A 
ATOM      6  N   UNL d   1     -39.781  15.311  19.856  0.00  0.00    -0.223 NA
ATOM      7  N   UNL d   1     -40.194  15.385  21.451  0.00  0.00    -0.224 NA
ATOM      8  C   UNL d   1     -40.547  15.515  20.077  0.00  0.00     0.101 A 
ATOM      9  C   UNL d   1     -40.753  15.552  20.871  0.00  0.00     0.101 A 
ATOM     10  C   UNL d   1     -41.522  15.758  21.084  0.00  0.00     0.021 A 
ATOM     11  C   UNL d   1     -41.102  15.681  19.495  0.00  0.00     0.021 A 
ATOM     12  C   UNL d   1     -41.868  15.886  19.716  0.00  0.00     0.002 A 
ATOM     13  C   UNL d   1     -42.070  15.922  20.509  0.00  0.00     0.002 A 
ENDROOT
BRANCH   1  14
ATOM     14  S   UNL d   1     -38.275  14.912  19.344  0.00  0.00     0.274 S 
ATOM     15  O   UNL d   1     -38.027  15.676  18.959  0.00  0.00    -0.200 OA
ATOM     16  O   UNL d   1     -38.156  15.710  19.574  0.00  0.00    -0.200 OA
BRANCH  14  17
ATOM     17  C   UNL d   1     -38.280  14.308  18.787  0.00  0.00     0.104 A 
ATOM     18  C   UNL d   1     -38.450  14.481  17.990  0.00  0.00     0.013 A 
ATOM     19  C   UNL d   1     -38.453  13.865  17.431  0.00  0.00     0.001 A 
ATOM     20  C   UNL d   1     -38.289  13.089  17.665  0.00  0.00     0.000 A 
ATOM     21  C   UNL d   1     -38.120  12.925  18.465  0.00  0.00     0.001 A 
ATOM     22  C   UNL d   1     -38.293  12.482  17.109  0.00  0.00     0.000 C 
ATOM     23  C   UNL d   1     -38.116  13.532  19.019  0.00  0.00     0.013 A 
ENDBRANCH  14  17
ENDBRANCH   1  14
BRANCH   4  24
ATOM     24  C   UNL d   1     -38.649  14.938  22.461  0.00  0.00     0.108 C 
BRANCH  24  25
ATOM     25  C   UNL d   1     -38.424  14.222  22.816  0.00  0.00     0.118 A 
ATOM     26  O   UNL d   1     -38.513  13.467  22.485  0.00  0.00    -0.304 OA
ATOM     27  C   UNL d   1     -38.213  12.904  23.030  0.00  0.00     0.123 A 
ATOM     28  C   UNL d   1     -37.940  13.319  23.695  0.00  0.00     0.029 A 
ATOM     29  C   UNL d   1     -38.072  14.133  23.559  0.00  0.00     0.028 A 
ENDBRANCH  24  25
ENDBRANCH   4  24
TORSDOF 4
ENDMDL
MODEL 4
REMARK VINA RESULT:      -3.6      1.760      2.418
REMARK  4 active torsions:
REMARK  status: ('A' for Active; 'I' for Inactive)
REMARK    1  A    between atoms: S_3  and  N_1 
REMARK    2  A    between atoms: C_9  and  S_3 
REMARK    3  A    between atoms: C_10  and  N_5 
REMARK    4  A    between atoms: C_15  and  C_10 
ROOT
ATOM      1  N   UNL d   1     -39.331  14.755  20.217  0.00  0.00    -0.195 N 
ATOM      2  C   UNL d   1     -40.080  14.438  20.175  0.00  0.00     0.193 A 
ATOM      3  C   UNL d   1     -40.381  14.186  19.450  0.00  0.00     0.185 A 
ATOM      4  N   UNL d   1     -39.790  14.332  18.905  0.00  0.00    -0.269 N 
ATOM      5  C   UNL d   1     -39.185  14.659  19.341  0.00  0.00     0.179 A 
ATOM      6  N   UNL d   1     -40.534  14.373  20.858  0.00  0.00    -0.223 NA
ATOM      7  N   UNL d   1     -41.139  13.866  19.410  0.00  0.00    -0.224 NA
ATOM      8  C   UNL d   1     -41.291  14.054  20.814  0.00  0.00     0.101 A 
ATOM      9  C   UNL d   1     -41.592  13.801  20.094  0.00  0.00     0.101 A 
ATOM     10  C   UNL d   1     -42.352  13.482  20.058  0.00  0.00     0.021 A 
ATOM     11  C   UNL d   1     -41.740  13.990  21.498  0.00  0.00     0.021 A 
ATOM     12  C   UNL d   1     -42.497  13.671  21.455  0.00  0.00     0.002 A 
ATOM     13  C   UNL d   1     -42.795  13.420  20.734  0.00  0.00     0.002 A 
ENDROOT
BRANCH   1  14
ATOM     14  S   UNL d   1     -39.035  15.019  21.019  0.00  0.00     0.274 S 
ATOM     15  O   UNL d   1     -39.018  15.896  21.172  0.00  0.00    -0.200 OA
ATOM     16  O   UNL d   1     -39.228  15.723  20.605  0.00  0.00    -0.200 OA
BRANCH  14  17
ATOM     17  C   UNL d   1     -38.762  14.615  21.680  0.00  0.00     0.104 A 
ATOM     18  C   UNL d   1     -38.301  13.928  21.585  0.00  0.00     0.013 A 
ATOM     19  C   UNL d   1     -38.028  13.524  22.258  0.00  0.00     0.001 A 
ATOM     20  C   UNL d   1     -38.212  13.802  23.014  0.00  0.00     0.000 A 
ATOM     21  C   UNL d   1     -38.674  14.491  23.101  0.00  0.00     0.001 A 
ATOM     22  C   UNL d   1     -37.940  13.400  23.679  0.00  0.00     0.000 C 
ATOM     23  C   UNL d   1     -38.945  14.892  22.437  0.00  0.00     0.013 A 
ENDBRANCH  14  17
ENDBRANCH   1  14
BRANCH   4  24
ATOM     24  C   UNL d   1     -39.807  14.181  18.093  0.00  0.00     0.108 C 
BRANCH  24  25
ATOM     25  C   UNL d   1     -39.184  13.768  17.731  0.00  0.00     0.118 A 
ATOM     26  O   UNL d   1     -38.984  12.975  17.867  0.00  0.00    -0.304 OA
ATOM     27  C   UNL d   1     -38.323  12.785  17.387  0.00  0.00     0.123 A 
ATOM     28  C   UNL d   1     -38.120  13.466  16.958  0.00  0.00     0.029 A 
ATOM     29  C   UNL d   1     -38.655  14.070  17.173  0.00  0.00     0.028 A 
ENDBRANCH  24  25
ENDBRANCH   4  24
TORSDOF 4
ENDMDL
MODEL 5
REMARK VINA RESULT:      -3.1      8.763      9.810
REMARK  4 active torsions:
REMARK  status: ('A' for Active; 'I' for Inactive)
REMARK    1  A    between atoms: S_3  and  N_1 
REMARK    2  A    between atoms: C_9  and  S_3 
REMARK    3  A    between atoms: C_10  and  N_5 
REMARK    4  A    between atoms: C_15  and  C_10 
ROOT
ATOM      1  N   UNL d   1     -47.518  11.807  22.970  0.00  0.00    -0.195 N 
ATOM      2  C   UNL d   1     -47.227  12.567  22.939  0.00  0.00     0.193 A 
ATOM      3  C   UNL d   1     -46.413  12.697  22.922  0.00  0.00     0.185 A 
ATOM      4  N   UNL d   1     -46.073  11.954  22.942  0.00  0.00    -0.269 N 
ATOM      5  C   UNL d   1     -46.704  11.440  22.970  0.00  0.00     0.179 A 
ATOM      6  N   UNL d   1     -47.749  13.203  22.925  0.00  0.00    -0.223 NA
ATOM      7  N   UNL d   1     -46.121  13.467  22.890  0.00  0.00    -0.224 NA
ATOM      8  C   UNL d   1     -47.454  13.970  22.894  0.00  0.00     0.101 A 
ATOM      9  C   UNL d   1     -46.644  14.102  22.876  0.00  0.00     0.101 A 
ATOM     10  C   UNL d   1     -46.356  14.874  22.845  0.00  0.00     0.021 A 
ATOM     11  C   UNL d   1     -47.978  14.602  22.880  0.00  0.00     0.021 A 
ATOM     12  C   UNL d   1     -47.684  15.370  22.849  0.00  0.00     0.002 A 
ATOM     13  C   UNL d   1     -46.874  15.497  22.832  0.00  0.00     0.002 A 
ENDROOT
BRANCH   1  14
ATOM     14  S   UNL d   1     -48.407  11.702  22.988  0.00  0.00     0.274 S 
ATOM     15  O   UNL d   1     -48.748  11.287  23.698  0.00  0.00    -0.200 OA
ATOM     16  O   UNL d   1     -48.123  11.354  23.697  0.00  0.00    -0.200 OA
BRANCH  14  17
ATOM     17  C   UNL d   1     -49.010  11.913  22.472  0.00  0.00     0.104 A 
ATOM     18  C   UNL d   1     -48.898  11.833  21.650  0.00  0.00     0.013 A 
ATOM     19  C   UNL d   1     -49.513  12.049  21.133  0.00  0.00     0.001 A 
ATOM     20  C   UNL d   1     -50.226  12.339  21.431  0.00  0.00     0.000 A 
ATOM     21  C   UNL d   1     -50.329  12.416  22.255  0.00  0.00     0.001 A 
ATOM     22  C   UNL d   1     -50.833  12.552  20.917  0.00  0.00     0.000 C 
ATOM     23  C   UNL d   1     -49.724  12.204  22.769  0.00  0.00     0.013 A 
ENDBRANCH  14  17
ENDBRANCH   1  14
BRANCH   4  24
ATOM     24  C   UNL d   1     -45.268  11.770  22.935  0.00  0.00     0.108 C 
BRANCH  24  25
ATOM     25  C   UNL d   1     -45.005  11.034  23.214  0.00  0.00     0.118 A 
ATOM     26  O   UNL d   1     -45.487  10.408  23.462  0.00  0.00    -0.304 OA
ATOM     27  C   UNL d   1     -44.993   9.772  23.698  0.00  0.00     0.123 A 
ATOM     28  C   UNL d   1     -44.206  10.013  23.592  0.00  0.00     0.029 A 
ATOM     29  C   UNL d   1     -44.217  10.793  23.293  0.00  0.00     0.028 A 
ENDBRANCH  24  25
ENDBRANCH   4  24
TORSDOF 4
ENDMDL
MODEL 6
REMARK VINA RESULT:      -2.6      6.303      7.639
REMARK  4 active torsions:
REMARK  status: ('A' for Active; 'I' for Inactive)
REMARK    1  A    between atoms: S_3  and  N_1 
REMARK    2  A    between atoms: C_9  and  S_3 
REMARK    3  A    between atoms: C_10  and  N_5 
REMARK    4  A    between atoms: C_15  and  C_10 
ROOT
ATOM      1  N   UNL d   1     -44.971  13.253  22.062  0.00  0.00    -0.195 N 
ATOM      2  C   UNL d   1     -44.616  12.546  22.260  0.00  0.00     0.193 A 
ATOM      3  C   UNL d   1     -43.883  12.349  21.940  0.00  0.00     0.185 A 
ATOM      4  N   UNL d   1     -43.680  12.977  21.457  0.00  0.00    -0.269 N 
ATOM      5  C   UNL d   1     -44.302  13.498  21.524  0.00  0.00     0.179 A 
ATOM      6  N   UNL d   1     -44.994  12.033  22.780  0.00  0.00    -0.223 NA
ATOM      7  N   UNL d   1     -43.526  11.635  22.141  0.00  0.00    -0.224 NA
ATOM      8  C   UNL d   1     -44.635  11.320  22.979  0.00  0.00     0.101 A 
ATOM      9  C   UNL d   1     -43.904  11.121  22.661  0.00  0.00     0.101 A 
ATOM     10  C   UNL d   1     -43.551  10.405  22.866  0.00  0.00     0.021 A 
ATOM     11  C   UNL d   1     -45.014  10.810  23.498  0.00  0.00     0.021 A 
ATOM     12  C   UNL d   1     -44.656  10.097  23.698  0.00  0.00     0.002 A 
ATOM     13  C   UNL d   1     -43.927   9.902  23.379  0.00  0.00     0.002 A 
ENDROOT
BRANCH   1  14
ATOM     14  S   UNL d   1     -45.767  13.435  22.428  0.00  0.00     0.274 S 
ATOM     15  O   UNL d   1     -45.765  13.929  23.169  0.00  0.00    -0.200 OA
ATOM     16  O   UNL d   1     -45.200  13.808  22.921  0.00  0.00    -0.200 OA
BRANCH  14  17
ATOM     17  C   UNL d   1     -46.539  13.240  22.225  0.00  0.00     0.104 A 
ATOM     18  C   UNL d   1     -46.746  13.150  21.424  0.00  0.00     0.013 A 
ATOM     19  C   UNL d   1     -47.530  12.952  21.225  0.00  0.00     0.001 A 
ATOM     20  C   UNL d   1     -48.095  12.846  21.817  0.00  0.00     0.000 A 
ATOM     21  C   UNL d   1     -47.879  12.937  22.617  0.00  0.00     0.001 A 
ATOM     22  C   UNL d   1     -48.870  12.650  21.618  0.00  0.00     0.000 C 
ATOM     23  C   UNL d   1     -47.106  13.133  22.817  0.00  0.00     0.013 A 
ENDBRANCH  14  17
ENDBRANCH   1  14
BRANCH   4  24
ATOM     24  C   UNL d   1     -42.995  13.060  21.003  0.00  0.00     0.108 C 
BRANCH  24  25
ATOM     25  C   UNL d   1     -42.495  13.713  21.116  0.00  0.00     0.118 A 
ATOM     26  O   UNL d   1     -42.677  14.500  20.935  0.00  0.00    -0.304 OA
ATOM     27  C   UNL d   1     -42.016  14.977  21.136  0.00  0.00     0.123 A 
ATOM     28  C   UNL d   1     -41.429  14.475  21.442  0.00  0.00     0.029 A 
ATOM     29  C   UNL d   1     -41.729  13.695  21.427  0.00  0.00     0.028 A 
ENDBRANCH  24  25
ENDBRANCH   4  24
TORSDOF 4
ENDMDL
