MODEL 1
REMARK VINA RESULT:      -0.6      0.000      0.000
REMARK  6 active torsions:
REMARK  status: ('A' for Active; 'I' for Inactive)
REMARK    1  A    between atoms: C_16  and  N_1 
REMARK    2  A    between atoms: C_11  and  C_2 
REMARK    3  A    between atoms: S_15  and  C_3 
REMARK    4  A    between atoms: C_8  and  C_11 
REMARK    5  A    between atoms: C_13  and  C_17 
REMARK       I    between atoms: N_14  and  C_13 
REMARK    6  A    between atoms: C_17  and  S_15 
ROOT
ATOM      1  N   UNL d   1      31.771  17.665 -23.859  0.00  0.00    -0.269 N 
ATOM      2  C   UNL d   1      31.950  18.437 -23.607  0.00  0.00     0.172 A 
ATOM      3  C   UNL d   1      31.000  17.674 -24.145  0.00  0.00     0.201 A 
ATOM      4  N   UNL d   1      31.293  18.907 -23.739  0.00  0.00    -0.128 NA
ATOM      5  N   UNL d   1      30.704  18.429 -24.074  0.00  0.00    -0.121 NA
ENDROOT
BRANCH   3   6
ATOM      6  S   UNL d   1      30.579  17.021 -24.459  0.00  0.00    -0.043 SA
BRANCH   6   7
ATOM      7  C   UNL d   1      29.747  17.046 -24.501  0.00  0.00     0.099 C 
BRANCH   7   8
ATOM      8  C   UNL d   1      29.326  16.343 -24.551  0.00  0.00     0.271 C 
ATOM      9  N   UNL d   1      28.620  16.253 -24.134  0.00  0.00    -0.272 N 
ATOM     10  C   UNL d   1      28.192  15.544 -24.182  0.00  0.00     0.083 A 
ATOM     11  C   UNL d   1      28.334  16.869 -23.664  0.00  0.00     0.083 A 
ATOM     12  C   UNL d   1      27.486  15.455 -23.765  0.00  0.00     0.019 A 
ATOM     13  C   UNL d   1      27.206  16.077 -23.297  0.00  0.00     0.003 A 
ATOM     14  C   UNL d   1      27.628  16.779 -23.247  0.00  0.00     0.019 A 
ATOM     15  O   UNL d   1      29.608  15.718 -25.022  0.00  0.00    -0.266 OA
ENDBRANCH   7   8
ENDBRANCH   6   7
ENDBRANCH   3   6
BRANCH   1  16
ATOM     16  C   UNL d   1      32.248  16.995 -23.842  0.00  0.00     0.067 A 
ATOM     17  C   UNL d   1      32.531  16.678 -24.561  0.00  0.00     0.018 A 
ATOM     18  C   UNL d   1      33.013  16.001 -24.553  0.00  0.00     0.002 A 
ATOM     19  C   UNL d   1      33.203  15.656 -23.827  0.00  0.00     0.000 A 
ATOM     20  C   UNL d   1      32.930  15.961 -23.122  0.00  0.00     0.002 A 
ATOM     21  C   UNL d   1      32.446  16.639 -23.130  0.00  0.00     0.018 A 
ENDBRANCH   1  16
BRANCH   2  22
ATOM     22  C   UNL d   1      32.701  18.599 -23.287  0.00  0.00     0.059 C 
BRANCH  22  23
ATOM     23  C   UNL d   1      32.881  19.370 -23.034  0.00  0.00     0.094 A 
ATOM     24  C   UNL d   1      32.972  19.538 -22.231  0.00  0.00     0.082 A 
ATOM     25  C   UNL d   1      33.149  20.304 -21.990  0.00  0.00     0.285 A 
ATOM     26  O   UNL d   1      33.240  20.472 -21.187  0.00  0.00    -0.265 OA
ATOM     27  N   UNL d   1      33.236  20.902 -22.551  0.00  0.00    -0.152 NA
ATOM     28  C   UNL d   1      33.148  20.742 -23.343  0.00  0.00     0.371 A 
ATOM     29  N   UNL d   1      32.968  19.968 -23.595  0.00  0.00    -0.191 NA
ATOM     30  O   UNL d   1      33.241  21.368 -23.896  0.00  0.00    -0.242 OA
ENDBRANCH  22  23
ENDBRANCH   2  22
TORSDOF 6
ENDMDL
MODEL 2
REMARK VINA RESULT:       1.5      1.161      4.895
REMARK  6 active torsions:
REMARK  status: ('A' for Active; 'I' for Inactive)
REMARK    1  A    between atoms: C_16  and  N_1 
REMARK    2  A    between atoms: C_11  and  C_2 
REMARK    3  A    between atoms: S_15  and  C_3 
REMARK    4  A    between atoms: C_8  and  C_11 
REMARK    5  A    between atoms: C_13  and  C_17 
REMARK       I    between atoms: N_14  and  C_13 
REMARK    6  A    between atoms: C_17  and  S_15 
ROOT
ATOM      1  N   UNL d   1      31.787  17.527 -23.834  0.00  0.00    -0.269 N 
ATOM      2  C   UNL d   1      31.006  17.582 -24.113  0.00  0.00     0.172 A 
ATOM      3  C   UNL d   1      32.044  18.292 -23.677  0.00  0.00     0.201 A 
ATOM      4  N   UNL d   1      30.793  18.372 -24.124  0.00  0.00    -0.128 NA
ATOM      5  N   UNL d   1      31.442  18.811 -23.852  0.00  0.00    -0.121 NA
ENDROOT
BRANCH   3   6
ATOM      6  S   UNL d   1      32.798  18.512 -23.385  0.00  0.00    -0.043 SA
BRANCH   6   7
ATOM      7  C   UNL d   1      32.934  19.296 -23.137  0.00  0.00     0.099 C 
BRANCH   7   8
ATOM      8  C   UNL d   1      33.086  19.447 -22.345  0.00  0.00     0.271 C 
ATOM      9  N   UNL d   1      33.087  20.222 -22.064  0.00  0.00    -0.272 N 
ATOM     10  C   UNL d   1      33.240  20.378 -21.264  0.00  0.00     0.083 A 
ATOM     11  C   UNL d   1      32.934  20.851 -22.577  0.00  0.00     0.083 A 
ATOM     12  C   UNL d   1      33.241  21.153 -20.983  0.00  0.00     0.019 A 
ATOM     13  C   UNL d   1      33.087  21.777 -21.504  0.00  0.00     0.003 A 
ATOM     14  C   UNL d   1      32.935  21.626 -22.296  0.00  0.00     0.019 A 
ATOM     15  O   UNL d   1      33.241  18.819 -21.820  0.00  0.00    -0.266 OA
ENDBRANCH   7   8
ENDBRANCH   6   7
ENDBRANCH   3   6
BRANCH   1  16
ATOM     16  C   UNL d   1      32.247  16.854 -23.723  0.00  0.00     0.067 A 
ATOM     17  C   UNL d   1      32.172  16.421 -23.013  0.00  0.00     0.018 A 
ATOM     18  C   UNL d   1      32.633  15.741 -22.892  0.00  0.00     0.002 A 
ATOM     19  C   UNL d   1      33.160  15.507 -23.484  0.00  0.00     0.000 A 
ATOM     20  C   UNL d   1      33.237  15.926 -24.180  0.00  0.00     0.002 A 
ATOM     21  C   UNL d   1      32.776  16.607 -24.300  0.00  0.00     0.018 A 
ENDBRANCH   1  16
BRANCH   2  22
ATOM     22  C   UNL d   1      30.595  16.887 -24.319  0.00  0.00     0.059 C 
BRANCH  22  23
ATOM     23  C   UNL d   1      29.764  16.886 -24.314  0.00  0.00     0.094 A 
ATOM     24  C   UNL d   1      29.347  16.293 -23.919  0.00  0.00     0.082 A 
ATOM     25  C   UNL d   1      28.525  16.300 -23.919  0.00  0.00     0.285 A 
ATOM     26  O   UNL d   1      28.109  15.706 -23.525  0.00  0.00    -0.265 OA
ATOM     27  N   UNL d   1      28.119  16.899 -24.313  0.00  0.00    -0.152 NA
ATOM     28  C   UNL d   1      28.524  17.486 -24.703  0.00  0.00     0.371 A 
ATOM     29  N   UNL d   1      29.357  17.486 -24.707  0.00  0.00    -0.191 NA
ATOM     30  O   UNL d   1      28.088  18.086 -25.097  0.00  0.00    -0.242 OA
ENDBRANCH  22  23
ENDBRANCH   2  22
TORSDOF 6
ENDMDL
