MODEL 1
REMARK VINA RESULT:       7.1      0.000      0.000
REMARK  5 active torsions:
REMARK  status: ('A' for Active; 'I' for Inactive)
REMARK    1  A    between atoms: C_18  and  N_1 
REMARK    2  A    between atoms: C_13  and  C_6 
REMARK    3  A    between atoms: C_12  and  C_7 
REMARK    4  A    between atoms: C_23  and  C_14 
REMARK    5  A    between atoms: C_19  and  C_18 
ROOT
ATOM      1  C   UNL d   1      28.549  15.785 -23.824  0.00  0.00     0.121 A 
ATOM      2  C   UNL d   1      28.424  16.600 -23.909  0.00  0.00     0.058 A 
ATOM      3  N   UNL d   1      27.844  15.453 -23.558  0.00  0.00    -0.195 NA
ATOM      4  S   UNL d   1      29.285  15.462 -24.000  0.00  0.00    -0.068 SA
ATOM      5  C   UNL d   1      29.902  15.946 -24.262  0.00  0.00     0.026 A 
ATOM      6  C   UNL d   1      29.777  16.761 -24.347  0.00  0.00    -0.001 A 
ATOM      7  C   UNL d   1      30.801  15.963 -24.539  0.00  0.00    -0.011 A 
ATOM      8  C   UNL d   1      30.552  16.854 -24.598  0.00  0.00    -0.027 A 
ATOM      9  C   UNL d   1      29.036  17.088 -24.170  0.00  0.00     0.008 A 
ATOM     10  C   UNL d   1      27.287  16.058 -23.479  0.00  0.00     0.311 A 
ATOM     11  S   UNL d   1      27.643  16.763 -23.695  0.00  0.00    -0.024 SA
ATOM     12  C   UNL d   1      31.444  15.464 -24.659  0.00  0.00     0.049 A 
ATOM     13  O   UNL d   1      26.507  15.965 -23.227  0.00  0.00    -0.258 OA
ENDROOT
BRANCH   9  14
ATOM     14  C   UNL d   1      28.913  17.894 -24.255  0.00  0.00     0.001 A 
ATOM     15  C   UNL d   1      28.855  18.381 -23.592  0.00  0.00     0.000 A 
ATOM     16  C   UNL d   1      28.730  19.191 -23.677  0.00  0.00     0.000 A 
ATOM     17  C   UNL d   1      28.662  19.528 -24.426  0.00  0.00     0.000 A 
ATOM     18  C   UNL d   1      28.720  19.040 -25.096  0.00  0.00     0.000 A 
ATOM     19  C   UNL d   1      28.844  18.230 -25.011  0.00  0.00     0.000 A 
ENDBRANCH   9  14
BRANCH   8  20
ATOM     20  C   UNL d   1      30.941  17.541 -24.821  0.00  0.00     0.125 A 
ATOM     21  C   UNL d   1      31.558  18.054 -24.631  0.00  0.00     0.251 A 
ATOM     22  N   UNL d   1      31.927  17.760 -23.952  0.00  0.00    -0.239 N 
ATOM     23  O   UNL d   1      31.773  18.742 -25.044  0.00  0.00    -0.271 OA
ATOM     24  C   UNL d   1      31.545  17.076 -23.724  0.00  0.00     0.263 A 
ATOM     25  C   UNL d   1      30.927  16.936 -24.266  0.00  0.00     0.044 A 
ATOM     26  O   UNL d   1      31.742  16.609 -23.070  0.00  0.00    -0.267 OA
BRANCH  22  27
ATOM     27  C   UNL d   1      32.590  18.108 -23.557  0.00  0.00     0.134 C 
ATOM     28  C   UNL d   1      33.241  17.630 -23.312  0.00  0.00     0.026 C 
BRANCH  27  29
ATOM     29  C   UNL d   1      32.600  18.946 -23.406  0.00  0.00     0.228 C 
ATOM     30  O   UNL d   1      32.444  19.236 -22.626  0.00  0.00    -0.643 OA
ATOM     31  O   UNL d   1      32.766  19.479 -24.034  0.00  0.00    -0.643 OA
ENDBRANCH  27  29
ENDBRANCH  22  27
ENDBRANCH   8  20
TORSDOF 5
ENDMDL
