MODEL 1
REMARK VINA RESULT:      -0.9      0.000      0.000
REMARK  4 active torsions:
REMARK  status: ('A' for Active; 'I' for Inactive)
REMARK    1  A    between atoms: C_11  and  C_1 
REMARK    2  A    between atoms: C_6  and  C_17 
REMARK       I    between atoms: N_10  and  C_6 
REMARK    3  A    between atoms: C_17  and  N_8 
REMARK    4  A    between atoms: C_15  and  N_10 
ROOT
ATOM      1  N   UNL d   1     -41.285-123.297 -51.934  0.00  0.00    -0.299 N 
ATOM      2  C   UNL d   1     -41.607-122.708 -53.432  0.00  0.00     0.039 A 
ATOM      3  C   UNL d   1     -41.361-122.198 -52.832  0.00  0.00     0.022 A 
ATOM      4  C   UNL d   1     -41.693-123.510 -53.289  0.00  0.00     0.022 A 
ATOM      5  C   UNL d   1     -41.531-123.806 -52.535  0.00  0.00     0.081 A 
ATOM      6  C   UNL d   1     -41.202-122.490 -52.089  0.00  0.00     0.081 A 
ENDROOT
BRANCH   1   7
ATOM      7  C   UNL d   1     -41.123-123.593 -51.179  0.00  0.00     0.144 C 
BRANCH   7   8
ATOM      8  C   UNL d   1     -41.653-123.453 -50.558  0.00  0.00     0.297 C 
ATOM      9  N   UNL d   1     -41.359-123.273 -49.826  0.00  0.00    -0.207 NA
ATOM     10  O   UNL d   1     -42.456-123.496 -50.682  0.00  0.00    -0.264 OA
BRANCH   9  11
ATOM     11  C   UNL d   1     -41.878-123.131 -49.198  0.00  0.00     0.087 A 
ATOM     12  C   UNL d   1     -41.712-123.442 -48.464  0.00  0.00     0.045 A 
ATOM     13  C   UNL d   1     -42.231-123.300 -47.837  0.00  0.00     0.121 A 
ATOM     14  O   UNL d   1     -42.221-123.531 -47.046  0.00  0.00    -0.299 OA
ATOM     15  C   UNL d   1     -42.905-122.851 -47.954  0.00  0.00     0.119 A 
ATOM     16  C   UNL d   1     -42.889-123.224 -46.676  0.00  0.00     0.304 A 
ATOM     17  O   UNL d   1     -43.314-122.801 -47.241  0.00  0.00    -0.300 OA
ATOM     18  C   UNL d   1     -43.062-122.540 -48.706  0.00  0.00     0.028 A 
ATOM     19  C   UNL d   1     -42.545-122.683 -49.325  0.00  0.00     0.021 A 
ENDBRANCH   9  11
ENDBRANCH   7   8
ENDBRANCH   1   7
BRANCH   2  20
ATOM     20  C   UNL d   1     -41.769-122.412 -54.187  0.00  0.00     0.163 A 
ATOM     21  N   UNL d   1     -41.240-122.046 -54.691  0.00  0.00    -0.225 NA
ATOM     22  C   UNL d   1     -41.636-121.840 -55.381  0.00  0.00     0.101 A 
ATOM     23  C   UNL d   1     -41.383-121.464 -56.070  0.00  0.00     0.021 A 
ATOM     24  C   UNL d   1     -42.423-122.083 -55.303  0.00  0.00     0.101 A 
ATOM     25  C   UNL d   1     -41.915-121.330 -56.681  0.00  0.00     0.002 A 
ATOM     26  C   UNL d   1     -42.703-121.571 -56.606  0.00  0.00     0.002 A 
ATOM     27  C   UNL d   1     -42.957-121.946 -55.921  0.00  0.00     0.021 A 
ATOM     28  N   UNL d   1     -42.507-122.437 -54.564  0.00  0.00    -0.225 NA
ENDBRANCH   2  20
TORSDOF 4
ENDMDL
