MODEL 1
REMARK VINA RESULT:      -2.9      0.000      0.000
REMARK  1 active torsions:
REMARK  status: ('A' for Active; 'I' for Inactive)
REMARK    1  A    between atoms: C_7  and  C_2 
ROOT
ATOM      1  N   UNL d   1      31.239  15.453 -23.375  0.00  0.00    -0.147 NA
ATOM      2  C   UNL d   1      30.768  16.006 -23.758  0.00  0.00     0.103 A 
ATOM      3  N   UNL d   1      32.045  15.579 -23.319  0.00  0.00    -0.137 NA
ATOM      4  C   UNL d   1      31.095  16.690 -24.089  0.00  0.00     0.022 A 
ATOM      5  C   UNL d   1      32.378  16.259 -23.646  0.00  0.00     0.157 A 
ATOM      6  C   UNL d   1      31.900  16.817 -24.033  0.00  0.00     0.031 A 
ATOM      7  S   UNL d   1      33.214  16.390 -23.588  0.00  0.00    -0.056 SA
ATOM      8  C   UNL d   1      30.623  17.248 -24.475  0.00  0.00     0.002 A 
ATOM      9  C   UNL d   1      32.232  17.501 -24.363  0.00  0.00     0.002 A 
ATOM     10  C   UNL d   1      30.951  17.923 -24.800  0.00  0.00     0.000 A 
ATOM     11  C   UNL d   1      31.756  18.049 -24.744  0.00  0.00     0.000 A 
ENDROOT
BRANCH   2  12
ATOM     12  C   UNL d   1      29.931  15.875 -23.816  0.00  0.00     0.019 A 
ATOM     13  C   UNL d   1      29.443  16.045 -23.167  0.00  0.00     0.002 A 
ATOM     14  C   UNL d   1      28.632  15.918 -23.223  0.00  0.00     0.000 A 
ATOM     15  C   UNL d   1      28.311  15.621 -23.928  0.00  0.00     0.000 A 
ATOM     16  C   UNL d   1      28.799  15.453 -24.572  0.00  0.00     0.000 A 
ATOM     17  C   UNL d   1      27.485  15.491 -23.986  0.00  0.00     0.000 C 
ATOM     18  C   UNL d   1      29.609  15.580 -24.515  0.00  0.00     0.002 A 
ENDBRANCH   2  12
TORSDOF 1
ENDMDL
MODEL 2
REMARK VINA RESULT:      -2.7      1.236      1.638
REMARK  1 active torsions:
REMARK  status: ('A' for Active; 'I' for Inactive)
REMARK    1  A    between atoms: C_7  and  C_2 
ROOT
ATOM      1  N   UNL d   1      30.482  17.687 -24.936  0.00  0.00    -0.147 NA
ATOM      2  C   UNL d   1      30.482  17.030 -24.442  0.00  0.00     0.103 A 
ATOM      3  N   UNL d   1      31.185  18.073 -25.092  0.00  0.00    -0.137 NA
ATOM      4  C   UNL d   1      31.181  16.753 -24.099  0.00  0.00     0.022 A 
ATOM      5  C   UNL d   1      31.886  17.803 -24.753  0.00  0.00     0.157 A 
ATOM      6  C   UNL d   1      31.884  17.140 -24.255  0.00  0.00     0.031 A 
ATOM      7  S   UNL d   1      32.616  18.205 -24.915  0.00  0.00    -0.056 SA
ATOM      8  C   UNL d   1      31.184  16.093 -23.602  0.00  0.00     0.002 A 
ATOM      9  C   UNL d   1      32.588  16.866 -23.913  0.00  0.00     0.002 A 
ATOM     10  C   UNL d   1      31.878  15.823 -23.265  0.00  0.00     0.000 A 
ATOM     11  C   UNL d   1      32.581  16.210 -23.421  0.00  0.00     0.000 A 
ENDROOT
BRANCH   2  12
ATOM     12  C   UNL d   1      29.752  16.628 -24.281  0.00  0.00     0.019 A 
ATOM     13  C   UNL d   1      29.267  16.890 -23.661  0.00  0.00     0.002 A 
ATOM     14  C   UNL d   1      28.560  16.501 -23.504  0.00  0.00     0.000 A 
ATOM     15  C   UNL d   1      28.338  15.849 -23.968  0.00  0.00     0.000 A 
ATOM     16  C   UNL d   1      28.822  15.591 -24.583  0.00  0.00     0.000 A 
ATOM     17  C   UNL d   1      27.617  15.452 -23.808  0.00  0.00     0.000 C 
ATOM     18  C   UNL d   1      29.529  15.980 -24.740  0.00  0.00     0.002 A 
ENDBRANCH   2  12
TORSDOF 1
ENDMDL
MODEL 3
REMARK VINA RESULT:      -2.5      1.806      3.463
REMARK  1 active torsions:
REMARK  status: ('A' for Active; 'I' for Inactive)
REMARK    1  A    between atoms: C_7  and  C_2 
ROOT
ATOM      1  N   UNL d   1      30.557  17.602 -24.813  0.00  0.00    -0.147 NA
ATOM      2  C   UNL d   1      30.488  16.986 -24.274  0.00  0.00     0.103 A 
ATOM      3  N   UNL d   1      29.883  17.976 -25.084  0.00  0.00    -0.137 NA
ATOM      4  C   UNL d   1      29.748  16.738 -23.999  0.00  0.00     0.022 A 
ATOM      5  C   UNL d   1      29.142  17.735 -24.815  0.00  0.00     0.157 A 
ATOM      6  C   UNL d   1      29.075  17.113 -24.270  0.00  0.00     0.031 A 
ATOM      7  S   UNL d   1      28.442  18.125 -25.097  0.00  0.00    -0.056 SA
ATOM      8  C   UNL d   1      29.677  16.119 -23.457  0.00  0.00     0.002 A 
ATOM      9  C   UNL d   1      28.331  16.868 -23.999  0.00  0.00     0.002 A 
ATOM     10  C   UNL d   1      28.943  15.878 -23.189  0.00  0.00     0.000 A 
ATOM     11  C   UNL d   1      28.270  16.253 -23.460  0.00  0.00     0.000 A 
ENDROOT
BRANCH   2  12
ATOM     12  C   UNL d   1      31.188  16.596 -23.992  0.00  0.00     0.019 A 
ATOM     13  C   UNL d   1      31.417  15.872 -24.326  0.00  0.00     0.002 A 
ATOM     14  C   UNL d   1      32.095  15.494 -24.053  0.00  0.00     0.000 A 
ATOM     15  C   UNL d   1      32.543  15.842 -23.447  0.00  0.00     0.000 A 
ATOM     16  C   UNL d   1      32.313  16.562 -23.117  0.00  0.00     0.000 A 
ATOM     17  C   UNL d   1      33.234  15.457 -23.169  0.00  0.00     0.000 C 
ATOM     18  C   UNL d   1      31.635  16.939 -23.390  0.00  0.00     0.002 A 
ENDBRANCH   2  12
TORSDOF 1
ENDMDL
MODEL 4
REMARK VINA RESULT:      -2.3      2.579      3.707
REMARK  1 active torsions:
REMARK  status: ('A' for Active; 'I' for Inactive)
REMARK    1  A    between atoms: C_7  and  C_2 
ROOT
ATOM      1  N   UNL d   1      32.630  18.965 -24.900  0.00  0.00    -0.147 NA
ATOM      2  C   UNL d   1      32.633  18.650 -24.141  0.00  0.00     0.103 A 
ATOM      3  N   UNL d   1      32.830  19.749 -25.012  0.00  0.00    -0.137 NA
ATOM      4  C   UNL d   1      32.835  19.114 -23.487  0.00  0.00     0.022 A 
ATOM      5  C   UNL d   1      33.033  20.218 -24.365  0.00  0.00     0.157 A 
ATOM      6  C   UNL d   1      33.035  19.899 -23.599  0.00  0.00     0.031 A 
ATOM      7  S   UNL d   1      33.241  21.033 -24.481  0.00  0.00    -0.056 SA
ATOM      8  C   UNL d   1      32.839  18.801 -22.723  0.00  0.00     0.002 A 
ATOM      9  C   UNL d   1      33.238  20.368 -22.947  0.00  0.00     0.002 A 
ATOM     10  C   UNL d   1      33.039  19.263 -22.079  0.00  0.00     0.000 A 
ATOM     11  C   UNL d   1      33.239  20.048 -22.191  0.00  0.00     0.000 A 
ENDROOT
BRANCH   2  12
ATOM     12  C   UNL d   1      32.425  17.836 -24.025  0.00  0.00     0.019 A 
ATOM     13  C   UNL d   1      31.633  17.629 -23.890  0.00  0.00     0.002 A 
ATOM     14  C   UNL d   1      31.432  16.840 -23.777  0.00  0.00     0.000 A 
ATOM     15  C   UNL d   1      32.023  16.258 -23.799  0.00  0.00     0.000 A 
ATOM     16  C   UNL d   1      32.809  16.466 -23.933  0.00  0.00     0.000 A 
ATOM     17  C   UNL d   1      31.818  15.453 -23.684  0.00  0.00     0.000 C 
ATOM     18  C   UNL d   1      33.011  17.255 -24.046  0.00  0.00     0.002 A 
ENDBRANCH   2  12
TORSDOF 1
ENDMDL
MODEL 5
REMARK VINA RESULT:      -1.2      4.733      5.971
REMARK  1 active torsions:
REMARK  status: ('A' for Active; 'I' for Inactive)
REMARK    1  A    between atoms: C_7  and  C_2 
ROOT
ATOM      1  N   UNL d   1      33.239  21.625 -23.238  0.00  0.00    -0.147 NA
ATOM      2  C   UNL d   1      32.956  21.173 -22.612  0.00  0.00     0.103 A 
ATOM      3  N   UNL d   1      33.241  22.439 -23.177  0.00  0.00    -0.137 NA
ATOM      4  C   UNL d   1      32.672  21.529 -21.922  0.00  0.00     0.022 A 
ATOM      5  C   UNL d   1      32.960  22.802 -22.492  0.00  0.00     0.157 A 
ATOM      6  C   UNL d   1      32.674  22.344 -21.862  0.00  0.00     0.031 A 
ATOM      7  S   UNL d   1      32.962  23.648 -22.430  0.00  0.00    -0.056 SA
ATOM      8  C   UNL d   1      32.387  21.077 -21.292  0.00  0.00     0.002 A 
ATOM      9  C   UNL d   1      32.390  22.705 -21.172  0.00  0.00     0.002 A 
ATOM     10  C   UNL d   1      32.107  21.433 -20.612  0.00  0.00     0.000 A 
ATOM     11  C   UNL d   1      32.109  22.248 -20.551  0.00  0.00     0.000 A 
ENDROOT
BRANCH   2  12
ATOM     12  C   UNL d   1      32.954  20.326 -22.675  0.00  0.00     0.019 A 
ATOM     13  C   UNL d   1      33.239  19.867 -22.045  0.00  0.00     0.002 A 
ATOM     14  C   UNL d   1      33.237  19.047 -22.106  0.00  0.00     0.000 A 
ATOM     15  C   UNL d   1      32.950  18.687 -22.796  0.00  0.00     0.000 A 
ATOM     16  C   UNL d   1      32.667  19.146 -23.420  0.00  0.00     0.000 A 
ATOM     17  C   UNL d   1      32.948  17.851 -22.858  0.00  0.00     0.000 C 
ATOM     18  C   UNL d   1      32.669  19.965 -23.359  0.00  0.00     0.002 A 
ENDBRANCH   2  12
TORSDOF 1
ENDMDL
MODEL 6
REMARK VINA RESULT:      -0.8      5.085      6.259
REMARK  1 active torsions:
REMARK  status: ('A' for Active; 'I' for Inactive)
REMARK    1  A    between atoms: C_7  and  C_2 
ROOT
ATOM      1  N   UNL d   1      32.656  21.102 -20.459  0.00  0.00    -0.147 NA
ATOM      2  C   UNL d   1      32.806  21.159 -21.265  0.00  0.00     0.103 A 
ATOM      3  N   UNL d   1      32.648  21.780 -20.002  0.00  0.00    -0.137 NA
ATOM      4  C   UNL d   1      32.948  21.891 -21.623  0.00  0.00     0.022 A 
ATOM      5  C   UNL d   1      32.788  22.513 -20.352  0.00  0.00     0.157 A 
ATOM      6  C   UNL d   1      32.939  22.569 -21.166  0.00  0.00     0.031 A 
ATOM      7  S   UNL d   1      32.780  23.217 -19.877  0.00  0.00    -0.056 SA
ATOM      8  C   UNL d   1      33.098  21.951 -22.433  0.00  0.00     0.002 A 
ATOM      9  C   UNL d   1      33.081  23.305 -21.520  0.00  0.00     0.002 A 
ATOM     10  C   UNL d   1      33.238  22.677 -22.782  0.00  0.00     0.000 A 
ATOM     11  C   UNL d   1      33.229  23.354 -22.325  0.00  0.00     0.000 A 
ENDROOT
BRANCH   2  12
ATOM     12  C   UNL d   1      32.814  20.456 -21.739  0.00  0.00     0.019 A 
ATOM     13  C   UNL d   1      32.402  20.440 -22.459  0.00  0.00     0.002 A 
ATOM     14  C   UNL d   1      32.410  19.759 -22.919  0.00  0.00     0.000 A 
ATOM     15  C   UNL d   1      32.832  19.093 -22.659  0.00  0.00     0.000 A 
ATOM     16  C   UNL d   1      33.241  19.111 -21.943  0.00  0.00     0.000 A 
ATOM     17  C   UNL d   1      32.840  18.398 -23.127  0.00  0.00     0.000 C 
ATOM     18  C   UNL d   1      33.232  19.792 -21.483  0.00  0.00     0.002 A 
ENDBRANCH   2  12
TORSDOF 1
ENDMDL
MODEL 7
REMARK VINA RESULT:      -0.6      2.474      4.169
REMARK  1 active torsions:
REMARK  status: ('A' for Active; 'I' for Inactive)
REMARK    1  A    between atoms: C_7  and  C_2 
ROOT
ATOM      1  N   UNL d   1      33.233  17.598 -22.520  0.00  0.00    -0.147 NA
ATOM      2  C   UNL d   1      32.918  18.184 -23.002  0.00  0.00     0.103 A 
ATOM      3  N   UNL d   1      33.155  16.814 -22.736  0.00  0.00    -0.137 NA
ATOM      4  C   UNL d   1      32.522  17.995 -23.703  0.00  0.00     0.022 A 
ATOM      5  C   UNL d   1      32.762  16.617 -23.433  0.00  0.00     0.157 A 
ATOM      6  C   UNL d   1      32.444  17.211 -23.919  0.00  0.00     0.031 A 
ATOM      7  S   UNL d   1      32.681  15.802 -23.657  0.00  0.00    -0.056 SA
ATOM      8  C   UNL d   1      32.204  18.582 -24.189  0.00  0.00     0.002 A 
ATOM      9  C   UNL d   1      32.049  17.015 -24.620  0.00  0.00     0.002 A 
ATOM     10  C   UNL d   1      31.814  18.389 -24.881  0.00  0.00     0.000 A 
ATOM     11  C   UNL d   1      31.736  17.605 -25.097  0.00  0.00     0.000 A 
ENDROOT
BRANCH   2  12
ATOM     12  C   UNL d   1      32.999  18.999 -22.778  0.00  0.00     0.019 A 
ATOM     13  C   UNL d   1      32.942  19.213 -21.978  0.00  0.00     0.002 A 
ATOM     14  C   UNL d   1      33.020  20.002 -21.761  0.00  0.00     0.000 A 
ATOM     15  C   UNL d   1      33.156  20.577 -22.343  0.00  0.00     0.000 A 
ATOM     16  C   UNL d   1      33.212  20.362 -23.138  0.00  0.00     0.000 A 
ATOM     17  C   UNL d   1      33.236  21.381 -22.122  0.00  0.00     0.000 C 
ATOM     18  C   UNL d   1      33.134  19.573 -23.355  0.00  0.00     0.002 A 
ENDBRANCH   2  12
TORSDOF 1
ENDMDL
MODEL 8
REMARK VINA RESULT:       0.0      3.635      5.274
REMARK  1 active torsions:
REMARK  status: ('A' for Active; 'I' for Inactive)
REMARK    1  A    between atoms: C_7  and  C_2 
ROOT
ATOM      1  N   UNL d   1      32.812  18.949 -22.276  0.00  0.00    -0.147 NA
ATOM      2  C   UNL d   1      32.923  19.709 -22.567  0.00  0.00     0.103 A 
ATOM      3  N   UNL d   1      32.804  18.317 -22.794  0.00  0.00    -0.137 NA
ATOM      4  C   UNL d   1      33.026  19.847 -23.376  0.00  0.00     0.022 A 
ATOM      5  C   UNL d   1      32.907  18.446 -23.602  0.00  0.00     0.157 A 
ATOM      6  C   UNL d   1      33.018  19.215 -23.894  0.00  0.00     0.031 A 
ATOM      7  S   UNL d   1      32.898  17.789 -24.140  0.00  0.00    -0.056 SA
ATOM      8  C   UNL d   1      33.137  20.611 -23.671  0.00  0.00     0.002 A 
ATOM      9  C   UNL d   1      33.121  19.347 -24.705  0.00  0.00     0.002 A 
ATOM     10  C   UNL d   1      33.239  20.741 -24.471  0.00  0.00     0.000 A 
ATOM     11  C   UNL d   1      33.231  20.109 -24.989  0.00  0.00     0.000 A 
ENDROOT
BRANCH   2  12
ATOM     12  C   UNL d   1      32.931  20.366 -22.029  0.00  0.00     0.019 A 
ATOM     13  C   UNL d   1      32.636  21.102 -22.274  0.00  0.00     0.002 A 
ATOM     14  C   UNL d   1      32.644  21.738 -21.753  0.00  0.00     0.000 A 
ATOM     15  C   UNL d   1      32.947  21.638 -20.987  0.00  0.00     0.000 A 
ATOM     16  C   UNL d   1      33.240  20.905 -20.746  0.00  0.00     0.000 A 
ATOM     17  C   UNL d   1      32.956  22.286 -20.456  0.00  0.00     0.000 C 
ATOM     18  C   UNL d   1      33.232  20.269 -21.267  0.00  0.00     0.002 A 
ENDBRANCH   2  12
TORSDOF 1
ENDMDL
