MODEL 1
REMARK VINA RESULT:      -4.8      0.000      0.000
REMARK  1 active torsions:
REMARK  status: ('A' for Active; 'I' for Inactive)
REMARK    1  A    between atoms: C_4  and  N_1 
ROOT
ATOM      1  N   UNL d   1      55.807   0.275  33.734  0.00  0.00    -0.240 N 
ATOM      2  C   UNL d   1      56.215   0.493  34.421  0.00  0.00     0.267 A 
ATOM      3  C   UNL d   1      54.995   0.331  33.900  0.00  0.00     0.267 A 
ATOM      4  C   UNL d   1      54.910   0.581  34.679  0.00  0.00     0.066 A 
ATOM      5  C   UNL d   1      55.661   0.682  35.005  0.00  0.00     0.066 A 
ATOM      6  O   UNL d   1      57.041   0.517  34.506  0.00  0.00    -0.267 OA
ATOM      7  O   UNL d   1      54.389   0.163  33.367  0.00  0.00    -0.267 OA
ENDROOT
BRANCH   1   8
ATOM      8  C   UNL d   1      56.144   0.044  33.018  0.00  0.00     0.097 A 
ATOM      9  C   UNL d   1      56.230  -0.757  32.846  0.00  0.00     0.156 A 
ATOM     10  F   UNL d   1      55.980  -1.326  33.391  0.00  0.00    -0.203 F 
ATOM     11  C   UNL d   1      56.567  -0.992  32.130  0.00  0.00     0.031 A 
ATOM     12  C   UNL d   1      56.814  -0.417  31.591  0.00  0.00     0.002 A 
ATOM     13  C   UNL d   1      56.726   0.386  31.767  0.00  0.00     0.002 A 
ATOM     14  C   UNL d   1      56.389   0.613  32.485  0.00  0.00     0.020 A 
ENDBRANCH   1   8
TORSDOF 1
ENDMDL
MODEL 2
REMARK VINA RESULT:      -4.8      1.215      2.696
REMARK  1 active torsions:
REMARK  status: ('A' for Active; 'I' for Inactive)
REMARK    1  A    between atoms: C_4  and  N_1 
ROOT
ATOM      1  N   UNL d   1      56.224  -0.484  32.697  0.00  0.00    -0.240 N 
ATOM      2  C   UNL d   1      56.224  -1.301  32.558  0.00  0.00     0.267 A 
ATOM      3  C   UNL d   1      56.653  -0.127  32.082  0.00  0.00     0.267 A 
ATOM      4  C   UNL d   1      56.911  -0.721  31.574  0.00  0.00     0.066 A 
ATOM      5  C   UNL d   1      56.648  -1.447  31.864  0.00  0.00     0.066 A 
ATOM      6  O   UNL d   1      55.858  -1.872  33.037  0.00  0.00    -0.267 OA
ATOM      7  O   UNL d   1      56.789   0.682  32.005  0.00  0.00    -0.267 OA
ENDROOT
BRANCH   1   8
ATOM      8  C   UNL d   1      55.865  -0.095  33.330  0.00  0.00     0.097 A 
ATOM      9  C   UNL d   1      56.320   0.144  33.974  0.00  0.00     0.156 A 
ATOM     10  F   UNL d   1      57.134  -0.005  33.983  0.00  0.00    -0.203 F 
ATOM     11  C   UNL d   1      55.965   0.533  34.609  0.00  0.00     0.031 A 
ATOM     12  C   UNL d   1      55.152   0.678  34.591  0.00  0.00     0.002 A 
ATOM     13  C   UNL d   1      54.698   0.436  33.944  0.00  0.00     0.002 A 
ATOM     14  C   UNL d   1      55.061   0.048  33.313  0.00  0.00     0.020 A 
ENDBRANCH   1   8
TORSDOF 1
ENDMDL
MODEL 3
REMARK VINA RESULT:      -4.8      0.149      1.258
REMARK  1 active torsions:
REMARK  status: ('A' for Active; 'I' for Inactive)
REMARK    1  A    between atoms: C_4  and  N_1 
ROOT
ATOM      1  N   UNL d   1      55.947   0.260  33.673  0.00  0.00    -0.240 N 
ATOM      2  C   UNL d   1      55.140   0.331  33.848  0.00  0.00     0.267 A 
ATOM      3  C   UNL d   1      56.369   0.480  34.353  0.00  0.00     0.267 A 
ATOM      4  C   UNL d   1      55.825   0.682  34.937  0.00  0.00     0.066 A 
ATOM      5  C   UNL d   1      55.065   0.592  34.629  0.00  0.00     0.066 A 
ATOM      6  O   UNL d   1      54.516   0.168  33.326  0.00  0.00    -0.267 OA
ATOM      7  O   UNL d   1      57.191   0.489  34.420  0.00  0.00    -0.267 OA
ENDROOT
BRANCH   1   8
ATOM      8  C   UNL d   1      56.271   0.017  32.954  0.00  0.00     0.097 A 
ATOM      9  C   UNL d   1      56.310  -0.787  32.775  0.00  0.00     0.156 A 
ATOM     10  F   UNL d   1      56.024  -1.345  33.315  0.00  0.00    -0.203 F 
ATOM     11  C   UNL d   1      56.634  -1.035  32.058  0.00  0.00     0.031 A 
ATOM     12  C   UNL d   1      56.917  -0.470  31.525  0.00  0.00     0.002 A 
ATOM     13  C   UNL d   1      56.876   0.335  31.708  0.00  0.00     0.002 A 
ATOM     14  C   UNL d   1      56.551   0.574  32.428  0.00  0.00     0.020 A 
ENDBRANCH   1   8
TORSDOF 1
ENDMDL
MODEL 4
REMARK VINA RESULT:      -4.6      1.551      2.610
REMARK  1 active torsions:
REMARK  status: ('A' for Active; 'I' for Inactive)
REMARK    1  A    between atoms: C_4  and  N_1 
ROOT
ATOM      1  N   UNL d   1      57.239   0.293  32.066  0.00  0.00    -0.240 N 
ATOM      2  C   UNL d   1      57.962   0.531  32.393  0.00  0.00     0.267 A 
ATOM      3  C   UNL d   1      57.326   0.297  31.240  0.00  0.00     0.267 A 
ATOM      4  C   UNL d   1      58.095   0.535  31.066  0.00  0.00     0.066 A 
ATOM      5  C   UNL d   1      58.491   0.681  31.775  0.00  0.00     0.066 A 
ATOM      6  O   UNL d   1      58.125   0.606  33.203  0.00  0.00    -0.267 OA
ATOM      7  O   UNL d   1      56.738   0.095  30.699  0.00  0.00    -0.267 OA
ENDROOT
BRANCH   1   8
ATOM      8  C   UNL d   1      56.557   0.090  32.483  0.00  0.00     0.097 A 
ATOM      9  C   UNL d   1      56.375  -0.704  32.606  0.00  0.00     0.156 A 
ATOM     10  F   UNL d   1      56.875  -1.293  32.311  0.00  0.00    -0.203 F 
ATOM     11  C   UNL d   1      55.694  -0.912  33.023  0.00  0.00     0.031 A 
ATOM     12  C   UNL d   1      55.200  -0.316  33.314  0.00  0.00     0.002 A 
ATOM     13  C   UNL d   1      55.386   0.479  33.189  0.00  0.00     0.002 A 
ATOM     14  C   UNL d   1      56.069   0.678  32.771  0.00  0.00     0.020 A 
ENDBRANCH   1   8
TORSDOF 1
ENDMDL
MODEL 5
REMARK VINA RESULT:      -4.2      1.406      1.967
REMARK  1 active torsions:
REMARK  status: ('A' for Active; 'I' for Inactive)
REMARK    1  A    between atoms: C_4  and  N_1 
ROOT
ATOM      1  N   UNL d   1      56.236  -0.486  32.711  0.00  0.00    -0.240 N 
ATOM      2  C   UNL d   1      55.588  -0.133  33.087  0.00  0.00     0.267 A 
ATOM      3  C   UNL d   1      56.172  -1.306  32.824  0.00  0.00     0.267 A 
ATOM      4  C   UNL d   1      55.493  -1.451  33.265  0.00  0.00     0.066 A 
ATOM      5  C   UNL d   1      55.129  -0.729  33.430  0.00  0.00     0.066 A 
ATOM      6  O   UNL d   1      55.430   0.682  33.114  0.00  0.00    -0.267 OA
ATOM      7  O   UNL d   1      56.704  -1.868  32.539  0.00  0.00    -0.267 OA
ENDROOT
BRANCH   1   8
ATOM      8  C   UNL d   1      56.835  -0.096  32.299  0.00  0.00     0.097 A 
ATOM      9  C   UNL d   1      57.438   0.281  32.714  0.00  0.00     0.156 A 
ATOM     10  F   UNL d   1      57.442   0.267  33.542  0.00  0.00    -0.203 F 
ATOM     11  C   UNL d   1      58.039   0.673  32.307  0.00  0.00     0.031 A 
ATOM     12  C   UNL d   1      58.027   0.682  31.480  0.00  0.00     0.002 A 
ATOM     13  C   UNL d   1      57.421   0.303  31.067  0.00  0.00     0.002 A 
ATOM     14  C   UNL d   1      56.824  -0.086  31.482  0.00  0.00     0.020 A 
ENDBRANCH   1   8
TORSDOF 1
ENDMDL
MODEL 6
REMARK VINA RESULT:      -3.4      1.417      2.725
REMARK  1 active torsions:
REMARK  status: ('A' for Active; 'I' for Inactive)
REMARK    1  A    between atoms: C_4  and  N_1 
ROOT
ATOM      1  N   UNL d   1      57.114   0.279  32.272  0.00  0.00    -0.240 N 
ATOM      2  C   UNL d   1      57.226   0.237  31.452  0.00  0.00     0.267 A 
ATOM      3  C   UNL d   1      57.823   0.556  32.605  0.00  0.00     0.267 A 
ATOM      4  C   UNL d   1      58.359   0.682  31.994  0.00  0.00     0.066 A 
ATOM      5  C   UNL d   1      57.995   0.486  31.280  0.00  0.00     0.066 A 
ATOM      6  O   UNL d   1      56.659  -0.013  30.899  0.00  0.00    -0.267 OA
ATOM      7  O   UNL d   1      57.953   0.680  33.410  0.00  0.00    -0.267 OA
ENDROOT
BRANCH   1   8
ATOM      8  C   UNL d   1      56.427   0.081  32.683  0.00  0.00     0.097 A 
ATOM      9  C   UNL d   1      56.261  -0.709  32.845  0.00  0.00     0.156 A 
ATOM     10  F   UNL d   1      56.783  -1.301  32.596  0.00  0.00    -0.203 F 
ATOM     11  C   UNL d   1      55.574  -0.911  33.256  0.00  0.00     0.031 A 
ATOM     12  C   UNL d   1      55.059  -0.314  33.501  0.00  0.00     0.002 A 
ATOM     13  C   UNL d   1      55.228   0.478  33.336  0.00  0.00     0.002 A 
ATOM     14  C   UNL d   1      55.917   0.672  32.925  0.00  0.00     0.020 A 
ENDBRANCH   1   8
TORSDOF 1
ENDMDL
MODEL 7
REMARK VINA RESULT:      -3.1      9.539     10.240
REMARK  1 active torsions:
REMARK  status: ('A' for Active; 'I' for Inactive)
REMARK    1  A    between atoms: C_4  and  N_1 
ROOT
ATOM      1  N   UNL d   1      59.709  -9.225  34.253  0.00  0.00    -0.240 N 
ATOM      2  C   UNL d   1      58.987  -9.626  34.192  0.00  0.00     0.267 A 
ATOM      3  C   UNL d   1      60.019  -9.154  33.486  0.00  0.00     0.267 A 
ATOM      4  C   UNL d   1      59.490  -9.507  32.964  0.00  0.00     0.066 A 
ATOM      5  C   UNL d   1      58.851  -9.800  33.396  0.00  0.00     0.066 A 
ATOM      6  O   UNL d   1      58.486  -9.818  34.826  0.00  0.00    -0.267 OA
ATOM      7  O   UNL d   1      60.733  -8.790  33.294  0.00  0.00    -0.267 OA
ENDROOT
BRANCH   1   8
ATOM      8  C   UNL d   1      60.058  -8.948  34.948  0.00  0.00     0.097 A 
ATOM      9  C   UNL d   1      59.865  -8.198  35.231  0.00  0.00     0.156 A 
ATOM     10  F   UNL d   1      59.324  -7.727  34.818  0.00  0.00    -0.203 F 
ATOM     11  C   UNL d   1      60.211  -7.917  35.925  0.00  0.00     0.031 A 
ATOM     12  C   UNL d   1      60.750  -8.394  36.330  0.00  0.00     0.002 A 
ATOM     13  C   UNL d   1      60.941  -9.145  36.044  0.00  0.00     0.002 A 
ATOM     14  C   UNL d   1      60.591  -9.419  35.349  0.00  0.00     0.020 A 
ENDBRANCH   1   8
TORSDOF 1
ENDMDL
MODEL 8
REMARK VINA RESULT:      -3.0      9.152      9.899
REMARK  1 active torsions:
REMARK  status: ('A' for Active; 'I' for Inactive)
REMARK    1  A    between atoms: C_4  and  N_1 
ROOT
ATOM      1  N   UNL d   1      60.011  -8.541  35.165  0.00  0.00    -0.240 N 
ATOM      2  C   UNL d   1      59.710  -7.800  35.380  0.00  0.00     0.267 A 
ATOM      3  C   UNL d   1      60.542  -8.776  35.759  0.00  0.00     0.267 A 
ATOM      4  C   UNL d   1      60.564  -8.183  36.330  0.00  0.00     0.066 A 
ATOM      5  C   UNL d   1      60.052  -7.578  36.100  0.00  0.00     0.066 A 
ATOM      6  O   UNL d   1      59.160  -7.356  34.945  0.00  0.00    -0.267 OA
ATOM      7  O   UNL d   1      60.967  -9.482  35.764  0.00  0.00    -0.267 OA
ENDROOT
BRANCH   1   8
ATOM      8  C   UNL d   1      59.819  -8.968  34.486  0.00  0.00     0.097 A 
ATOM      9  C   UNL d   1      60.336  -8.969  33.844  0.00  0.00     0.156 A 
ATOM     10  F   UNL d   1      61.044  -8.543  33.883  0.00  0.00    -0.203 F 
ATOM     11  C   UNL d   1      60.148  -9.395  33.163  0.00  0.00     0.031 A 
ATOM     12  C   UNL d   1      59.438  -9.818  33.134  0.00  0.00     0.002 A 
ATOM     13  C   UNL d   1      58.922  -9.815  33.779  0.00  0.00     0.002 A 
ATOM     14  C   UNL d   1      59.118  -9.386  34.456  0.00  0.00     0.020 A 
ENDBRANCH   1   8
TORSDOF 1
ENDMDL
MODEL 9
REMARK VINA RESULT:      -3.0      3.384      4.630
REMARK  1 active torsions:
REMARK  status: ('A' for Active; 'I' for Inactive)
REMARK    1  A    between atoms: C_4  and  N_1 
ROOT
ATOM      1  N   UNL d   1      58.663   0.275  29.760  0.00  0.00    -0.240 N 
ATOM      2  C   UNL d   1      59.475   0.397  29.866  0.00  0.00     0.267 A 
ATOM      3  C   UNL d   1      58.499   0.380  28.952  0.00  0.00     0.267 A 
ATOM      4  C   UNL d   1      59.205   0.563  28.571  0.00  0.00     0.066 A 
ATOM      5  C   UNL d   1      59.811   0.575  29.132  0.00  0.00     0.066 A 
ATOM      6  O   UNL d   1      59.881   0.348  30.589  0.00  0.00    -0.267 OA
ATOM      7  O   UNL d   1      57.755   0.309  28.605  0.00  0.00    -0.267 OA
ENDROOT
BRANCH   1   8
ATOM      8  C   UNL d   1      58.116   0.085  30.347  0.00  0.00     0.097 A 
ATOM      9  C   UNL d   1      57.926  -0.704  30.489  0.00  0.00     0.156 A 
ATOM     10  F   UNL d   1      58.285  -1.302  30.043  0.00  0.00    -0.203 F 
ATOM     11  C   UNL d   1      57.380  -0.900  31.076  0.00  0.00     0.031 A 
ATOM     12  C   UNL d   1      57.027  -0.296  31.516  0.00  0.00     0.002 A 
ATOM     13  C   UNL d   1      57.219   0.494  31.371  0.00  0.00     0.002 A 
ATOM     14  C   UNL d   1      57.766   0.681  30.783  0.00  0.00     0.020 A 
ENDBRANCH   1   8
TORSDOF 1
ENDMDL
