MODEL 1
REMARK VINA RESULT:      37.4      0.000      0.000
REMARK  5 active torsions:
REMARK  status: ('A' for Active; 'I' for Inactive)
REMARK    1  A    between atoms: C_10  and  C_4 
REMARK    2  A    between atoms: N_11  and  C_7 
REMARK    3  A    between atoms: C_13  and  N_11 
REMARK    4  A    between atoms: C_15  and  C_13 
REMARK    5  A    between atoms: O_25  and  C_17 
ROOT
ATOM      1  C   UNL d   1      46.217 -18.770  42.112  0.00  0.00     0.186 A 
ATOM      2  N   UNL d   1      46.315 -19.503  42.506  0.00  0.00    -0.193 N 
ATOM      3  N   UNL d   1      46.233 -18.068  42.553  0.00  0.00    -0.206 NA
ATOM      4  C   UNL d   1      46.119 -18.932  41.305  0.00  0.00     0.140 A 
ATOM      5  N   UNL d   1      46.276 -20.107  41.937  0.00  0.00    -0.058 NA
ATOM      6  N   UNL d   1      46.155 -19.750  41.199  0.00  0.00    -0.127 NA
ATOM      7  C   UNL d   1      46.343 -18.082  43.369  0.00  0.00     0.166 A 
ATOM      8  C   UNL d   1      46.439 -18.813  43.750  0.00  0.00     0.054 A 
ATOM      9  C   UNL d   1      46.425 -19.518  43.323  0.00  0.00     0.089 A 
ATOM     10  C   UNL d   1      46.549 -18.827  44.565  0.00  0.00     0.005 A 
ATOM     11  C   UNL d   1      46.521 -20.238  43.710  0.00  0.00     0.019 A 
ATOM     12  C   UNL d   1      46.646 -19.548  44.953  0.00  0.00     0.000 A 
ATOM     13  C   UNL d   1      46.632 -20.252  44.526  0.00  0.00     0.002 A 
ENDROOT
BRANCH   7  14
ATOM     14  N   UNL d   1      46.359 -17.384  43.807  0.00  0.00    -0.225 NA
BRANCH  14  15
ATOM     15  C   UNL d   1      45.648 -17.040  44.056  0.00  0.00     0.101 C 
BRANCH  15  16
ATOM     16  C   UNL d   1      45.618 -16.243  44.266  0.00  0.00     0.019 A 
ATOM     17  C   UNL d   1      46.200 -15.724  44.000  0.00  0.00     0.004 A 
ATOM     18  C   UNL d   1      46.170 -14.927  44.210  0.00  0.00     0.024 A 
ATOM     19  C   UNL d   1      45.548 -14.650  44.692  0.00  0.00     0.094 A 
ATOM     20  C   UNL d   1      44.967 -15.181  44.954  0.00  0.00     0.024 A 
ATOM     21  C   UNL d   1      45.007 -15.976  44.738  0.00  0.00     0.004 A 
BRANCH  19  22
ATOM     22  O   UNL d   1      45.515 -13.854  44.904  0.00  0.00    -0.328 OA
ATOM     23  C   UNL d   1      45.682 -13.273  44.339  0.00  0.00     0.181 C 
ENDBRANCH  19  22
ENDBRANCH  15  16
ENDBRANCH  14  15
ENDBRANCH   7  14
BRANCH   4  24
ATOM     24  C   UNL d   1      46.006 -18.369  40.721  0.00  0.00     0.025 A 
ATOM     25  C   UNL d   1      45.246 -18.229  40.435  0.00  0.00     0.031 A 
ATOM     26  C   UNL d   1      45.124 -17.660  39.842  0.00  0.00     0.140 A 
ATOM     27  F   UNL d   1      44.365 -17.519  39.556  0.00  0.00    -0.204 F 
ATOM     28  C   UNL d   1      45.769 -17.238  39.544  0.00  0.00     0.030 A 
ATOM     29  C   UNL d   1      46.532 -17.387  39.839  0.00  0.00     0.002 A 
ATOM     30  C   UNL d   1      46.646 -17.949  40.424  0.00  0.00     0.002 A 
ENDBRANCH   4  24
TORSDOF 5
ENDMDL
