MODEL 1
REMARK VINA RESULT:      22.0      0.000      0.000
REMARK  4 active torsions:
REMARK  status: ('A' for Active; 'I' for Inactive)
REMARK    1  A    between atoms: C_2  and  S_1 
REMARK    2  A    between atoms: N_5  and  S_1 
REMARK    3  A    between atoms: C_10  and  N_5 
REMARK    4  A    between atoms: C_11  and  C_10 
ROOT
ATOM      1  S   UNL d   1     -56.903 -98.763 -44.240  0.00  0.00     0.291 S 
ATOM      2  O   UNL d   1     -56.923 -98.757 -43.415  0.00  0.00    -0.198 OA
ATOM      3  O   UNL d   1     -56.887 -98.768 -45.065  0.00  0.00    -0.198 OA
ENDROOT
BRANCH   1   4
ATOM      4  C   UNL d   1     -57.728 -98.764 -44.264  0.00  0.00     0.135 A 
ATOM      5  S   UNL d   1     -58.195 -98.757 -44.935  0.00  0.00    -0.074 SA
ATOM      6  C   UNL d   1     -58.985 -98.762 -44.702  0.00  0.00     0.030 A 
ATOM      7  C   UNL d   1     -59.647 -98.758 -45.198  0.00  0.00     0.007 C 
ATOM      8  C   UNL d   1     -59.004 -98.773 -43.877  0.00  0.00     0.008 A 
ATOM      9  C   UNL d   1     -58.228 -98.774 -43.605  0.00  0.00     0.020 A 
ENDBRANCH   1   4
BRANCH   1  10
ATOM     10  N   UNL d   1     -56.087 -98.761 -44.228  0.00  0.00    -0.156 NA
BRANCH  10  11
ATOM     11  C   UNL d   1     -55.666 -99.232 -44.756  0.00  0.00     0.112 C 
BRANCH  11  12
ATOM     12  C   UNL d   1     -55.429 -99.990 -44.535  0.00  0.00     0.020 A 
ATOM     13  C   UNL d   1     -55.659-100.645 -44.992  0.00  0.00     0.002 A 
ATOM     14  C   UNL d   1     -55.422-101.404 -44.770  0.00  0.00     0.000 A 
ATOM     15  C   UNL d   1     -54.956-101.508 -44.091  0.00  0.00     0.000 A 
ATOM     16  C   UNL d   1     -54.730-100.853 -43.641  0.00  0.00     0.000 A 
ATOM     17  C   UNL d   1     -54.719-102.266 -43.870  0.00  0.00     0.000 C 
ATOM     18  C   UNL d   1     -54.967-100.095 -43.863  0.00  0.00     0.002 A 
ENDBRANCH  11  12
ENDBRANCH  10  11
ENDBRANCH   1  10
TORSDOF 4
ENDMDL
