MODEL 1
REMARK VINA RESULT:      22.5      0.000      0.000
REMARK  3 active torsions:
REMARK  status: ('A' for Active; 'I' for Inactive)
REMARK    1  A    between atoms: C_6  and  C_1 
REMARK    2  A    between atoms: C_7  and  C_4 
REMARK    3  A    between atoms: O_14  and  C_6 
ROOT
ATOM      1  C   UNL d   1      57.503  49.496  50.034  0.00  0.00     0.167 A 
ATOM      2  C   UNL d   1      57.697  49.660  50.824  0.00  0.00     0.047 A 
ATOM      3  N   UNL d   1      58.874  49.328  49.730  0.00  0.00    -0.148 NA
ATOM      4  C   UNL d   1      59.071  49.491  50.515  0.00  0.00     0.105 A 
ATOM      5  N   UNL d   1      58.092  49.329  49.484  0.00  0.00    -0.143 NA
ENDROOT
BRANCH   4   6
ATOM      6  C   UNL d   1      59.772  49.537  50.945  0.00  0.00     0.019 A 
ATOM      7  C   UNL d   1      60.487  49.643  50.546  0.00  0.00     0.002 A 
ATOM      8  C   UNL d   1      61.188  49.689  50.975  0.00  0.00     0.000 A 
ATOM      9  C   UNL d   1      60.503  49.701  49.729  0.00  0.00     0.000 C 
ATOM     10  C   UNL d   1      61.174  49.630  51.803  0.00  0.00     0.000 A 
ATOM     11  C   UNL d   1      60.456  49.525  52.192  0.00  0.00     0.000 A 
ATOM     12  C   UNL d   1      61.879  49.677  52.231  0.00  0.00     0.000 C 
ATOM     13  C   UNL d   1      59.757  49.479  51.768  0.00  0.00     0.002 A 
ENDBRANCH   4   6
BRANCH   1  14
ATOM     14  C   UNL d   1      56.709  49.500  49.800  0.00  0.00     0.316 C 
ATOM     15  O   UNL d   1      56.511  49.299  49.028  0.00  0.00    -0.257 OA
BRANCH  14  16
ATOM     16  O   UNL d   1      56.124  49.704  50.335  0.00  0.00    -0.294 OA
ATOM     17  C   UNL d   1      56.129  49.375  51.127  0.00  0.00     0.185 C 
ENDBRANCH  14  16
ENDBRANCH   1  14
TORSDOF 3
ENDMDL
