MODEL 1
REMARK VINA RESULT:      88.2      0.000      0.000
REMARK  6 active torsions:
REMARK  status: ('A' for Active; 'I' for Inactive)
REMARK    1  A    between atoms: N_2  and  S_1 
REMARK    2  A    between atoms: C_6  and  S_1 
REMARK    3  A    between atoms: N_4  and  C_3 
REMARK       I    between atoms: C_5  and  N_4 
REMARK       I    between atoms: N_10  and  C_5 
REMARK    4  A    between atoms: C_7  and  C_11 
REMARK    5  A    between atoms: O_20  and  C_7 
REMARK    6  A    between atoms: C_14  and  N_10 
ROOT
ATOM      1  N   UNL d   1     -59.128 -98.997 -44.635  0.00  0.00    -0.214 N 
ATOM      2  C   UNL d   1     -58.527 -99.187 -45.178  0.00  0.00     0.162 A 
ATOM      3  C   UNL d   1     -59.799 -98.770 -45.069  0.00  0.00     0.093 A 
ATOM      4  C   UNL d   1     -58.827 -99.077 -45.944  0.00  0.00     0.040 A 
ATOM      5  C   UNL d   1     -59.603 -98.823 -45.875  0.00  0.00     0.023 A 
ENDROOT
BRANCH   2   6
ATOM      6  N   UNL d   1     -57.755 -99.444 -44.977  0.00  0.00    -0.173 NA
ATOM      7  C   UNL d   1     -57.412-100.064 -45.394  0.00  0.00     0.370 C 
ATOM      8  N   UNL d   1     -56.648-100.319 -45.197  0.00  0.00    -0.191 NA
ATOM      9  O   UNL d   1     -57.819-100.437 -46.010  0.00  0.00    -0.242 OA
BRANCH   8  10
ATOM     10  C   UNL d   1     -56.236 -99.953 -44.585  0.00  0.00     0.086 A 
ATOM     11  C   UNL d   1     -55.805-100.408 -44.049  0.00  0.00     0.025 A 
ATOM     12  C   UNL d   1     -55.393-100.042 -43.436  0.00  0.00     0.065 A 
ATOM     13  C   UNL d   1     -55.412 -99.217 -43.361  0.00  0.00     0.005 A 
ATOM     14  C   UNL d   1     -55.843 -98.766 -43.899  0.00  0.00     0.002 A 
ATOM     15  C   UNL d   1     -56.255 -99.132 -44.511  0.00  0.00     0.019 A 
BRANCH  12  16
ATOM     16  C   UNL d   1     -54.963-100.505 -42.902  0.00  0.00     0.296 C 
ATOM     17  O   UNL d   1     -54.780-101.281 -43.075  0.00  0.00    -0.259 OA
BRANCH  16  18
ATOM     18  O   UNL d   1     -54.719-100.171 -42.186  0.00  0.00    -0.296 OA
ATOM     19  C   UNL d   1     -55.261-100.012 -41.594  0.00  0.00     0.185 C 
ENDBRANCH  16  18
ENDBRANCH  12  16
ENDBRANCH   8  10
ENDBRANCH   2   6
BRANCH   1  20
ATOM     20  S   UNL d   1     -59.160 -98.998 -43.814  0.00  0.00     0.272 S 
ATOM     21  O   UNL d   1     -59.928 -99.220 -43.815  0.00  0.00    -0.200 OA
ATOM     22  O   UNL d   1     -58.373 -98.770 -43.774  0.00  0.00    -0.200 OA
BRANCH  20  23
ATOM     23  C   UNL d   1     -59.203 -99.002 -42.980  0.00  0.00     0.104 A 
ATOM     24  C   UNL d   1     -59.902 -99.221 -42.603  0.00  0.00     0.014 A 
ATOM     25  C   UNL d   1     -59.936 -99.223 -41.788  0.00  0.00     0.012 A 
ATOM     26  C   UNL d   1     -59.274 -99.005 -41.333  0.00  0.00     0.058 A 
ATOM     27  C   UNL d   1     -58.577 -98.786 -41.709  0.00  0.00     0.012 A 
ATOM     28 CL   UNL d   1     -59.313 -99.008 -40.506  0.00  0.00    -0.082 Cl
ATOM     29  C   UNL d   1     -58.537 -98.783 -42.542  0.00  0.00     0.014 A 
ENDBRANCH  20  23
ENDBRANCH   1  20
TORSDOF 6
ENDMDL
