MODEL 1
REMARK VINA RESULT:      67.1      0.000      0.000
REMARK  4 active torsions:
REMARK  status: ('A' for Active; 'I' for Inactive)
REMARK    1  A    between atoms: S_3  and  N_1 
REMARK    2  A    between atoms: C_7  and  C_4 
REMARK    3  A    between atoms: C_10  and  C_5 
REMARK    4  A    between atoms: C_21  and  C_20 
ROOT
ATOM      1  N   UNL d   1     -47.847  29.569  35.394  0.00  0.00    -0.155 N 
ATOM      2  N   UNL d   1     -48.134  28.787  35.347  0.00  0.00    -0.153 NA
ATOM      3  C   UNL d   1     -48.611  28.741  34.679  0.00  0.00     0.126 A 
ATOM      4  C   UNL d   1     -48.148  29.983  34.764  0.00  0.00     0.096 A 
ATOM      5  C   UNL d   1     -48.610  29.494  34.325  0.00  0.00     0.043 A 
ENDROOT
BRANCH   4   6
ATOM      6  C   UNL d   1     -48.000  30.778  34.603  0.00  0.00     0.018 A 
ATOM      7  C   UNL d   1     -48.593  31.278  34.283  0.00  0.00     0.002 A 
ATOM      8  C   UNL d   1     -48.445  32.073  34.122  0.00  0.00     0.000 A 
ATOM      9  C   UNL d   1     -47.705  32.370  34.281  0.00  0.00     0.000 A 
ATOM     10  C   UNL d   1     -47.112  31.920  34.587  0.00  0.00     0.000 A 
ATOM     11  C   UNL d   1     -47.260  31.125  34.748  0.00  0.00     0.002 A 
BRANCH   9  12
ATOM     12  C   UNL d   1     -47.557  33.165  34.120  0.00  0.00     0.000 C 
ATOM     13  C   UNL d   1     -47.781  33.488  33.394  0.00  0.00     0.000 C 
ENDBRANCH   9  12
ENDBRANCH   4   6
BRANCH   1  14
ATOM     14  S   UNL d   1     -47.346  29.828  35.998  0.00  0.00     0.266 S 
ATOM     15  O   UNL d   1     -48.005  29.995  36.473  0.00  0.00    -0.203 OA
ATOM     16  O   UNL d   1     -46.680  29.671  35.550  0.00  0.00    -0.203 OA
ATOM     17  C   UNL d   1     -46.871  30.091  36.616  0.00  0.00     0.165 C 
ENDBRANCH   1  14
BRANCH   3  18
ATOM     18  C   UNL d   1     -49.017  28.073  34.406  0.00  0.00     0.119 A 
ATOM     19  O   UNL d   1     -48.877  27.316  34.680  0.00  0.00    -0.304 OA
ATOM     20  C   UNL d   1     -49.408  26.813  34.255  0.00  0.00     0.123 A 
ATOM     21  C   UNL d   1     -49.842  27.289  33.746  0.00  0.00     0.029 A 
ATOM     22  C   UNL d   1     -49.608  28.056  33.832  0.00  0.00     0.028 A 
ENDBRANCH   3  18
TORSDOF 4
ENDMDL
MODEL 2
REMARK VINA RESULT:      67.8      4.673      6.038
REMARK  4 active torsions:
REMARK  status: ('A' for Active; 'I' for Inactive)
REMARK    1  A    between atoms: S_3  and  N_1 
REMARK    2  A    between atoms: C_7  and  C_4 
REMARK    3  A    between atoms: C_10  and  C_5 
REMARK    4  A    between atoms: C_21  and  C_20 
ROOT
ATOM      1  N   UNL d   1     -51.469  25.850  34.001  0.00  0.00    -0.155 N 
ATOM      2  N   UNL d   1     -52.256  25.577  33.957  0.00  0.00    -0.153 NA
ATOM      3  C   UNL d   1     -52.232  24.797  33.699  0.00  0.00     0.126 A 
ATOM      4  C   UNL d   1     -50.983  25.241  33.773  0.00  0.00     0.096 A 
ATOM      5  C   UNL d   1     -51.431  24.601  33.588  0.00  0.00     0.043 A 
ENDROOT
BRANCH   4   6
ATOM      6  C   UNL d   1     -50.159  25.278  33.738  0.00  0.00     0.018 A 
ATOM      7  C   UNL d   1     -49.679  24.692  34.096  0.00  0.00     0.002 A 
ATOM      8  C   UNL d   1     -48.855  24.729  34.060  0.00  0.00     0.000 A 
ATOM      9  C   UNL d   1     -48.511  25.352  33.668  0.00  0.00     0.000 A 
ATOM     10  C   UNL d   1     -48.941  25.933  33.313  0.00  0.00     0.000 A 
ATOM     11  C   UNL d   1     -49.765  25.896  33.348  0.00  0.00     0.002 A 
BRANCH   9  12
ATOM     12  C   UNL d   1     -47.689  25.389  33.632  0.00  0.00     0.000 C 
ATOM     13  C   UNL d   1     -47.273  25.861  34.168  0.00  0.00     0.000 C 
ENDBRANCH   9  12
ENDBRANCH   4   6
BRANCH   1  14
ATOM     14  S   UNL d   1     -51.272  26.615  34.242  0.00  0.00     0.266 S 
ATOM     15  O   UNL d   1     -51.148  26.340  35.014  0.00  0.00    -0.203 OA
ATOM     16  O   UNL d   1     -51.387  26.911  33.488  0.00  0.00    -0.203 OA
ATOM     17  C   UNL d   1     -51.071  27.366  34.509  0.00  0.00     0.165 C 
ENDBRANCH   1  14
BRANCH   3  18
ATOM     18  C   UNL d   1     -52.880  24.297  33.572  0.00  0.00     0.119 A 
ATOM     19  O   UNL d   1     -52.836  23.483  33.619  0.00  0.00    -0.304 OA
ATOM     20  C   UNL d   1     -53.615  23.198  33.451  0.00  0.00     0.123 A 
ATOM     21  C   UNL d   1     -54.090  23.852  33.311  0.00  0.00     0.029 A 
ATOM     22  C   UNL d   1     -53.649  24.523  33.383  0.00  0.00     0.028 A 
ENDBRANCH   3  18
TORSDOF 4
ENDMDL
MODEL 3
REMARK VINA RESULT:      67.9      1.146      3.901
REMARK  4 active torsions:
REMARK  status: ('A' for Active; 'I' for Inactive)
REMARK    1  A    between atoms: S_3  and  N_1 
REMARK    2  A    between atoms: C_7  and  C_4 
REMARK    3  A    between atoms: C_10  and  C_5 
REMARK    4  A    between atoms: C_21  and  C_20 
ROOT
ATOM      1  N   UNL d   1     -47.419  30.918  35.363  0.00  0.00    -0.155 N 
ATOM      2  N   UNL d   1     -47.286  31.712  35.144  0.00  0.00    -0.153 NA
ATOM      3  C   UNL d   1     -47.691  31.844  34.442  0.00  0.00     0.126 A 
ATOM      4  C   UNL d   1     -47.895  30.582  34.799  0.00  0.00     0.096 A 
ATOM      5  C   UNL d   1     -48.067  31.130  34.237  0.00  0.00     0.043 A 
ENDROOT
BRANCH   4   6
ATOM      6  C   UNL d   1     -48.160  29.800  34.804  0.00  0.00     0.018 A 
ATOM      7  C   UNL d   1     -48.874  29.577  34.426  0.00  0.00     0.002 A 
ATOM      8  C   UNL d   1     -49.138  28.795  34.431  0.00  0.00     0.000 A 
ATOM      9  C   UNL d   1     -48.689  28.236  34.815  0.00  0.00     0.000 A 
ATOM     10  C   UNL d   1     -47.999  28.415  35.189  0.00  0.00     0.000 A 
ATOM     11  C   UNL d   1     -47.734  29.196  35.183  0.00  0.00     0.002 A 
BRANCH   9  12
ATOM     12  C   UNL d   1     -48.953  27.456  34.821  0.00  0.00     0.000 C 
ATOM     13  C   UNL d   1     -49.443  27.181  34.215  0.00  0.00     0.000 C 
ENDBRANCH   9  12
ENDBRANCH   4   6
BRANCH   1  14
ATOM     14  S   UNL d   1     -47.097  30.581  36.045  0.00  0.00     0.266 S 
ATOM     15  O   UNL d   1     -47.680  30.953  36.503  0.00  0.00    -0.203 OA
ATOM     16  O   UNL d   1     -46.512  30.203  35.617  0.00  0.00    -0.203 OA
ATOM     17  C   UNL d   1     -46.799  30.259  36.741  0.00  0.00     0.165 C 
ENDBRANCH   1  14
BRANCH   3  18
ATOM     18  C   UNL d   1     -47.722  32.552  34.013  0.00  0.00     0.119 A 
ATOM     19  O   UNL d   1     -47.065  32.914  33.690  0.00  0.00    -0.304 OA
ATOM     20  C   UNL d   1     -47.348  33.612  33.306  0.00  0.00     0.123 A 
ATOM     21  C   UNL d   1     -48.161  33.639  33.415  0.00  0.00     0.029 A 
ATOM     22  C   UNL d   1     -48.395  32.997  33.844  0.00  0.00     0.028 A 
ENDBRANCH   3  18
TORSDOF 4
ENDMDL
MODEL 4
REMARK VINA RESULT:      68.5      2.892      4.098
REMARK  4 active torsions:
REMARK  status: ('A' for Active; 'I' for Inactive)
REMARK    1  A    between atoms: S_3  and  N_1 
REMARK    2  A    between atoms: C_7  and  C_4 
REMARK    3  A    between atoms: C_10  and  C_5 
REMARK    4  A    between atoms: C_21  and  C_20 
ROOT
ATOM      1  N   UNL d   1     -50.737  27.245  33.589  0.00  0.00    -0.155 N 
ATOM      2  N   UNL d   1     -51.126  26.543  33.357  0.00  0.00    -0.153 NA
ATOM      3  C   UNL d   1     -50.655  25.913  33.590  0.00  0.00     0.126 A 
ATOM      4  C   UNL d   1     -50.044  27.034  33.954  0.00  0.00     0.096 A 
ATOM      5  C   UNL d   1     -49.982  26.233  33.961  0.00  0.00     0.043 A 
ENDROOT
BRANCH   4   6
ATOM      6  C   UNL d   1     -49.492  27.562  34.267  0.00  0.00     0.018 A 
ATOM      7  C   UNL d   1     -49.723  28.183  34.781  0.00  0.00     0.002 A 
ATOM      8  C   UNL d   1     -49.171  28.710  35.094  0.00  0.00     0.000 A 
ATOM      9  C   UNL d   1     -48.388  28.618  34.893  0.00  0.00     0.000 A 
ATOM     10  C   UNL d   1     -48.132  28.034  34.403  0.00  0.00     0.000 A 
ATOM     11  C   UNL d   1     -48.683  27.506  34.090  0.00  0.00     0.002 A 
BRANCH   9  12
ATOM     12  C   UNL d   1     -47.837  29.145  35.206  0.00  0.00     0.000 C 
ATOM     13  C   UNL d   1     -47.085  28.879  35.417  0.00  0.00     0.000 C 
ENDBRANCH   9  12
ENDBRANCH   4   6
BRANCH   1  14
ATOM     14  S   UNL d   1     -51.047  27.997  33.447  0.00  0.00     0.266 S 
ATOM     15  O   UNL d   1     -51.813  27.683  33.453  0.00  0.00    -0.203 OA
ATOM     16  O   UNL d   1     -50.301  28.332  33.437  0.00  0.00    -0.203 OA
ATOM     17  C   UNL d   1     -51.382  28.735  33.306  0.00  0.00     0.165 C 
ENDBRANCH   1  14
BRANCH   3  18
ATOM     18  C   UNL d   1     -50.813  25.108  33.479  0.00  0.00     0.119 A 
ATOM     19  O   UNL d   1     -50.232  24.537  33.425  0.00  0.00    -0.304 OA
ATOM     20  C   UNL d   1     -50.636  23.802  33.314  0.00  0.00     0.123 A 
ATOM     21  C   UNL d   1     -51.441  23.964  33.306  0.00  0.00     0.029 A 
ATOM     22  C   UNL d   1     -51.555  24.756  33.406  0.00  0.00     0.028 A 
ENDBRANCH   3  18
TORSDOF 4
ENDMDL
MODEL 5
REMARK VINA RESULT:      69.7      2.939      6.003
REMARK  4 active torsions:
REMARK  status: ('A' for Active; 'I' for Inactive)
REMARK    1  A    between atoms: S_3  and  N_1 
REMARK    2  A    between atoms: C_7  and  C_4 
REMARK    3  A    between atoms: C_10  and  C_5 
REMARK    4  A    between atoms: C_21  and  C_20 
ROOT
ATOM      1  N   UNL d   1     -50.897  27.174  34.027  0.00  0.00    -0.155 N 
ATOM      2  N   UNL d   1     -50.348  27.781  34.190  0.00  0.00    -0.153 NA
ATOM      3  C   UNL d   1     -49.602  27.438  34.214  0.00  0.00     0.126 A 
ATOM      4  C   UNL d   1     -50.484  26.479  33.955  0.00  0.00     0.096 A 
ATOM      5  C   UNL d   1     -49.701  26.625  34.066  0.00  0.00     0.043 A 
ENDROOT
BRANCH   4   6
ATOM      6  C   UNL d   1     -50.817  25.742  33.793  0.00  0.00     0.018 A 
ATOM      7  C   UNL d   1     -50.370  25.035  33.858  0.00  0.00     0.002 A 
ATOM      8  C   UNL d   1     -50.703  24.298  33.696  0.00  0.00     0.000 A 
ATOM      9  C   UNL d   1     -51.484  24.267  33.470  0.00  0.00     0.000 A 
ATOM     10  C   UNL d   1     -51.942  24.924  33.397  0.00  0.00     0.000 A 
ATOM     11  C   UNL d   1     -51.609  25.661  33.559  0.00  0.00     0.002 A 
BRANCH   9  12
ATOM     12  C   UNL d   1     -51.817  23.530  33.308  0.00  0.00     0.000 C 
ATOM     13  C   UNL d   1     -52.626  23.410  33.417  0.00  0.00     0.000 C 
ENDBRANCH   9  12
ENDBRANCH   4   6
BRANCH   1  14
ATOM     14  S   UNL d   1     -51.709  27.308  33.960  0.00  0.00     0.266 S 
ATOM     15  O   UNL d   1     -51.573  27.802  33.309  0.00  0.00    -0.203 OA
ATOM     16  O   UNL d   1     -51.870  26.825  34.601  0.00  0.00    -0.203 OA
ATOM     17  C   UNL d   1     -52.513  27.460  33.871  0.00  0.00     0.165 C 
ENDBRANCH   1  14
BRANCH   3  18
ATOM     18  C   UNL d   1     -48.884  27.824  34.359  0.00  0.00     0.119 A 
ATOM     19  O   UNL d   1     -48.234  27.765  33.868  0.00  0.00    -0.304 OA
ATOM     20  C   UNL d   1     -47.631  28.241  34.222  0.00  0.00     0.123 A 
ATOM     21  C   UNL d   1     -47.945  28.564  34.908  0.00  0.00     0.029 A 
ATOM     22  C   UNL d   1     -48.706  28.314  34.997  0.00  0.00     0.028 A 
ENDBRANCH   3  18
TORSDOF 4
ENDMDL
