MODEL 1
REMARK VINA RESULT:      -0.1      0.000      0.000
REMARK  6 active torsions:
REMARK  status: ('A' for Active; 'I' for Inactive)
REMARK    1  A    between atoms: S_9  and  C_3 
REMARK    2  A    between atoms: C_11  and  C_4 
REMARK    3  A    between atoms: C_20  and  S_9 
REMARK    4  A    between atoms: C_12  and  C_20 
REMARK       I    between atoms: N_17  and  C_12 
REMARK    5  A    between atoms: C_25  and  N_17 
REMARK    6  A    between atoms: C_24  and  C_25 
ROOT
ATOM      1  N   UNL d   1     -43.133-122.336 -49.955  0.00  0.00    -0.263 N 
ATOM      2  C   UNL d   1     -43.857-122.120 -50.278  0.00  0.00     0.202 A 
ATOM      3  C   UNL d   1     -42.548-122.169 -50.511  0.00  0.00     0.202 A 
ATOM      4  C   UNL d   1     -43.273-122.634 -49.200  0.00  0.00     0.074 A 
ATOM      5  N   UNL d   1     -43.731-121.823 -51.028  0.00  0.00    -0.121 NA
ATOM      6  N   UNL d   1     -42.919-121.849 -51.183  0.00  0.00    -0.121 NA
ATOM      7  S   UNL d   1     -44.446-122.286 -49.724  0.00  0.00    -0.046 SA
ATOM      8  C   UNL d   1     -44.090-122.602 -49.060  0.00  0.00     0.056 A 
ENDROOT
BRANCH   3   9
ATOM      9  S   UNL d   1     -41.755-122.327 -50.346  0.00  0.00    -0.043 SA
BRANCH   9  10
ATOM     10  C   UNL d   1     -41.186-122.291 -50.946  0.00  0.00     0.101 C 
BRANCH  10  11
ATOM     11  C   UNL d   1     -41.167-122.871 -51.529  0.00  0.00     0.286 C 
ATOM     12  N   UNL d   1     -41.142-122.651 -52.331  0.00  0.00    -0.206 NA
ATOM     13  O   UNL d   1     -41.174-123.668 -51.317  0.00  0.00    -0.265 OA
BRANCH  12  14
ATOM     14  C   UNL d   1     -41.123-123.234 -52.920  0.00  0.00     0.102 C 
BRANCH  14  15
ATOM     15  C   UNL d   1     -41.343-123.044 -53.700  0.00  0.00     0.021 A 
ATOM     16  C   UNL d   1     -41.634-122.294 -53.897  0.00  0.00     0.028 A 
ATOM     17  C   UNL d   1     -41.845-122.127 -54.668  0.00  0.00     0.119 A 
ATOM     18  O   UNL d   1     -42.142-121.455 -55.027  0.00  0.00    -0.300 OA
ATOM     19  C   UNL d   1     -41.767-122.704 -55.248  0.00  0.00     0.119 A 
ATOM     20  C   UNL d   1     -42.251-121.597 -55.808  0.00  0.00     0.304 A 
ATOM     21  O   UNL d   1     -42.018-122.380 -55.955  0.00  0.00    -0.300 OA
ATOM     22  C   UNL d   1     -41.480-123.443 -55.050  0.00  0.00     0.026 A 
ATOM     23  C   UNL d   1     -41.267-123.609 -54.265  0.00  0.00     0.004 A 
ENDBRANCH  14  15
ENDBRANCH  12  14
ENDBRANCH  10  11
ENDBRANCH   9  10
ENDBRANCH   3   9
BRANCH   4  24
ATOM     24  C   UNL d   1     -42.732-122.925 -48.647  0.00  0.00     0.017 A 
ATOM     25  C   UNL d   1     -42.217-123.528 -48.849  0.00  0.00     0.002 A 
ATOM     26  C   UNL d   1     -41.680-123.817 -48.303  0.00  0.00     0.011 A 
ATOM     27  C   UNL d   1     -41.661-123.493 -47.536  0.00  0.00     0.058 A 
ATOM     28  C   UNL d   1     -42.181-122.884 -47.331  0.00  0.00     0.011 A 
ATOM     29 CL   UNL d   1     -41.123-123.777 -46.976  0.00  0.00    -0.082 Cl
ATOM     30  C   UNL d   1     -42.718-122.599 -47.888  0.00  0.00     0.002 A 
ENDBRANCH   4  24
TORSDOF 6
ENDMDL
