MODEL 1
REMARK VINA RESULT:      -0.7      0.000      0.000
REMARK  4 active torsions:
REMARK  status: ('A' for Active; 'I' for Inactive)
REMARK    1  A    between atoms: C_10  and  C_4 
REMARK       I    between atoms: N_11  and  C_10 
REMARK    2  A    between atoms: C_12  and  C_19 
REMARK    3  A    between atoms: O_26  and  C_12 
REMARK    4  A    between atoms: C_27  and  O_26 
ROOT
ATOM      1  C   UNL d   1      30.008  16.112 -24.166  0.00  0.00     0.154 A 
ATOM      2  C   UNL d   1      29.920  16.109 -23.348  0.00  0.00     0.093 A 
ATOM      3  N   UNL d   1      29.353  15.948 -24.654  0.00  0.00    -0.211 NA
ATOM      4  C   UNL d   1      31.193  16.401 -23.626  0.00  0.00     0.122 A 
ATOM      5  N   UNL d   1      30.791  16.292 -24.338  0.00  0.00    -0.285 N 
ATOM      6  C   UNL d   1      29.183  15.944 -23.008  0.00  0.00     0.269 A 
ATOM      7  N   UNL d   1      28.534  15.782 -23.486  0.00  0.00    -0.259 N 
ATOM      8  C   UNL d   1      28.616  15.783 -24.318  0.00  0.00     0.140 A 
ATOM      9  C   UNL d   1      30.649  16.287 -23.017  0.00  0.00     0.030 A 
ATOM     10  C   UNL d   1      27.799  15.617 -23.150  0.00  0.00     0.084 A 
ATOM     11  O   UNL d   1      29.098  15.942 -22.184  0.00  0.00    -0.266 OA
ATOM     12  C   UNL d   1      27.977  15.623 -24.796  0.00  0.00     0.064 A 
ATOM     13  C   UNL d   1      27.155  15.456 -23.636  0.00  0.00     0.018 A 
ATOM     14  C   UNL d   1      27.245  15.459 -24.467  0.00  0.00    -0.008 A 
ATOM     15  C   UNL d   1      31.119  16.352 -25.097  0.00  0.00     0.101 C 
ENDROOT
BRANCH   4  16
ATOM     16  C   UNL d   1      31.994  16.590 -23.539  0.00  0.00     0.281 C 
ATOM     17  N   UNL d   1      32.215  17.365 -23.365  0.00  0.00    -0.271 N 
ATOM     18  C   UNL d   1      31.644  17.952 -23.277  0.00  0.00     0.083 A 
ATOM     19  C   UNL d   1      33.016  17.554 -23.278  0.00  0.00     0.083 A 
ATOM     20  C   UNL d   1      31.870  18.722 -23.103  0.00  0.00     0.025 A 
ATOM     21  C   UNL d   1      32.671  18.912 -23.016  0.00  0.00     0.067 A 
ATOM     22  C   UNL d   1      33.241  18.329 -23.103  0.00  0.00     0.025 A 
ATOM     23  O   UNL d   1      32.565  16.004 -23.627  0.00  0.00    -0.265 OA
BRANCH  21  24
ATOM     24  C   UNL d   1      32.897  19.687 -22.841  0.00  0.00     0.300 C 
ATOM     25  O   UNL d   1      33.222  20.163 -23.436  0.00  0.00    -0.259 OA
BRANCH  24  26
ATOM     26  O   UNL d   1      32.798  19.984 -22.080  0.00  0.00    -0.271 OA
BRANCH  26  27
ATOM     27  C   UNL d   1      32.964  20.774 -21.928  0.00  0.00     0.126 C 
ATOM     28  C   UNL d   1      32.910  21.061 -21.154  0.00  0.00     0.029 C 
ENDBRANCH  26  27
ENDBRANCH  24  26
ENDBRANCH  21  24
ENDBRANCH   4  16
TORSDOF 4
ENDMDL
MODEL 2
REMARK VINA RESULT:       0.4      2.051      3.449
REMARK  4 active torsions:
REMARK  status: ('A' for Active; 'I' for Inactive)
REMARK    1  A    between atoms: C_10  and  C_4 
REMARK       I    between atoms: N_11  and  C_10 
REMARK    2  A    between atoms: C_12  and  C_19 
REMARK    3  A    between atoms: O_26  and  C_12 
REMARK    4  A    between atoms: C_27  and  O_26 
ROOT
ATOM      1  C   UNL d   1      31.907  18.347 -23.830  0.00  0.00     0.154 A 
ATOM      2  C   UNL d   1      32.536  18.160 -23.334  0.00  0.00     0.093 A 
ATOM      3  N   UNL d   1      31.338  17.767 -24.013  0.00  0.00    -0.211 NA
ATOM      4  C   UNL d   1      32.664  19.438 -23.701  0.00  0.00     0.122 A 
ATOM      5  N   UNL d   1      31.985  19.133 -24.056  0.00  0.00    -0.285 N 
ATOM      6  C   UNL d   1      32.606  17.399 -23.015  0.00  0.00     0.269 A 
ATOM      7  N   UNL d   1      32.046  16.824 -23.194  0.00  0.00    -0.259 N 
ATOM      8  C   UNL d   1      31.404  17.006 -23.697  0.00  0.00     0.140 A 
ATOM      9  C   UNL d   1      33.001  18.832 -23.254  0.00  0.00     0.030 A 
ATOM     10  C   UNL d   1      32.113  16.065 -22.879  0.00  0.00     0.084 A 
ATOM     11  O   UNL d   1      33.240  17.215 -22.516  0.00  0.00    -0.266 OA
ATOM     12  C   UNL d   1      30.847  16.440 -23.877  0.00  0.00     0.064 A 
ATOM     13  C   UNL d   1      31.548  15.495 -23.062  0.00  0.00     0.018 A 
ATOM     14  C   UNL d   1      30.909  15.685 -23.566  0.00  0.00    -0.008 A 
ATOM     15  C   UNL d   1      31.469  19.546 -24.556  0.00  0.00     0.101 C 
ENDROOT
BRANCH   4  16
ATOM     16  C   UNL d   1      32.953  20.210 -23.777  0.00  0.00     0.281 C 
ATOM     17  N   UNL d   1      32.951  20.714 -23.125  0.00  0.00    -0.271 N 
ATOM     18  C   UNL d   1      32.664  20.455 -22.398  0.00  0.00     0.083 A 
ATOM     19  C   UNL d   1      33.241  21.486 -23.202  0.00  0.00     0.083 A 
ATOM     20  C   UNL d   1      32.665  20.962 -21.752  0.00  0.00     0.025 A 
ATOM     21  C   UNL d   1      32.955  21.734 -21.828  0.00  0.00     0.067 A 
ATOM     22  C   UNL d   1      33.241  21.994 -22.551  0.00  0.00     0.025 A 
ATOM     23  O   UNL d   1      33.240  20.469 -24.503  0.00  0.00    -0.265 OA
BRANCH  21  24
ATOM     24  C   UNL d   1      32.955  22.242 -21.177  0.00  0.00     0.300 C 
ATOM     25  O   UNL d   1      32.736  23.035 -21.276  0.00  0.00    -0.259 OA
BRANCH  24  26
ATOM     26  O   UNL d   1      33.171  21.961 -20.434  0.00  0.00    -0.271 OA
BRANCH  26  27
ATOM     27  C   UNL d   1      33.089  22.448 -19.777  0.00  0.00     0.126 C 
ATOM     28  C   UNL d   1      33.041  22.110 -19.023  0.00  0.00     0.029 C 
ENDBRANCH  26  27
ENDBRANCH  24  26
ENDBRANCH  21  24
ENDBRANCH   4  16
TORSDOF 4
ENDMDL
MODEL 3
REMARK VINA RESULT:       1.4      1.856      5.772
REMARK  4 active torsions:
REMARK  status: ('A' for Active; 'I' for Inactive)
REMARK    1  A    between atoms: C_10  and  C_4 
REMARK       I    between atoms: N_11  and  C_10 
REMARK    2  A    between atoms: C_12  and  C_19 
REMARK    3  A    between atoms: O_26  and  C_12 
REMARK    4  A    between atoms: C_27  and  O_26 
ROOT
ATOM      1  C   UNL d   1      32.944  20.217 -21.936  0.00  0.00     0.154 A 
ATOM      2  C   UNL d   1      32.899  20.338 -22.749  0.00  0.00     0.093 A 
ATOM      3  N   UNL d   1      33.040  20.868 -21.425  0.00  0.00    -0.211 NA
ATOM      4  C   UNL d   1      32.794  19.026 -22.519  0.00  0.00     0.122 A 
ATOM      5  N   UNL d   1      32.880  19.410 -21.795  0.00  0.00    -0.285 N 
ATOM      6  C   UNL d   1      32.948  21.104 -23.060  0.00  0.00     0.269 A 
ATOM      7  N   UNL d   1      33.042  21.748 -22.559  0.00  0.00    -0.259 N 
ATOM      8  C   UNL d   1      33.089  21.633 -21.732  0.00  0.00     0.140 A 
ATOM      9  C   UNL d   1      32.806  19.606 -23.107  0.00  0.00     0.030 A 
ATOM     10  C   UNL d   1      33.091  22.512 -22.866  0.00  0.00     0.084 A 
ATOM     11  O   UNL d   1      32.901  21.222 -23.878  0.00  0.00    -0.266 OA
ATOM     12  C   UNL d   1      33.183  22.268 -21.231  0.00  0.00     0.064 A 
ATOM     13  C   UNL d   1      33.185  23.152 -22.357  0.00  0.00     0.018 A 
ATOM     14  C   UNL d   1      33.232  23.028 -21.532  0.00  0.00    -0.008 A 
ATOM     15  C   UNL d   1      32.899  19.046 -21.050  0.00  0.00     0.101 C 
ENDROOT
BRANCH   4  16
ATOM     16  C   UNL d   1      32.711  18.211 -22.637  0.00  0.00     0.281 C 
ATOM     17  N   UNL d   1      32.099  17.926 -23.109  0.00  0.00    -0.271 N 
ATOM     18  C   UNL d   1      31.570  18.447 -23.466  0.00  0.00     0.083 A 
ATOM     19  C   UNL d   1      32.016  17.111 -23.226  0.00  0.00     0.083 A 
ATOM     20  C   UNL d   1      30.962  18.157 -23.936  0.00  0.00     0.025 A 
ATOM     21  C   UNL d   1      30.879  17.341 -24.054  0.00  0.00     0.067 A 
ATOM     22  C   UNL d   1      31.404  16.822 -23.700  0.00  0.00     0.025 A 
ATOM     23  O   UNL d   1      33.239  17.690 -22.280  0.00  0.00    -0.265 OA
BRANCH  21  24
ATOM     24  C   UNL d   1      30.267  17.052 -24.527  0.00  0.00     0.300 C 
ATOM     25  O   UNL d   1      29.922  17.544 -25.097  0.00  0.00    -0.259 OA
BRANCH  24  26
ATOM     26  O   UNL d   1      30.003  16.278 -24.431  0.00  0.00    -0.271 OA
BRANCH  26  27
ATOM     27  C   UNL d   1      29.279  16.055 -24.750  0.00  0.00     0.126 C 
ATOM     28  C   UNL d   1      28.780  15.554 -24.319  0.00  0.00     0.029 C 
ENDBRANCH  26  27
ENDBRANCH  24  26
ENDBRANCH  21  24
ENDBRANCH   4  16
TORSDOF 4
ENDMDL
