MODEL 1
REMARK VINA RESULT:      -2.9      0.000      0.000
REMARK  2 active torsions:
REMARK  status: ('A' for Active; 'I' for Inactive)
REMARK       I    between atoms: N_2  and  C_1 
REMARK       I    between atoms: N_4  and  C_1 
REMARK    1  A    between atoms: C_3  and  N_2 
REMARK    2  A    between atoms: C_7  and  N_4 
ROOT
ATOM      1  C   UNL d   1      31.262  16.551 -23.793  0.00  0.00     0.370 C 
ATOM      2  N   UNL d   1      30.960  15.783 -23.703  0.00  0.00    -0.172 NA
ATOM      3  N   UNL d   1      32.092  16.658 -23.769  0.00  0.00    -0.191 NA
ATOM      4  O   UNL d   1      30.788  17.185 -23.901  0.00  0.00    -0.242 OA
ENDROOT
BRANCH   2   5
ATOM      5  C   UNL d   1      30.143  15.674 -23.726  0.00  0.00     0.167 A 
ATOM      6  N   UNL d   1      29.731  15.596 -24.459  0.00  0.00    -0.225 NA
ATOM      7  C   UNL d   1      28.919  15.488 -24.468  0.00  0.00     0.101 A 
ATOM      8  C   UNL d   1      28.507  15.457 -23.750  0.00  0.00     0.021 A 
ATOM      9  C   UNL d   1      28.913  15.533 -23.035  0.00  0.00     0.005 A 
ATOM     10  C   UNL d   1      29.714  15.640 -23.029  0.00  0.00     0.039 A 
ENDBRANCH   2   5
BRANCH   3  11
ATOM     11  C   UNL d   1      32.403  17.413 -23.857  0.00  0.00     0.086 A 
ATOM     12  C   UNL d   1      32.519  17.721 -24.598  0.00  0.00     0.019 A 
ATOM     13  C   UNL d   1      32.835  18.485 -24.680  0.00  0.00     0.002 A 
ATOM     14  C   UNL d   1      33.032  18.933 -23.997  0.00  0.00     0.000 A 
ATOM     15  C   UNL d   1      32.912  18.617 -23.263  0.00  0.00     0.002 A 
ATOM     16  C   UNL d   1      32.602  17.864 -23.172  0.00  0.00     0.019 A 
ENDBRANCH   3  11
TORSDOF 2
ENDMDL
MODEL 2
REMARK VINA RESULT:      -2.8      0.421      3.846
REMARK  2 active torsions:
REMARK  status: ('A' for Active; 'I' for Inactive)
REMARK       I    between atoms: N_2  and  C_1 
REMARK       I    between atoms: N_4  and  C_1 
REMARK    1  A    between atoms: C_3  and  N_2 
REMARK    2  A    between atoms: C_7  and  N_4 
ROOT
ATOM      1  C   UNL d   1      31.261  16.540 -23.766  0.00  0.00     0.370 C 
ATOM      2  N   UNL d   1      32.084  16.636 -23.718  0.00  0.00    -0.172 NA
ATOM      3  N   UNL d   1      30.941  15.776 -23.647  0.00  0.00    -0.191 NA
ATOM      4  O   UNL d   1      30.770  17.151 -23.922  0.00  0.00    -0.242 OA
ENDROOT
BRANCH   2   5
ATOM      5  C   UNL d   1      32.403  17.387 -23.835  0.00  0.00     0.167 A 
ATOM      6  N   UNL d   1      32.550  17.685 -24.612  0.00  0.00    -0.225 NA
ATOM      7  C   UNL d   1      32.867  18.433 -24.715  0.00  0.00     0.101 A 
ATOM      8  C   UNL d   1      33.042  18.894 -24.049  0.00  0.00     0.021 A 
ATOM      9  C   UNL d   1      32.897  18.599 -23.291  0.00  0.00     0.005 A 
ATOM     10  C   UNL d   1      32.584  17.860 -23.192  0.00  0.00     0.039 A 
ENDBRANCH   2   5
BRANCH   3  11
ATOM     11  C   UNL d   1      30.127  15.669 -23.692  0.00  0.00     0.086 A 
ATOM     12  C   UNL d   1      29.771  15.561 -24.412  0.00  0.00     0.019 A 
ATOM     13  C   UNL d   1      28.948  15.453 -24.450  0.00  0.00     0.002 A 
ATOM     14  C   UNL d   1      28.492  15.455 -23.745  0.00  0.00     0.000 A 
ATOM     15  C   UNL d   1      28.857  15.563 -23.033  0.00  0.00     0.002 A 
ATOM     16  C   UNL d   1      29.668  15.671 -22.984  0.00  0.00     0.019 A 
ENDBRANCH   3  11
TORSDOF 2
ENDMDL
MODEL 3
REMARK VINA RESULT:      -2.7      2.774      4.204
REMARK  2 active torsions:
REMARK  status: ('A' for Active; 'I' for Inactive)
REMARK       I    between atoms: N_2  and  C_1 
REMARK       I    between atoms: N_4  and  C_1 
REMARK    1  A    between atoms: C_3  and  N_2 
REMARK    2  A    between atoms: C_7  and  N_4 
ROOT
ATOM      1  C   UNL d   1      32.954  19.653 -22.412  0.00  0.00     0.370 C 
ATOM      2  N   UNL d   1      33.227  18.885 -22.568  0.00  0.00    -0.172 NA
ATOM      3  N   UNL d   1      33.213  20.034 -21.713  0.00  0.00    -0.191 NA
ATOM      4  O   UNL d   1      32.457  20.037 -22.906  0.00  0.00    -0.242 OA
ENDROOT
BRANCH   2   5
ATOM      5  C   UNL d   1      32.974  18.507 -23.256  0.00  0.00     0.167 A 
ATOM      6  N   UNL d   1      33.239  18.758 -24.017  0.00  0.00    -0.225 NA
ATOM      7  C   UNL d   1      32.980  18.374 -24.693  0.00  0.00     0.101 A 
ATOM      8  C   UNL d   1      32.455  17.737 -24.621  0.00  0.00     0.021 A 
ATOM      9  C   UNL d   1      32.197  17.495 -23.874  0.00  0.00     0.005 A 
ATOM     10  C   UNL d   1      32.454  17.876 -23.209  0.00  0.00     0.039 A 
ENDBRANCH   2   5
BRANCH   3  11
ATOM     11  C   UNL d   1      32.951  20.795 -21.548  0.00  0.00     0.086 A 
ATOM     12  C   UNL d   1      33.241  21.425 -21.967  0.00  0.00     0.019 A 
ATOM     13  C   UNL d   1      32.971  22.192 -21.795  0.00  0.00     0.002 A 
ATOM     14  C   UNL d   1      32.401  22.309 -21.188  0.00  0.00     0.000 A 
ATOM     15  C   UNL d   1      32.119  21.675 -20.776  0.00  0.00     0.002 A 
ATOM     16  C   UNL d   1      32.378  20.914 -20.939  0.00  0.00     0.019 A 
ENDBRANCH   3  11
TORSDOF 2
ENDMDL
MODEL 4
REMARK VINA RESULT:      -2.7      2.874      4.906
REMARK  2 active torsions:
REMARK  status: ('A' for Active; 'I' for Inactive)
REMARK       I    between atoms: N_2  and  C_1 
REMARK       I    between atoms: N_4  and  C_1 
REMARK    1  A    between atoms: C_3  and  N_2 
REMARK    2  A    between atoms: C_7  and  N_4 
ROOT
ATOM      1  C   UNL d   1      32.950  19.623 -22.404  0.00  0.00     0.370 C 
ATOM      2  N   UNL d   1      33.238  19.962 -21.703  0.00  0.00    -0.172 NA
ATOM      3  N   UNL d   1      33.238  18.870 -22.629  0.00  0.00    -0.191 NA
ATOM      4  O   UNL d   1      32.412  19.991 -22.866  0.00  0.00    -0.242 OA
ENDROOT
BRANCH   2   5
ATOM      5  C   UNL d   1      32.957  20.704 -21.479  0.00  0.00     0.167 A 
ATOM      6  N   UNL d   1      33.233  21.410 -21.852  0.00  0.00    -0.225 NA
ATOM      7  C   UNL d   1      32.946  22.141 -21.619  0.00  0.00     0.101 A 
ATOM      8  C   UNL d   1      32.382  22.180 -21.014  0.00  0.00     0.021 A 
ATOM      9  C   UNL d   1      32.114  21.488 -20.652  0.00  0.00     0.005 A 
ATOM     10  C   UNL d   1      32.398  20.768 -20.883  0.00  0.00     0.039 A 
ENDBRANCH   2   5
BRANCH   3  11
ATOM     11  C   UNL d   1      32.961  18.523 -23.321  0.00  0.00     0.086 A 
ATOM     12  C   UNL d   1      33.220  18.790 -24.041  0.00  0.00     0.019 A 
ATOM     13  C   UNL d   1      32.936  18.435 -24.737  0.00  0.00     0.002 A 
ATOM     14  C   UNL d   1      32.384  17.803 -24.689  0.00  0.00     0.000 A 
ATOM     15  C   UNL d   1      32.133  17.545 -23.967  0.00  0.00     0.002 A 
ATOM     16  C   UNL d   1      32.406  17.888 -23.275  0.00  0.00     0.019 A 
ENDBRANCH   3  11
TORSDOF 2
ENDMDL
MODEL 5
REMARK VINA RESULT:      -2.6      0.865      3.947
REMARK  2 active torsions:
REMARK  status: ('A' for Active; 'I' for Inactive)
REMARK       I    between atoms: N_2  and  C_1 
REMARK       I    between atoms: N_4  and  C_1 
REMARK    1  A    between atoms: C_3  and  N_2 
REMARK    2  A    between atoms: C_7  and  N_4 
ROOT
ATOM      1  C   UNL d   1      31.612  17.112 -23.931  0.00  0.00     0.370 C 
ATOM      2  N   UNL d   1      32.420  17.234 -23.789  0.00  0.00    -0.172 NA
ATOM      3  N   UNL d   1      31.339  16.327 -24.034  0.00  0.00    -0.191 NA
ATOM      4  O   UNL d   1      31.092  17.716 -23.974  0.00  0.00    -0.242 OA
ENDROOT
BRANCH   2   5
ATOM      5  C   UNL d   1      32.692  18.006 -23.687  0.00  0.00     0.167 A 
ATOM      6  N   UNL d   1      32.695  18.373 -22.927  0.00  0.00    -0.225 NA
ATOM      7  C   UNL d   1      32.968  19.141 -22.840  0.00  0.00     0.101 A 
ATOM      8  C   UNL d   1      33.241  19.552 -23.505  0.00  0.00     0.021 A 
ATOM      9  C   UNL d   1      33.236  19.189 -24.247  0.00  0.00     0.005 A 
ATOM     10  C   UNL d   1      32.967  18.431 -24.331  0.00  0.00     0.039 A 
ENDBRANCH   2   5
BRANCH   3  11
ATOM     11  C   UNL d   1      30.541  16.193 -24.176  0.00  0.00     0.086 A 
ATOM     12  C   UNL d   1      30.247  16.255 -24.928  0.00  0.00     0.019 A 
ATOM     13  C   UNL d   1      29.438  16.118 -25.065  0.00  0.00     0.002 A 
ATOM     14  C   UNL d   1      28.933  15.917 -24.424  0.00  0.00     0.000 A 
ATOM     15  C   UNL d   1      29.237  15.857 -23.679  0.00  0.00     0.002 A 
ATOM     16  C   UNL d   1      30.033  15.991 -23.533  0.00  0.00     0.019 A 
ENDBRANCH   3  11
TORSDOF 2
ENDMDL
MODEL 6
REMARK VINA RESULT:      -1.8      6.093      7.820
REMARK  2 active torsions:
REMARK  status: ('A' for Active; 'I' for Inactive)
REMARK       I    between atoms: N_2  and  C_1 
REMARK       I    between atoms: N_4  and  C_1 
REMARK    1  A    between atoms: C_3  and  N_2 
REMARK    2  A    between atoms: C_7  and  N_4 
ROOT
ATOM      1  C   UNL d   1      32.610  22.705 -19.933  0.00  0.00     0.370 C 
ATOM      2  N   UNL d   1      32.537  23.434 -19.543  0.00  0.00    -0.172 NA
ATOM      3  N   UNL d   1      32.606  22.699 -20.770  0.00  0.00    -0.191 NA
ATOM      4  O   UNL d   1      32.684  22.015 -19.536  0.00  0.00    -0.242 OA
ENDROOT
BRANCH   2   5
ATOM      5  C   UNL d   1      32.541  23.443 -18.718  0.00  0.00     0.167 A 
ATOM      6  N   UNL d   1      33.222  23.204 -18.280  0.00  0.00    -0.225 NA
ATOM      7  C   UNL d   1      33.213  23.218 -17.461  0.00  0.00     0.101 A 
ATOM      8  C   UNL d   1      32.528  23.469 -17.068  0.00  0.00     0.021 A 
ATOM      9  C   UNL d   1      31.864  23.702 -17.500  0.00  0.00     0.005 A 
ATOM     10  C   UNL d   1      31.875  23.688 -18.308  0.00  0.00     0.039 A 
ENDBRANCH   2   5
BRANCH   3  11
ATOM     11  C   UNL d   1      32.677  21.984 -21.168  0.00  0.00     0.086 A 
ATOM     12  C   UNL d   1      32.285  21.328 -20.899  0.00  0.00     0.019 A 
ATOM     13  C   UNL d   1      32.362  20.607 -21.307  0.00  0.00     0.002 A 
ATOM     14  C   UNL d   1      32.844  20.564 -21.993  0.00  0.00     0.000 A 
ATOM     15  C   UNL d   1      33.231  21.223 -22.253  0.00  0.00     0.002 A 
ATOM     16  C   UNL d   1      33.162  21.938 -21.858  0.00  0.00     0.019 A 
ENDBRANCH   3  11
TORSDOF 2
ENDMDL
