MODEL 1
REMARK VINA RESULT:      -3.2      0.000      0.000
REMARK  4 active torsions:
REMARK  status: ('A' for Active; 'I' for Inactive)
REMARK    1  A    between atoms: S_4  and  C_1 
REMARK    2  A    between atoms: C_7  and  S_4 
REMARK       I    between atoms: C_5  and  N_6 
REMARK    3  A    between atoms: C_12  and  C_5 
REMARK    4  A    between atoms: N_6  and  C_7 
ROOT
ATOM      1  C   UNL d   1      32.782  20.270 -21.920  0.00  0.00     0.141 C 
ENDROOT
BRANCH   1   2
ATOM      2  N   UNL d   1      32.962  20.987 -21.524  0.00  0.00    -0.199 NA
ATOM      3  C   UNL d   1      32.396  21.351 -21.045  0.00  0.00     0.280 C 
ATOM      4  O   UNL d   1      31.638  21.005 -20.953  0.00  0.00    -0.265 OA
BRANCH   3   5
ATOM      5  C   UNL d   1      32.581  22.052 -20.661  0.00  0.00     0.058 A 
ATOM      6  C   UNL d   1      32.303  22.778 -20.957  0.00  0.00     0.005 A 
ATOM      7  C   UNL d   1      32.482  23.483 -20.579  0.00  0.00     0.000 A 
ATOM      8  C   UNL d   1      32.950  23.481 -19.890  0.00  0.00     0.000 A 
ATOM      9  C   UNL d   1      33.232  22.751 -19.590  0.00  0.00     0.000 A 
ATOM     10  C   UNL d   1      33.041  22.034 -19.986  0.00  0.00     0.005 A 
ENDBRANCH   3   5
ENDBRANCH   1   2
BRANCH   1  11
ATOM     11  S   UNL d   1      33.239  20.015 -22.575  0.00  0.00    -0.027 SA
BRANCH  11  12
ATOM     12  C   UNL d   1      33.073  19.267 -22.939  0.00  0.00     0.196 A 
ATOM     13  N   UNL d   1      32.744  19.257 -23.694  0.00  0.00    -0.221 NA
ATOM     14  C   UNL d   1      32.580  18.530 -24.052  0.00  0.00     0.085 A 
ATOM     15  C   UNL d   1      32.290  18.502 -24.720  0.00  0.00     0.021 C 
ATOM     16  C   UNL d   1      32.748  17.809 -23.649  0.00  0.00     0.038 A 
ATOM     17  C   UNL d   1      33.074  17.838 -22.900  0.00  0.00     0.085 A 
ATOM     18  N   UNL d   1      33.240  18.546 -22.535  0.00  0.00    -0.221 NA
ATOM     19  C   UNL d   1      33.230  17.153 -22.524  0.00  0.00     0.021 C 
ENDBRANCH  11  12
ENDBRANCH   1  11
TORSDOF 4
ENDMDL
MODEL 2
REMARK VINA RESULT:      -3.1      1.445      5.031
REMARK  4 active torsions:
REMARK  status: ('A' for Active; 'I' for Inactive)
REMARK    1  A    between atoms: S_4  and  C_1 
REMARK    2  A    between atoms: C_7  and  S_4 
REMARK       I    between atoms: C_5  and  N_6 
REMARK    3  A    between atoms: C_12  and  C_5 
REMARK    4  A    between atoms: N_6  and  C_7 
ROOT
ATOM      1  C   UNL d   1      32.998  19.389 -22.734  0.00  0.00     0.141 C 
ENDROOT
BRANCH   1   2
ATOM      2  N   UNL d   1      32.835  18.569 -22.783  0.00  0.00    -0.199 NA
ATOM      3  C   UNL d   1      32.674  18.218 -23.512  0.00  0.00     0.280 C 
ATOM      4  O   UNL d   1      32.672  18.683 -24.211  0.00  0.00    -0.265 OA
BRANCH   3   5
ATOM      5  C   UNL d   1      32.516  17.414 -23.550  0.00  0.00     0.058 A 
ATOM      6  C   UNL d   1      31.733  17.143 -23.626  0.00  0.00     0.005 A 
ATOM      7  C   UNL d   1      31.566  16.342 -23.665  0.00  0.00     0.000 A 
ATOM      8  C   UNL d   1      32.183  15.784 -23.628  0.00  0.00     0.000 A 
ATOM      9  C   UNL d   1      32.974  16.054 -23.551  0.00  0.00     0.000 A 
ATOM     10  C   UNL d   1      33.132  16.879 -23.512  0.00  0.00     0.005 A 
ENDBRANCH   3   5
ENDBRANCH   1   2
BRANCH   1  11
ATOM     11  S   UNL d   1      33.226  19.740 -22.007  0.00  0.00    -0.027 SA
BRANCH  11  12
ATOM     12  C   UNL d   1      33.030  20.550 -21.852  0.00  0.00     0.196 A 
ATOM     13  N   UNL d   1      32.629  20.735 -21.157  0.00  0.00    -0.221 NA
ATOM     14  C   UNL d   1      32.435  21.524 -21.001  0.00  0.00     0.085 A 
ATOM     15  C   UNL d   1      32.081  21.706 -20.391  0.00  0.00     0.021 C 
ATOM     16  C   UNL d   1      32.646  22.131 -21.547  0.00  0.00     0.038 A 
ATOM     17  C   UNL d   1      33.044  21.928 -22.232  0.00  0.00     0.085 A 
ATOM     18  N   UNL d   1      33.241  21.156 -22.399  0.00  0.00    -0.221 NA
ATOM     19  C   UNL d   1      33.241  22.506 -22.744  0.00  0.00     0.021 C 
ENDBRANCH  11  12
ENDBRANCH   1  11
TORSDOF 4
ENDMDL
MODEL 3
REMARK VINA RESULT:      -2.7      1.558      2.118
REMARK  4 active torsions:
REMARK  status: ('A' for Active; 'I' for Inactive)
REMARK    1  A    between atoms: S_4  and  C_1 
REMARK    2  A    between atoms: C_7  and  S_4 
REMARK       I    between atoms: C_5  and  N_6 
REMARK    3  A    between atoms: C_12  and  C_5 
REMARK    4  A    between atoms: N_6  and  C_7 
ROOT
ATOM      1  C   UNL d   1      32.658  18.713 -22.915  0.00  0.00     0.141 C 
ENDROOT
BRANCH   1   2
ATOM      2  N   UNL d   1      32.660  19.534 -22.744  0.00  0.00    -0.199 NA
ATOM      3  C   UNL d   1      32.947  19.809 -22.021  0.00  0.00     0.280 C 
ATOM      4  O   UNL d   1      33.239  19.267 -21.451  0.00  0.00    -0.265 OA
BRANCH   3   5
ATOM      5  C   UNL d   1      32.945  20.614 -21.863  0.00  0.00     0.058 A 
ATOM      6  C   UNL d   1      32.645  20.899 -21.141  0.00  0.00     0.005 A 
ATOM      7  C   UNL d   1      32.639  21.702 -20.975  0.00  0.00     0.000 A 
ATOM      8  C   UNL d   1      32.935  22.246 -21.531  0.00  0.00     0.000 A 
ATOM      9  C   UNL d   1      33.237  21.962 -22.260  0.00  0.00     0.000 A 
ATOM     10  C   UNL d   1      33.238  21.136 -22.419  0.00  0.00     0.005 A 
ENDBRANCH   3   5
ENDBRANCH   1   2
BRANCH   1  11
ATOM     11  S   UNL d   1      32.512  18.437 -23.693  0.00  0.00    -0.027 SA
BRANCH  11  12
ATOM     12  C   UNL d   1      32.233  17.645 -23.811  0.00  0.00     0.196 A 
ATOM     13  N   UNL d   1      31.523  17.530 -24.212  0.00  0.00    -0.221 NA
ATOM     14  C   UNL d   1      31.247  16.759 -24.331  0.00  0.00     0.085 A 
ATOM     15  C   UNL d   1      30.621  16.638 -24.683  0.00  0.00     0.021 C 
ATOM     16  C   UNL d   1      31.688  16.100 -24.044  0.00  0.00     0.038 A 
ATOM     17  C   UNL d   1      32.391  16.233 -23.648  0.00  0.00     0.085 A 
ATOM     18  N   UNL d   1      32.674  16.986 -23.524  0.00  0.00    -0.221 NA
ATOM     19  C   UNL d   1      32.803  15.606 -23.380  0.00  0.00     0.021 C 
ENDBRANCH  11  12
ENDBRANCH   1  11
TORSDOF 4
ENDMDL
MODEL 4
REMARK VINA RESULT:      -2.0      3.681      5.854
REMARK  4 active torsions:
REMARK  status: ('A' for Active; 'I' for Inactive)
REMARK    1  A    between atoms: S_4  and  C_1 
REMARK    2  A    between atoms: C_7  and  S_4 
REMARK       I    between atoms: C_5  and  N_6 
REMARK    3  A    between atoms: C_12  and  C_5 
REMARK    4  A    between atoms: N_6  and  C_7 
ROOT
ATOM      1  C   UNL d   1      30.691  17.688 -24.900  0.00  0.00     0.141 C 
ENDROOT
BRANCH   1   2
ATOM      2  N   UNL d   1      30.182  17.096 -24.595  0.00  0.00    -0.199 NA
ATOM      3  C   UNL d   1      29.369  17.232 -24.542  0.00  0.00     0.280 C 
ATOM      4  O   UNL d   1      29.048  17.965 -24.793  0.00  0.00    -0.265 OA
BRANCH   3   5
ATOM      5  C   UNL d   1      28.879  16.646 -24.242  0.00  0.00     0.058 A 
ATOM      6  C   UNL d   1      28.521  16.096 -24.753  0.00  0.00     0.005 A 
ATOM      7  C   UNL d   1      28.030  15.508 -24.462  0.00  0.00     0.000 A 
ATOM      8  C   UNL d   1      27.882  15.454 -23.644  0.00  0.00     0.000 A 
ATOM      9  C   UNL d   1      28.242  16.007 -23.126  0.00  0.00     0.000 A 
ATOM     10  C   UNL d   1      28.744  16.606 -23.437  0.00  0.00     0.005 A 
ENDBRANCH   3   5
ENDBRANCH   1   2
BRANCH   1  11
ATOM     11  S   UNL d   1      31.506  17.534 -25.021  0.00  0.00    -0.027 SA
BRANCH  11  12
ATOM     12  C   UNL d   1      32.086  18.039 -24.665  0.00  0.00     0.196 A 
ATOM     13  N   UNL d   1      32.365  17.855 -23.911  0.00  0.00    -0.221 NA
ATOM     14  C   UNL d   1      32.931  18.345 -23.560  0.00  0.00     0.085 A 
ATOM     15  C   UNL d   1      33.189  18.197 -22.895  0.00  0.00     0.021 C 
ATOM     16  C   UNL d   1      33.219  19.024 -23.968  0.00  0.00     0.038 A 
ATOM     17  C   UNL d   1      32.931  19.191 -24.714  0.00  0.00     0.085 A 
ATOM     18  N   UNL d   1      32.374  18.718 -25.073  0.00  0.00    -0.221 NA
ATOM     19  C   UNL d   1      33.208  19.835 -25.095  0.00  0.00     0.021 C 
ENDBRANCH  11  12
ENDBRANCH   1  11
TORSDOF 4
ENDMDL
