MODEL 1
REMARK VINA RESULT:      -3.0      0.000      0.000
REMARK  2 active torsions:
REMARK  status: ('A' for Active; 'I' for Inactive)
REMARK    1  A    between atoms: C_9  and  N_1 
REMARK    2  A    between atoms: C_11  and  C_9 
ROOT
ATOM      1  N   UNL d   1      29.882  16.230 -23.943  0.00  0.00    -0.287 N 
ATOM      2  N   UNL d   1      30.757  15.593 -23.130  0.00  0.00    -0.224 NA
ATOM      3  C   UNL d   1      30.626  16.618 -24.005  0.00  0.00     0.083 A 
ATOM      4  C   UNL d   1      29.966  15.598 -23.402  0.00  0.00     0.183 A 
ATOM      5  C   UNL d   1      31.163  16.225 -23.505  0.00  0.00     0.099 A 
ATOM      6  C   UNL d   1      30.876  17.269 -24.449  0.00  0.00     0.019 A 
ATOM      7  C   UNL d   1      31.943  16.487 -23.452  0.00  0.00     0.021 A 
ATOM      8  C   UNL d   1      31.656  17.528 -24.394  0.00  0.00     0.002 A 
ATOM      9  C   UNL d   1      32.192  17.135 -23.894  0.00  0.00     0.002 A 
ATOM     10  C   UNL d   1      31.907  18.181 -24.838  0.00  0.00     0.000 C 
ATOM     11  C   UNL d   1      32.970  17.399 -23.843  0.00  0.00     0.000 C 
ENDROOT
BRANCH   1  12
ATOM     12  C   UNL d   1      29.126  16.303 -24.259  0.00  0.00     0.082 C 
BRANCH  12  13
ATOM     13  C   UNL d   1      28.466  16.195 -23.777  0.00  0.00     0.018 C 
ATOM     14  C   UNL d   1      28.107  15.453 -23.729  0.00  0.00     0.002 C 
ATOM     15  C   UNL d   1      28.163  16.829 -23.344  0.00  0.00     0.002 C 
ENDBRANCH  12  13
ENDBRANCH   1  12
TORSDOF 2
ENDMDL
MODEL 2
REMARK VINA RESULT:      -2.9      0.930      3.422
REMARK  2 active torsions:
REMARK  status: ('A' for Active; 'I' for Inactive)
REMARK    1  A    between atoms: C_9  and  N_1 
REMARK    2  A    between atoms: C_11  and  C_9 
ROOT
ATOM      1  N   UNL d   1      31.171  17.150 -24.409  0.00  0.00    -0.287 N 
ATOM      2  N   UNL d   1      30.134  17.684 -25.097  0.00  0.00    -0.224 NA
ATOM      3  C   UNL d   1      30.459  16.809 -24.116  0.00  0.00     0.083 A 
ATOM      4  C   UNL d   1      30.967  17.689 -25.014  0.00  0.00     0.183 A 
ATOM      5  C   UNL d   1      29.824  17.139 -24.540  0.00  0.00     0.099 A 
ATOM      6  C   UNL d   1      30.315  16.249 -23.526  0.00  0.00     0.019 A 
ATOM      7  C   UNL d   1      29.051  16.906 -24.369  0.00  0.00     0.021 A 
ATOM      8  C   UNL d   1      29.543  16.018 -23.358  0.00  0.00     0.002 A 
ATOM      9  C   UNL d   1      28.907  16.348 -23.781  0.00  0.00     0.002 A 
ATOM     10  C   UNL d   1      29.397  15.457 -22.766  0.00  0.00     0.000 C 
ATOM     11  C   UNL d   1      28.137  16.114 -23.610  0.00  0.00     0.000 C 
ENDROOT
BRANCH   1  12
ATOM     12  C   UNL d   1      31.979  17.096 -24.265  0.00  0.00     0.082 C 
BRANCH  12  13
ATOM     13  C   UNL d   1      32.443  17.777 -24.260  0.00  0.00     0.018 C 
ATOM     14  C   UNL d   1      32.846  18.007 -24.943  0.00  0.00     0.002 C 
ATOM     15  C   UNL d   1      32.505  18.230 -23.573  0.00  0.00     0.002 C 
ENDBRANCH  12  13
ENDBRANCH   1  12
TORSDOF 2
ENDMDL
MODEL 3
REMARK VINA RESULT:      -2.8      0.798      1.480
REMARK  2 active torsions:
REMARK  status: ('A' for Active; 'I' for Inactive)
REMARK    1  A    between atoms: C_9  and  N_1 
REMARK    2  A    between atoms: C_11  and  C_9 
ROOT
ATOM      1  N   UNL d   1      30.415  16.343 -24.089  0.00  0.00    -0.287 N 
ATOM      2  N   UNL d   1      30.328  17.571 -24.652  0.00  0.00    -0.224 NA
ATOM      3  C   UNL d   1      31.134  16.753 -23.935  0.00  0.00     0.083 A 
ATOM      4  C   UNL d   1      29.920  16.851 -24.531  0.00  0.00     0.183 A 
ATOM      5  C   UNL d   1      31.078  17.507 -24.282  0.00  0.00     0.099 A 
ATOM      6  C   UNL d   1      31.819  16.534 -23.530  0.00  0.00     0.019 A 
ATOM      7  C   UNL d   1      31.708  18.035 -24.220  0.00  0.00     0.021 A 
ATOM      8  C   UNL d   1      32.447  17.064 -23.469  0.00  0.00     0.002 A 
ATOM      9  C   UNL d   1      32.391  17.819 -23.816  0.00  0.00     0.002 A 
ATOM     10  C   UNL d   1      33.135  16.847 -23.063  0.00  0.00     0.000 C 
ATOM     11  C   UNL d   1      33.022  18.344 -23.753  0.00  0.00     0.000 C 
ENDROOT
BRANCH   1  12
ATOM     12  C   UNL d   1      30.084  15.608 -23.927  0.00  0.00     0.082 C 
BRANCH  12  13
ATOM     13  C   UNL d   1      29.301  15.556 -23.672  0.00  0.00     0.018 C 
ATOM     14  C   UNL d   1      28.694  15.453 -24.223  0.00  0.00     0.002 C 
ATOM     15  C   UNL d   1      29.124  15.606 -22.868  0.00  0.00     0.002 C 
ENDBRANCH  12  13
ENDBRANCH   1  12
TORSDOF 2
ENDMDL
MODEL 4
REMARK VINA RESULT:      -2.5      4.245      5.566
REMARK  2 active torsions:
REMARK  status: ('A' for Active; 'I' for Inactive)
REMARK    1  A    between atoms: C_9  and  N_1 
REMARK    2  A    between atoms: C_11  and  C_9 
ROOT
ATOM      1  N   UNL d   1      33.238  21.081 -21.604  0.00  0.00    -0.287 N 
ATOM      2  N   UNL d   1      33.240  19.903 -20.937  0.00  0.00    -0.224 NA
ATOM      3  C   UNL d   1      33.238  20.460 -22.171  0.00  0.00     0.083 A 
ATOM      4  C   UNL d   1      33.239  20.735 -20.843  0.00  0.00     0.183 A 
ATOM      5  C   UNL d   1      33.239  19.737 -21.759  0.00  0.00     0.099 A 
ATOM      6  C   UNL d   1      33.238  20.464 -22.997  0.00  0.00     0.019 A 
ATOM      7  C   UNL d   1      33.239  19.026 -22.177  0.00  0.00     0.021 A 
ATOM      8  C   UNL d   1      33.238  19.752 -23.412  0.00  0.00     0.002 A 
ATOM      9  C   UNL d   1      33.238  19.029 -23.000  0.00  0.00     0.002 A 
ATOM     10  C   UNL d   1      33.237  19.755 -24.240  0.00  0.00     0.000 C 
ATOM     11  C   UNL d   1      33.238  18.321 -23.419  0.00  0.00     0.000 C 
ENDROOT
BRANCH   1  12
ATOM     12  C   UNL d   1      33.238  21.904 -21.599  0.00  0.00     0.082 C 
BRANCH  12  13
ATOM     13  C   UNL d   1      32.843  22.312 -21.001  0.00  0.00     0.018 C 
ATOM     14  C   UNL d   1      32.062  22.555 -21.114  0.00  0.00     0.002 C 
ATOM     15  C   UNL d   1      33.228  22.478 -20.290  0.00  0.00     0.002 C 
ENDBRANCH  12  13
ENDBRANCH   1  12
TORSDOF 2
ENDMDL
MODEL 5
REMARK VINA RESULT:      -2.1      4.121      5.536
REMARK  2 active torsions:
REMARK  status: ('A' for Active; 'I' for Inactive)
REMARK    1  A    between atoms: C_9  and  N_1 
REMARK    2  A    between atoms: C_11  and  C_9 
ROOT
ATOM      1  N   UNL d   1      33.231  21.056 -21.987  0.00  0.00    -0.287 N 
ATOM      2  N   UNL d   1      33.241  21.303 -23.318  0.00  0.00    -0.224 NA
ATOM      3  C   UNL d   1      33.232  20.317 -22.389  0.00  0.00     0.083 A 
ATOM      4  C   UNL d   1      33.236  21.662 -22.563  0.00  0.00     0.183 A 
ATOM      5  C   UNL d   1      33.238  20.471 -23.207  0.00  0.00     0.099 A 
ATOM      6  C   UNL d   1      33.229  19.538 -22.116  0.00  0.00     0.019 A 
ATOM      7  C   UNL d   1      33.241  19.844 -23.743  0.00  0.00     0.021 A 
ATOM      8  C   UNL d   1      33.232  18.913 -22.654  0.00  0.00     0.002 A 
ATOM      9  C   UNL d   1      33.237  19.067 -23.471  0.00  0.00     0.002 A 
ATOM     10  C   UNL d   1      33.228  18.131 -22.381  0.00  0.00     0.000 C 
ATOM     11  C   UNL d   1      33.240  18.440 -24.004  0.00  0.00     0.000 C 
ENDROOT
BRANCH   1  12
ATOM     12  C   UNL d   1      33.227  21.329 -21.211  0.00  0.00     0.082 C 
BRANCH  12  13
ATOM     13  C   UNL d   1      32.701  21.923 -20.987  0.00  0.00     0.018 C 
ATOM     14  C   UNL d   1      32.891  22.716 -21.122  0.00  0.00     0.002 C 
ATOM     15  C   UNL d   1      31.984  21.727 -20.627  0.00  0.00     0.002 C 
ENDBRANCH  12  13
ENDBRANCH   1  12
TORSDOF 2
ENDMDL
MODEL 6
REMARK VINA RESULT:      -2.0      2.686      4.126
REMARK  2 active torsions:
REMARK  status: ('A' for Active; 'I' for Inactive)
REMARK    1  A    between atoms: C_9  and  N_1 
REMARK    2  A    between atoms: C_11  and  C_9 
ROOT
ATOM      1  N   UNL d   1      33.206  18.230 -23.738  0.00  0.00    -0.287 N 
ATOM      2  N   UNL d   1      33.231  19.326 -24.532  0.00  0.00    -0.224 NA
ATOM      3  C   UNL d   1      33.213  18.910 -23.243  0.00  0.00     0.083 A 
ATOM      4  C   UNL d   1      33.218  18.490 -24.532  0.00  0.00     0.183 A 
ATOM      5  C   UNL d   1      33.228  19.583 -23.732  0.00  0.00     0.099 A 
ATOM      6  C   UNL d   1      33.207  18.997 -22.422  0.00  0.00     0.019 A 
ATOM      7  C   UNL d   1      33.237  20.336 -23.396  0.00  0.00     0.021 A 
ATOM      8  C   UNL d   1      33.216  19.751 -22.088  0.00  0.00     0.002 A 
ATOM      9  C   UNL d   1      33.231  20.423 -22.578  0.00  0.00     0.002 A 
ATOM     10  C   UNL d   1      33.210  19.840 -21.265  0.00  0.00     0.000 C 
ATOM     11  C   UNL d   1      33.240  21.174 -22.240  0.00  0.00     0.000 C 
ENDROOT
BRANCH   1  12
ATOM     12  C   UNL d   1      33.192  17.412 -23.652  0.00  0.00     0.082 C 
BRANCH  12  13
ATOM     13  C   UNL d   1      32.772  16.948 -24.189  0.00  0.00     0.018 C 
ATOM     14  C   UNL d   1      33.165  16.592 -24.823  0.00  0.00     0.002 C 
ATOM     15  C   UNL d   1      31.960  16.840 -24.094  0.00  0.00     0.002 C 
ENDBRANCH  12  13
ENDBRANCH   1  12
TORSDOF 2
ENDMDL
MODEL 7
REMARK VINA RESULT:      -1.5      5.894      6.921
REMARK  2 active torsions:
REMARK  status: ('A' for Active; 'I' for Inactive)
REMARK    1  A    between atoms: C_9  and  N_1 
REMARK    2  A    between atoms: C_11  and  C_9 
ROOT
ATOM      1  N   UNL d   1      32.892  22.992 -23.184  0.00  0.00    -0.287 N 
ATOM      2  N   UNL d   1      32.162  23.629 -22.238  0.00  0.00    -0.224 NA
ATOM      3  C   UNL d   1      32.825  22.482 -22.518  0.00  0.00     0.083 A 
ATOM      4  C   UNL d   1      32.482  23.699 -23.008  0.00  0.00     0.183 A 
ATOM      5  C   UNL d   1      32.376  22.875 -21.938  0.00  0.00     0.099 A 
ATOM      6  C   UNL d   1      33.112  21.721 -22.373  0.00  0.00     0.019 A 
ATOM      7  C   UNL d   1      32.219  22.505 -21.219  0.00  0.00     0.021 A 
ATOM      8  C   UNL d   1      32.953  21.353 -21.653  0.00  0.00     0.002 A 
ATOM      9  C   UNL d   1      32.505  21.747 -21.073  0.00  0.00     0.002 A 
ATOM     10  C   UNL d   1      33.241  20.590 -21.505  0.00  0.00     0.000 C 
ATOM     11  C   UNL d   1      32.349  21.375 -20.355  0.00  0.00     0.000 C 
ENDROOT
BRANCH   1  12
ATOM     12  C   UNL d   1      33.239  22.981 -23.930  0.00  0.00     0.082 C 
BRANCH  12  13
ATOM     13  C   UNL d   1      32.765  22.990 -24.605  0.00  0.00     0.018 C 
ATOM     14  C   UNL d   1      32.607  22.287 -25.008  0.00  0.00     0.002 C 
ATOM     15  C   UNL d   1      32.447  23.702 -24.877  0.00  0.00     0.002 C 
ENDBRANCH  12  13
ENDBRANCH   1  12
TORSDOF 2
ENDMDL
