MODEL 1
REMARK VINA RESULT:      -3.5      0.000      0.000
REMARK  6 active torsions:
REMARK  status: ('A' for Active; 'I' for Inactive)
REMARK    1  A    between atoms: C_7  and  C_3 
REMARK    2  A    between atoms: C_6  and  O_14 
REMARK    3  A    between atoms: S_8  and  C_7 
REMARK    4  A    between atoms: C_17  and  S_8 
REMARK    5  A    between atoms: O_14  and  C_18 
REMARK    6  A    between atoms: C_18  and  C_17 
ROOT
ATOM      1  S   UNL d   1      32.967  19.813 -22.330  0.00  0.00    -0.081 SA
ENDROOT
BRANCH   1   2
ATOM      2  C   UNL d   1      33.137  20.190 -21.619  0.00  0.00     0.074 C 
BRANCH   2   3
ATOM      3  C   UNL d   1      32.818  20.931 -21.461  0.00  0.00     0.169 A 
ATOM      4  N   UNL d   1      32.332  21.597 -21.606  0.00  0.00    -0.225 NA
ATOM      5  C   UNL d   1      32.449  22.144 -20.983  0.00  0.00     0.101 A 
ATOM      6  C   UNL d   1      33.006  21.810 -20.461  0.00  0.00     0.101 A 
ATOM      7  C   UNL d   1      32.134  22.893 -20.813  0.00  0.00     0.021 A 
ATOM      8  N   UNL d   1      33.239  21.062 -20.749  0.00  0.00    -0.225 NA
ATOM      9  C   UNL d   1      33.237  22.232 -19.780  0.00  0.00     0.021 A 
ATOM     10  C   UNL d   1      32.918  22.967 -19.627  0.00  0.00     0.002 A 
ATOM     11  C   UNL d   1      32.366  23.298 -20.143  0.00  0.00     0.002 A 
ENDBRANCH   2   3
ENDBRANCH   1   2
BRANCH   1  12
ATOM     12  C   UNL d   1      33.185  19.026 -22.440  0.00  0.00     0.062 C 
BRANCH  12  13
ATOM     13  C   UNL d   1      32.797  18.567 -23.003  0.00  0.00     0.130 C 
BRANCH  13  14
ATOM     14  O   UNL d   1      33.235  18.197 -23.596  0.00  0.00    -0.305 OA
BRANCH  14  15
ATOM     15  C   UNL d   1      32.569  17.752 -23.793  0.00  0.00     0.100 A 
ATOM     16  C   UNL d   1      32.053  18.017 -24.367  0.00  0.00     0.025 A 
ATOM     17  C   UNL d   1      31.386  17.574 -24.566  0.00  0.00     0.002 A 
ATOM     18  C   UNL d   1      31.240  16.863 -24.184  0.00  0.00     0.000 A 
ATOM     19  C   UNL d   1      31.765  16.595 -23.602  0.00  0.00     0.002 A 
ATOM     20  C   UNL d   1      30.575  16.416 -24.380  0.00  0.00     0.000 C 
ATOM     21  C   UNL d   1      32.430  17.044 -23.409  0.00  0.00     0.025 A 
ENDBRANCH  14  15
ENDBRANCH  13  14
ENDBRANCH  12  13
ENDBRANCH   1  12
TORSDOF 6
ENDMDL
MODEL 2
REMARK VINA RESULT:      -2.6      1.713      5.533
REMARK  6 active torsions:
REMARK  status: ('A' for Active; 'I' for Inactive)
REMARK    1  A    between atoms: C_7  and  C_3 
REMARK    2  A    between atoms: C_6  and  O_14 
REMARK    3  A    between atoms: S_8  and  C_7 
REMARK    4  A    between atoms: C_17  and  S_8 
REMARK    5  A    between atoms: O_14  and  C_18 
REMARK    6  A    between atoms: C_18  and  C_17 
ROOT
ATOM      1  S   UNL d   1      32.856  19.325 -22.643  0.00  0.00    -0.081 SA
ENDROOT
BRANCH   1   2
ATOM      2  C   UNL d   1      33.094  18.600 -22.951  0.00  0.00     0.074 C 
BRANCH   2   3
ATOM      3  C   UNL d   1      32.685  18.268 -23.583  0.00  0.00     0.169 A 
ATOM      4  N   UNL d   1      32.378  18.242 -24.361  0.00  0.00    -0.225 NA
ATOM      5  C   UNL d   1      31.968  17.517 -24.453  0.00  0.00     0.101 A 
ATOM      6  C   UNL d   1      32.026  17.105 -23.731  0.00  0.00     0.101 A 
ATOM      7  C   UNL d   1      31.552  17.172 -25.083  0.00  0.00     0.021 A 
ATOM      8  N   UNL d   1      32.467  17.562 -23.189  0.00  0.00    -0.225 NA
ATOM      9  C   UNL d   1      31.667  16.357 -23.653  0.00  0.00     0.021 A 
ATOM     10  C   UNL d   1      31.262  16.031 -24.282  0.00  0.00     0.002 A 
ATOM     11  C   UNL d   1      31.204  16.438 -24.997  0.00  0.00     0.002 A 
ENDBRANCH   2   3
ENDBRANCH   1   2
BRANCH   1  12
ATOM     12  C   UNL d   1      33.233  19.633 -21.979  0.00  0.00     0.062 C 
BRANCH  12  13
ATOM     13  C   UNL d   1      33.015  20.372 -21.688  0.00  0.00     0.130 C 
BRANCH  13  14
ATOM     14  O   UNL d   1      33.241  20.590 -20.925  0.00  0.00    -0.305 OA
BRANCH  14  15
ATOM     15  C   UNL d   1      32.919  21.338 -21.057  0.00  0.00     0.100 A 
ATOM     16  C   UNL d   1      33.241  21.827 -21.626  0.00  0.00     0.025 A 
ATOM     17  C   UNL d   1      32.922  22.576 -21.761  0.00  0.00     0.002 A 
ATOM     18  C   UNL d   1      32.278  22.831 -21.321  0.00  0.00     0.000 A 
ATOM     19  C   UNL d   1      31.953  22.332 -20.745  0.00  0.00     0.002 A 
ATOM     20  C   UNL d   1      31.956  23.579 -21.453  0.00  0.00     0.000 C 
ATOM     21  C   UNL d   1      32.278  21.585 -20.616  0.00  0.00     0.025 A 
ENDBRANCH  14  15
ENDBRANCH  13  14
ENDBRANCH  12  13
ENDBRANCH   1  12
TORSDOF 6
ENDMDL
MODEL 3
REMARK VINA RESULT:      -2.1      1.742      5.748
REMARK  6 active torsions:
REMARK  status: ('A' for Active; 'I' for Inactive)
REMARK    1  A    between atoms: C_7  and  C_3 
REMARK    2  A    between atoms: C_6  and  O_14 
REMARK    3  A    between atoms: S_8  and  C_7 
REMARK    4  A    between atoms: C_17  and  S_8 
REMARK    5  A    between atoms: O_14  and  C_18 
REMARK    6  A    between atoms: C_18  and  C_17 
ROOT
ATOM      1  S   UNL d   1      33.201  20.729 -22.329  0.00  0.00    -0.081 SA
ENDROOT
BRANCH   1   2
ATOM      2  C   UNL d   1      33.238  20.273 -23.013  0.00  0.00     0.074 C 
BRANCH   2   3
ATOM      3  C   UNL d   1      33.090  19.465 -22.976  0.00  0.00     0.169 A 
ATOM      4  N   UNL d   1      32.891  18.744 -22.599  0.00  0.00    -0.225 NA
ATOM      5  C   UNL d   1      32.899  18.139 -23.179  0.00  0.00     0.101 A 
ATOM      6  C   UNL d   1      33.102  18.493 -23.905  0.00  0.00     0.101 A 
ATOM      7  C   UNL d   1      32.751  17.322 -23.154  0.00  0.00     0.021 A 
ATOM      8  N   UNL d   1      33.221  19.311 -23.789  0.00  0.00    -0.225 NA
ATOM      9  C   UNL d   1      33.153  18.023 -24.593  0.00  0.00     0.021 A 
ATOM     10  C   UNL d   1      33.006  17.222 -24.552  0.00  0.00     0.002 A 
ATOM     11  C   UNL d   1      32.805  16.872 -23.833  0.00  0.00     0.002 A 
ENDBRANCH   2   3
ENDBRANCH   1   2
BRANCH   1  12
ATOM     12  C   UNL d   1      32.964  21.516 -22.372  0.00  0.00     0.062 C 
BRANCH  12  13
ATOM     13  C   UNL d   1      32.780  21.929 -21.684  0.00  0.00     0.130 C 
BRANCH  13  14
ATOM     14  O   UNL d   1      32.275  22.580 -21.725  0.00  0.00    -0.305 OA
BRANCH  14  15
ATOM     15  C   UNL d   1      32.517  22.799 -20.967  0.00  0.00     0.100 A 
ATOM     16  C   UNL d   1      32.316  22.337 -20.324  0.00  0.00     0.025 A 
ATOM     17  C   UNL d   1      32.556  22.552 -19.565  0.00  0.00     0.002 A 
ATOM     18  C   UNL d   1      32.999  23.234 -19.454  0.00  0.00     0.000 A 
ATOM     19  C   UNL d   1      33.201  23.701 -20.108  0.00  0.00     0.002 A 
ATOM     20  C   UNL d   1      33.241  23.453 -18.697  0.00  0.00     0.000 C 
ATOM     21  C   UNL d   1      32.957  23.479 -20.864  0.00  0.00     0.025 A 
ENDBRANCH  14  15
ENDBRANCH  13  14
ENDBRANCH  12  13
ENDBRANCH   1  12
TORSDOF 6
ENDMDL
MODEL 4
REMARK VINA RESULT:      -0.7      2.358      6.256
REMARK  6 active torsions:
REMARK  status: ('A' for Active; 'I' for Inactive)
REMARK    1  A    between atoms: C_7  and  C_3 
REMARK    2  A    between atoms: C_6  and  O_14 
REMARK    3  A    between atoms: S_8  and  C_7 
REMARK    4  A    between atoms: C_17  and  S_8 
REMARK    5  A    between atoms: O_14  and  C_18 
REMARK    6  A    between atoms: C_18  and  C_17 
ROOT
ATOM      1  S   UNL d   1      32.855  22.335 -20.357  0.00  0.00    -0.081 SA
ENDROOT
BRANCH   1   2
ATOM      2  C   UNL d   1      33.227  22.001 -21.010  0.00  0.00     0.074 C 
BRANCH   2   3
ATOM      3  C   UNL d   1      33.168  21.192 -21.146  0.00  0.00     0.169 A 
ATOM      4  N   UNL d   1      33.108  20.386 -20.928  0.00  0.00    -0.225 NA
ATOM      5  C   UNL d   1      33.078  19.930 -21.630  0.00  0.00     0.101 A 
ATOM      6  C   UNL d   1      33.119  20.459 -22.272  0.00  0.00     0.101 A 
ATOM      7  C   UNL d   1      33.018  19.115 -21.780  0.00  0.00     0.021 A 
ATOM      8  N   UNL d   1      33.175  21.239 -21.982  0.00  0.00    -0.225 NA
ATOM      9  C   UNL d   1      33.101  20.163 -23.051  0.00  0.00     0.021 A 
ATOM     10  C   UNL d   1      33.042  19.360 -23.182  0.00  0.00     0.002 A 
ATOM     11  C   UNL d   1      33.001  18.836 -22.546  0.00  0.00     0.002 A 
ENDBRANCH   2   3
ENDBRANCH   1   2
BRANCH   1  12
ATOM     12  C   UNL d   1      33.214  22.957 -19.953  0.00  0.00     0.062 C 
BRANCH  12  13
ATOM     13  C   UNL d   1      33.046  23.082 -19.157  0.00  0.00     0.130 C 
BRANCH  13  14
ATOM     14  O   UNL d   1      32.266  23.221 -18.925  0.00  0.00    -0.305 OA
BRANCH  14  15
ATOM     15  C   UNL d   1      32.503  23.158 -18.137  0.00  0.00     0.100 A 
ATOM     16  C   UNL d   1      33.001  22.553 -17.907  0.00  0.00     0.025 A 
ATOM     17  C   UNL d   1      33.240  22.487 -17.120  0.00  0.00     0.002 A 
ATOM     18  C   UNL d   1      32.976  23.031 -16.566  0.00  0.00     0.000 A 
ATOM     19  C   UNL d   1      32.471  23.643 -16.802  0.00  0.00     0.002 A 
ATOM     20  C   UNL d   1      33.212  22.968 -15.778  0.00  0.00     0.000 C 
ATOM     21  C   UNL d   1      32.236  23.702 -17.590  0.00  0.00     0.025 A 
ENDBRANCH  14  15
ENDBRANCH  13  14
ENDBRANCH  12  13
ENDBRANCH   1  12
TORSDOF 6
ENDMDL
