MODEL 1
REMARK VINA RESULT:      21.4      0.000      0.000
REMARK  2 active torsions:
REMARK  status: ('A' for Active; 'I' for Inactive)
REMARK    1  A    between atoms: N_2  and  S_1 
REMARK    2  A    between atoms: C_3  and  S_1 
ROOT
ATOM      1  N   UNL d   1      59.000  49.662  50.116  0.00  0.00    -0.229 N 
ATOM      2  C   UNL d   1      59.185  49.682  50.911  0.00  0.00     0.092 A 
ATOM      3  C   UNL d   1      59.979  49.685  51.135  0.00  0.00     0.018 A 
ATOM      4  C   UNL d   1      59.590  49.645  49.537  0.00  0.00     0.092 A 
ATOM      5  C   UNL d   1      60.580  49.667  50.545  0.00  0.00     0.003 A 
ATOM      6  C   UNL d   1      60.365  49.648  49.753  0.00  0.00     0.020 A 
ATOM      7  C   UNL d   1      60.190  49.704  51.935  0.00  0.00     0.002 A 
ATOM      8  C   UNL d   1      61.371  49.670  50.777  0.00  0.00     0.000 A 
ATOM      9  C   UNL d   1      60.979  49.707  52.148  0.00  0.00     0.000 A 
ATOM     10  C   UNL d   1      61.570  49.690  51.569  0.00  0.00     0.000 A 
ENDROOT
BRANCH   1  11
ATOM     11  S   UNL d   1      58.181  49.660  49.888  0.00  0.00     0.277 S 
ATOM     12  O   UNL d   1      57.958  49.614  50.698  0.00  0.00    -0.199 OA
ATOM     13  O   UNL d   1      58.397  49.705  49.082  0.00  0.00    -0.199 OA
BRANCH  11  14
ATOM     14  C   UNL d   1      57.399  49.658  49.653  0.00  0.00     0.133 A 
ATOM     15  S   UNL d   1      56.772  49.676  50.162  0.00  0.00    -0.074 SA
ATOM     16  C   UNL d   1      56.045  49.668  49.700  0.00  0.00     0.036 A 
ATOM     17  C   UNL d   1      56.269  49.643  48.879  0.00  0.00     0.008 A 
ATOM     18  C   UNL d   1      57.081  49.637  48.855  0.00  0.00     0.020 A 
ENDBRANCH  11  14
ENDBRANCH   1  11
TORSDOF 2
ENDMDL
