MODEL 1
REMARK VINA RESULT:      -4.1      0.000      0.000
REMARK  5 active torsions:
REMARK  status: ('A' for Active; 'I' for Inactive)
REMARK    1  A    between atoms: C_12  and  C_1 
REMARK    2  A    between atoms: C_4  and  O_8 
REMARK       I    between atoms: N_11  and  C_4 
REMARK    3  A    between atoms: O_8  and  C_13 
REMARK    4  A    between atoms: C_17  and  N_11 
REMARK    5  A    between atoms: C_18  and  N_11 
ROOT
ATOM      1  C   UNL d   1      56.417  -0.560  32.567  0.00  0.00     0.064 A 
ATOM      2  C   UNL d   1      56.930  -0.109  32.100  0.00  0.00     0.199 A 
ATOM      3  C   UNL d   1      57.292  -0.456  31.446  0.00  0.00     0.062 A 
ATOM      4  C   UNL d   1      56.268  -1.350  32.382  0.00  0.00     0.126 A 
ATOM      5  C   UNL d   1      57.145  -1.245  31.259  0.00  0.00     0.105 A 
ATOM      6  O   UNL d   1      56.632  -1.696  31.726  0.00  0.00    -0.305 OA
ATOM      7  C   UNL d   1      57.512  -1.591  30.599  0.00  0.00     0.050 A 
ATOM      8  C   UNL d   1      57.812  -0.007  30.969  0.00  0.00     0.007 A 
ATOM      9  C   UNL d   1      58.023  -1.147  30.131  0.00  0.00     0.107 A 
ATOM     10  O   UNL d   1      57.079   0.682  32.284  0.00  0.00    -0.286 OA
ATOM     11  C   UNL d   1      58.173  -0.353  30.316  0.00  0.00     0.025 A 
ENDROOT
BRANCH   9  12
ATOM     12  O   UNL d   1      58.386  -1.491  29.478  0.00  0.00    -0.259 OA
BRANCH  12  13
ATOM     13  C   UNL d   1      59.160  -1.760  29.529  0.00  0.00     0.377 C 
ATOM     14  N   UNL d   1      59.412  -2.376  29.035  0.00  0.00    -0.252 N 
ATOM     15  O   UNL d   1      59.683  -1.421  30.068  0.00  0.00    -0.237 OA
BRANCH  14  16
ATOM     16  C   UNL d   1      58.892  -2.718  28.494  0.00  0.00     0.085 C 
ATOM     17  C   UNL d   1      58.832  -3.542  28.456  0.00  0.00     0.021 C 
ENDBRANCH  14  16
BRANCH  14  18
ATOM     18  C   UNL d   1      60.190  -2.646  29.086  0.00  0.00     0.085 C 
ATOM     19  C   UNL d   1      60.738  -2.462  28.497  0.00  0.00     0.021 C 
ENDBRANCH  14  18
ENDBRANCH  12  13
ENDBRANCH   9  12
BRANCH   1  20
ATOM     20  C   UNL d   1      56.050  -0.213  33.227  0.00  0.00     0.005 A 
ATOM     21  C   UNL d   1      56.518   0.099  33.830  0.00  0.00     0.000 A 
ATOM     22  C   UNL d   1      56.150   0.446  34.489  0.00  0.00     0.000 A 
ATOM     23  C   UNL d   1      55.329   0.475  34.537  0.00  0.00     0.000 A 
ATOM     24  C   UNL d   1      54.873   0.156  33.923  0.00  0.00     0.000 A 
ATOM     25  C   UNL d   1      55.236  -0.187  33.270  0.00  0.00     0.000 A 
ENDBRANCH   1  20
TORSDOF 5
ENDMDL
MODEL 2
REMARK VINA RESULT:      -2.0      1.579      5.275
REMARK  5 active torsions:
REMARK  status: ('A' for Active; 'I' for Inactive)
REMARK    1  A    between atoms: C_12  and  C_1 
REMARK    2  A    between atoms: C_4  and  O_8 
REMARK       I    between atoms: N_11  and  C_4 
REMARK    3  A    between atoms: O_8  and  C_13 
REMARK    4  A    between atoms: C_17  and  N_11 
REMARK    5  A    between atoms: C_18  and  N_11 
ROOT
ATOM      1  C   UNL d   1      58.848  -1.185  29.975  0.00  0.00     0.064 A 
ATOM      2  C   UNL d   1      58.737  -0.414  30.254  0.00  0.00     0.199 A 
ATOM      3  C   UNL d   1      58.106  -0.254  30.759  0.00  0.00     0.062 A 
ATOM      4  C   UNL d   1      58.333  -1.790  30.198  0.00  0.00     0.126 A 
ATOM      5  C   UNL d   1      57.590  -0.856  30.984  0.00  0.00     0.105 A 
ATOM      6  O   UNL d   1      57.701  -1.628  30.705  0.00  0.00    -0.305 OA
ATOM      7  C   UNL d   1      56.954  -0.691  31.493  0.00  0.00     0.050 A 
ATOM      8  C   UNL d   1      57.985   0.522  31.046  0.00  0.00     0.007 A 
ATOM      9  C   UNL d   1      56.839   0.074  31.774  0.00  0.00     0.107 A 
ATOM     10  O   UNL d   1      59.251   0.192  30.030  0.00  0.00    -0.286 OA
ATOM     11  C   UNL d   1      57.355   0.682  31.550  0.00  0.00     0.025 A 
ENDROOT
BRANCH   9  12
ATOM     12  O   UNL d   1      56.210   0.236  32.278  0.00  0.00    -0.259 OA
BRANCH  12  13
ATOM     13  C   UNL d   1      56.239   0.002  33.065  0.00  0.00     0.377 C 
ATOM     14  N   UNL d   1      55.610   0.191  33.570  0.00  0.00    -0.252 N 
ATOM     15  O   UNL d   1      56.888  -0.418  33.348  0.00  0.00    -0.237 OA
BRANCH  14  16
ATOM     16  C   UNL d   1      54.958   0.611  33.290  0.00  0.00     0.085 C 
ATOM     17  C   UNL d   1      54.281   0.670  33.762  0.00  0.00     0.021 C 
ENDBRANCH  14  16
BRANCH  14  18
ATOM     18  C   UNL d   1      55.640  -0.045  34.361  0.00  0.00     0.085 C 
ATOM     19  C   UNL d   1      55.607   0.514  34.967  0.00  0.00     0.021 C 
ENDBRANCH  14  18
ENDBRANCH  12  13
ENDBRANCH   9  12
BRANCH   1  20
ATOM     20  C   UNL d   1      59.483  -1.349  29.465  0.00  0.00     0.005 A 
ATOM     21  C   UNL d   1      59.555  -2.105  29.143  0.00  0.00     0.000 A 
ATOM     22  C   UNL d   1      60.191  -2.269  28.634  0.00  0.00     0.000 A 
ATOM     23  C   UNL d   1      60.740  -1.683  28.455  0.00  0.00     0.000 A 
ATOM     24  C   UNL d   1      60.653  -0.928  28.787  0.00  0.00     0.000 A 
ATOM     25  C   UNL d   1      60.025  -0.765  29.291  0.00  0.00     0.000 A 
ENDBRANCH   1  20
TORSDOF 5
ENDMDL
