MODEL 1
REMARK VINA RESULT:      29.1      0.000      0.000
REMARK  4 active torsions:
REMARK  status: ('A' for Active; 'I' for Inactive)
REMARK    1  A    between atoms: C_2  and  C_1 
REMARK    2  A    between atoms: C_13  and  N_5 
REMARK    3  A    between atoms: C_16  and  C_13 
REMARK    4  A    between atoms: C_17  and  C_16 
ROOT
ATOM      1  C   UNL d   1     -50.714  25.286  33.378  0.00  0.00     0.112 A 
ATOM      2  C   UNL d   1     -50.611  26.101  33.418  0.00  0.00     0.176 A 
ATOM      3  N   UNL d   1     -49.795  26.259  33.417  0.00  0.00    -0.285 N 
ATOM      4  C   UNL d   1     -49.962  24.940  33.351  0.00  0.00     0.219 A 
ATOM      5  C   UNL d   1     -49.403  25.539  33.375  0.00  0.00     0.124 A 
ATOM      6  O   UNL d   1     -49.800  24.124  33.308  0.00  0.00    -0.285 OA
ATOM      7  N   UNL d   1     -51.222  26.664  33.454  0.00  0.00    -0.128 N 
ENDROOT
BRANCH   1   8
ATOM      8  C   UNL d   1     -51.449  24.909  33.367  0.00  0.00     0.169 A 
ATOM      9  N   UNL d   1     -52.207  25.238  33.362  0.00  0.00    -0.225 NA
ATOM     10  C   UNL d   1     -52.752  24.625  33.352  0.00  0.00     0.101 A 
ATOM     11  C   UNL d   1     -53.576  24.621  33.343  0.00  0.00     0.021 A 
ATOM     12  C   UNL d   1     -52.335  23.912  33.350  0.00  0.00     0.101 A 
ATOM     13  C   UNL d   1     -53.990  23.901  33.333  0.00  0.00     0.002 A 
ATOM     14  C   UNL d   1     -53.573  23.188  33.331  0.00  0.00     0.002 A 
ATOM     15  C   UNL d   1     -52.742  23.196  33.340  0.00  0.00     0.021 A 
ATOM     16  N   UNL d   1     -51.536  24.090  33.360  0.00  0.00    -0.225 NA
ENDBRANCH   1   8
BRANCH   3  17
ATOM     17  C   UNL d   1     -49.446  27.011  33.451  0.00  0.00     0.082 C 
BRANCH  17  18
ATOM     18  C   UNL d   1     -49.125  27.270  34.152  0.00  0.00     0.019 C 
BRANCH  18  19
ATOM     19  C   UNL d   1     -49.106  28.078  34.321  0.00  0.00     0.002 C 
ATOM     20  C   UNL d   1     -48.682  28.347  34.967  0.00  0.00     0.000 C 
ENDBRANCH  18  19
ENDBRANCH  17  18
ENDBRANCH   3  17
TORSDOF 4
ENDMDL
