MODEL 1
REMARK VINA RESULT:      13.9      0.000      0.000
REMARK  4 active torsions:
REMARK  status: ('A' for Active; 'I' for Inactive)
REMARK    1  A    between atoms: N_5  and  C_1 
REMARK    2  A    between atoms: C_4  and  N_6 
REMARK    3  A    between atoms: N_11  and  C_4 
REMARK    4  A    between atoms: N_6  and  N_5 
ROOT
ATOM      1  C   UNL d   1     -51.820  25.185  33.317  0.00  0.00     0.768 A 
ATOM      2  N   UNL d   1     -52.252  25.884  33.309  0.00  0.00    -0.058 NA
ATOM      3  N   UNL d   1     -50.992  25.211  33.331  0.00  0.00    -0.058 NA
ATOM      4  C   UNL d   1     -51.864  26.614  33.314  0.00  0.00     0.102 A 
ATOM      5  C   UNL d   1     -50.604  25.940  33.336  0.00  0.00     0.102 A 
ATOM      6  C   UNL d   1     -51.036  26.640  33.328  0.00  0.00     0.040 A 
ATOM      7  C   UNL d   1     -49.779  25.968  33.349  0.00  0.00     0.021 C 
ATOM      8  C   UNL d   1     -52.299  27.315  33.306  0.00  0.00     0.021 C 
ENDROOT
BRANCH   1   9
ATOM      9  N   UNL d   1     -52.208  24.459  33.312  0.00  0.00     0.049 NA
BRANCH   9  10
ATOM     10  N   UNL d   1     -52.878  24.351  33.777  0.00  0.00    -0.101 NA
BRANCH  10  11
ATOM     11  C   UNL d   1     -53.175  23.597  33.892  0.00  0.00     0.241 C 
ATOM     12  S   UNL d   1     -53.623  23.240  33.307  0.00  0.00    -0.035 SA
BRANCH  11  13
ATOM     13  N   UNL d   1     -53.024  23.200  34.594  0.00  0.00    -0.213 NA
ATOM     14  C   UNL d   1     -53.566  23.234  35.211  0.00  0.00     0.122 C 
ENDBRANCH  11  13
ENDBRANCH  10  11
ENDBRANCH   9  10
ENDBRANCH   1   9
TORSDOF 4
ENDMDL
