MODEL 1
REMARK VINA RESULT:      -8.0      0.000      0.000
REMARK  6 active torsions:
REMARK  status: ('A' for Active; 'I' for Inactive)
REMARK    1  A    between atoms: N_9  and  C_1 
REMARK    2  A    between atoms: C_15  and  N_4 
REMARK    3  A    between atoms: C_7  and  N_9 
REMARK    4  A    between atoms: C_12  and  C_11 
REMARK    5  A    between atoms: C_13  and  C_12 
REMARK       I    between atoms: N_16  and  C_13 
REMARK    6  A    between atoms: C_20  and  N_16 
ROOT
ATOM      1  N   UNL d   1      51.717  34.274  52.182  0.00  0.00    -0.182 NA
ATOM      2  C   UNL d   1      51.365  34.093  52.908  0.00  0.00     0.197 A 
ATOM      3  C   UNL d   1      51.119  34.431  51.638  0.00  0.00     0.287 A 
ATOM      4  S   UNL d   1      50.543  34.139  52.810  0.00  0.00    -0.043 SA
ATOM      5  C   UNL d   1      50.398  34.347  52.029  0.00  0.00     0.095 A 
ATOM      6  O   UNL d   1      51.226  34.636  50.843  0.00  0.00    -0.265 OA
ENDROOT
BRANCH   2   7
ATOM      7  N   UNL d   1      51.764  33.901  53.604  0.00  0.00    -0.215 NA
BRANCH   7   8
ATOM      8  C   UNL d   1      52.347  33.330  53.596  0.00  0.00     0.159 A 
ATOM      9  C   UNL d   1      52.218  32.513  53.531  0.00  0.00     0.298 A 
ATOM     10  N   UNL d   1      52.959  32.140  53.546  0.00  0.00    -0.209 N 
ATOM     11  O   UNL d   1      51.491  32.142  53.463  0.00  0.00    -0.263 OA
ATOM     12  N   UNL d   1      53.537  32.723  53.621  0.00  0.00    -0.238 N 
ATOM     13  C   UNL d   1      53.158  33.460  53.652  0.00  0.00     0.104 A 
ATOM     14  C   UNL d   1      54.347  32.600  53.658  0.00  0.00     0.120 C 
ATOM     15  C   UNL d   1      53.521  34.190  53.725  0.00  0.00     0.022 C 
BRANCH  10  16
ATOM     16  C   UNL d   1      53.092  31.337  53.496  0.00  0.00     0.085 A 
ATOM     17  C   UNL d   1      53.330  30.915  54.168  0.00  0.00     0.019 A 
ATOM     18  C   UNL d   1      53.463  30.111  54.117  0.00  0.00     0.002 A 
ATOM     19  C   UNL d   1      53.362  29.709  53.396  0.00  0.00     0.000 A 
ATOM     20  C   UNL d   1      53.125  30.131  52.729  0.00  0.00     0.002 A 
ATOM     21  C   UNL d   1      52.990  30.943  52.779  0.00  0.00     0.019 A 
ENDBRANCH  10  16
ENDBRANCH   7   8
ENDBRANCH   2   7
BRANCH   5  22
ATOM     22  C   UNL d   1      49.655  34.455  51.686  0.00  0.00     0.074 C 
BRANCH  22  23
ATOM     23  C   UNL d   1      49.059  34.829  52.110  0.00  0.00     0.280 C 
ATOM     24  N   UNL d   1      48.449  35.213  51.720  0.00  0.00    -0.208 NA
ATOM     25  O   UNL d   1      49.071  34.820  52.937  0.00  0.00    -0.265 OA
BRANCH  24  26
ATOM     26  C   UNL d   1      47.854  35.586  52.147  0.00  0.00     0.085 A 
ATOM     27  C   UNL d   1      48.021  36.284  52.554  0.00  0.00     0.020 A 
ATOM     28  C   UNL d   1      47.425  36.661  52.983  0.00  0.00     0.013 A 
ATOM     29  C   UNL d   1      46.661  36.332  53.002  0.00  0.00     0.058 A 
ATOM     30  C   UNL d   1      46.502  35.639  52.596  0.00  0.00     0.013 A 
ATOM     31 CL   UNL d   1      46.066  36.709  53.431  0.00  0.00    -0.082 Cl
ATOM     32  C   UNL d   1      47.098  35.262  52.166  0.00  0.00     0.020 A 
ENDBRANCH  24  26
ENDBRANCH  22  23
ENDBRANCH   5  22
TORSDOF 6
ENDMDL
MODEL 2
REMARK VINA RESULT:      -7.9      1.134      1.947
REMARK  6 active torsions:
REMARK  status: ('A' for Active; 'I' for Inactive)
REMARK    1  A    between atoms: N_9  and  C_1 
REMARK    2  A    between atoms: C_15  and  N_4 
REMARK    3  A    between atoms: C_7  and  N_9 
REMARK    4  A    between atoms: C_12  and  C_11 
REMARK    5  A    between atoms: C_13  and  C_12 
REMARK       I    between atoms: N_16  and  C_13 
REMARK    6  A    between atoms: C_20  and  N_16 
ROOT
ATOM      1  N   UNL d   1      51.259  33.510  52.201  0.00  0.00    -0.182 NA
ATOM      2  C   UNL d   1      51.037  33.469  52.996  0.00  0.00     0.197 A 
ATOM      3  C   UNL d   1      50.881  34.157  51.862  0.00  0.00     0.287 A 
ATOM      4  S   UNL d   1      50.518  34.097  53.148  0.00  0.00    -0.043 SA
ATOM      5  C   UNL d   1      50.425  34.516  52.448  0.00  0.00     0.095 A 
ATOM      6  O   UNL d   1      50.947  34.402  51.073  0.00  0.00    -0.265 OA
ENDROOT
BRANCH   2   7
ATOM      7  N   UNL d   1      51.291  32.902  53.540  0.00  0.00    -0.215 NA
BRANCH   7   8
ATOM      8  C   UNL d   1      52.089  32.771  53.651  0.00  0.00     0.159 A 
ATOM      9  C   UNL d   1      52.597  33.249  54.100  0.00  0.00     0.298 A 
ATOM     10  N   UNL d   1      53.355  32.913  54.063  0.00  0.00    -0.209 N 
ATOM     11  O   UNL d   1      52.388  33.929  54.506  0.00  0.00    -0.263 OA
ATOM     12  N   UNL d   1      53.312  32.235  53.596  0.00  0.00    -0.238 N 
ATOM     13  C   UNL d   1      52.529  32.147  53.341  0.00  0.00     0.104 A 
ATOM     14  C   UNL d   1      53.934  31.733  53.413  0.00  0.00     0.120 C 
ATOM     15  C   UNL d   1      52.237  31.548  52.865  0.00  0.00     0.022 C 
BRANCH  10  16
ATOM     16  C   UNL d   1      54.025  33.204  54.426  0.00  0.00     0.085 A 
ATOM     17  C   UNL d   1      54.138  33.087  55.238  0.00  0.00     0.019 A 
ATOM     18  C   UNL d   1      54.809  33.379  55.601  0.00  0.00     0.002 A 
ATOM     19  C   UNL d   1      55.383  33.793  55.163  0.00  0.00     0.000 A 
ATOM     20  C   UNL d   1      55.268  33.907  54.355  0.00  0.00     0.002 A 
ATOM     21  C   UNL d   1      54.591  33.613  53.987  0.00  0.00     0.019 A 
ENDBRANCH  10  16
ENDBRANCH   7   8
ENDBRANCH   2   7
BRANCH   5  22
ATOM     22  C   UNL d   1      49.956  35.186  52.344  0.00  0.00     0.074 C 
BRANCH  22  23
ATOM     23  C   UNL d   1      49.207  35.218  52.681  0.00  0.00     0.280 C 
ATOM     24  N   UNL d   1      48.912  35.924  52.974  0.00  0.00    -0.208 NA
ATOM     25  O   UNL d   1      48.743  34.534  52.726  0.00  0.00    -0.265 OA
BRANCH  24  26
ATOM     26  C   UNL d   1      48.163  35.953  53.310  0.00  0.00     0.085 A 
ATOM     27  C   UNL d   1      48.085  35.988  54.130  0.00  0.00     0.020 A 
ATOM     28  C   UNL d   1      47.333  36.017  54.471  0.00  0.00     0.013 A 
ATOM     29  C   UNL d   1      46.661  36.010  53.982  0.00  0.00     0.058 A 
ATOM     30  C   UNL d   1      46.745  35.975  53.168  0.00  0.00     0.013 A 
ATOM     31 CL   UNL d   1      45.909  36.039  54.322  0.00  0.00    -0.082 Cl
ATOM     32  C   UNL d   1      47.496  35.946  52.828  0.00  0.00     0.020 A 
ENDBRANCH  24  26
ENDBRANCH  22  23
ENDBRANCH   5  22
TORSDOF 6
ENDMDL
MODEL 3
REMARK VINA RESULT:      -7.7      2.448      6.624
REMARK  6 active torsions:
REMARK  status: ('A' for Active; 'I' for Inactive)
REMARK    1  A    between atoms: N_9  and  C_1 
REMARK    2  A    between atoms: C_15  and  N_4 
REMARK    3  A    between atoms: C_7  and  N_9 
REMARK    4  A    between atoms: C_12  and  C_11 
REMARK    5  A    between atoms: C_13  and  C_12 
REMARK       I    between atoms: N_16  and  C_13 
REMARK    6  A    between atoms: C_20  and  N_16 
ROOT
ATOM      1  N   UNL d   1      47.938  35.529  51.544  0.00  0.00    -0.182 NA
ATOM      2  C   UNL d   1      48.065  35.773  52.324  0.00  0.00     0.197 A 
ATOM      3  C   UNL d   1      48.442  34.898  51.387  0.00  0.00     0.287 A 
ATOM      4  S   UNL d   1      48.653  35.288  52.649  0.00  0.00    -0.043 SA
ATOM      5  C   UNL d   1      48.881  34.752  52.070  0.00  0.00     0.095 A 
ATOM      6  O   UNL d   1      48.497  34.484  50.672  0.00  0.00    -0.265 OA
ENDROOT
BRANCH   2   7
ATOM      7  N   UNL d   1      47.674  36.392  52.706  0.00  0.00    -0.215 NA
BRANCH   7   8
ATOM      8  C   UNL d   1      46.902  36.297  52.951  0.00  0.00     0.159 A 
ATOM      9  C   UNL d   1      46.664  36.039  53.703  0.00  0.00     0.298 A 
ATOM     10  N   UNL d   1      45.834  36.022  53.712  0.00  0.00    -0.209 N 
ATOM     11  O   UNL d   1      47.159  35.837  54.324  0.00  0.00    -0.263 OA
ATOM     12  N   UNL d   1      45.566  36.268  52.972  0.00  0.00    -0.238 N 
ATOM     13  C   UNL d   1      46.226  36.438  52.502  0.00  0.00     0.104 A 
ATOM     14  C   UNL d   1      44.783  36.334  52.739  0.00  0.00     0.120 C 
ATOM     15  C   UNL d   1      46.216  36.700  51.726  0.00  0.00     0.022 C 
BRANCH  10  16
ATOM     16  C   UNL d   1      45.367  35.802  54.343  0.00  0.00     0.085 A 
ATOM     17  C   UNL d   1      45.082  35.025  54.394  0.00  0.00     0.019 A 
ATOM     18  C   UNL d   1      44.614  34.805  55.026  0.00  0.00     0.002 A 
ATOM     19  C   UNL d   1      44.419  35.353  55.621  0.00  0.00     0.000 A 
ATOM     20  C   UNL d   1      44.704  36.124  55.568  0.00  0.00     0.002 A 
ATOM     21  C   UNL d   1      45.177  36.348  54.930  0.00  0.00     0.019 A 
ENDBRANCH  10  16
ENDBRANCH   7   8
ENDBRANCH   2   7
BRANCH   5  22
ATOM     22  C   UNL d   1      49.453  34.164  52.153  0.00  0.00     0.074 C 
BRANCH  22  23
ATOM     23  C   UNL d   1      50.119  34.302  52.614  0.00  0.00     0.280 C 
ATOM     24  N   UNL d   1      50.832  33.941  52.435  0.00  0.00    -0.208 NA
ATOM     25  O   UNL d   1      50.073  34.809  53.267  0.00  0.00    -0.265 OA
BRANCH  24  26
ATOM     26  C   UNL d   1      51.496  34.081  52.898  0.00  0.00     0.085 A 
ATOM     27  C   UNL d   1      51.657  33.589  53.540  0.00  0.00     0.020 A 
ATOM     28  C   UNL d   1      52.323  33.728  54.008  0.00  0.00     0.013 A 
ATOM     29  C   UNL d   1      52.827  34.364  53.826  0.00  0.00     0.058 A 
ATOM     30  C   UNL d   1      52.662  34.849  53.187  0.00  0.00     0.013 A 
ATOM     31 CL   UNL d   1      53.493  34.502  54.293  0.00  0.00    -0.082 Cl
ATOM     32  C   UNL d   1      51.996  34.710  52.720  0.00  0.00     0.020 A 
ENDBRANCH  24  26
ENDBRANCH  22  23
ENDBRANCH   5  22
TORSDOF 6
ENDMDL
MODEL 4
REMARK VINA RESULT:      -7.0      2.246      6.548
REMARK  6 active torsions:
REMARK  status: ('A' for Active; 'I' for Inactive)
REMARK    1  A    between atoms: N_9  and  C_1 
REMARK    2  A    between atoms: C_15  and  N_4 
REMARK    3  A    between atoms: C_7  and  N_9 
REMARK    4  A    between atoms: C_12  and  C_11 
REMARK    5  A    between atoms: C_13  and  C_12 
REMARK       I    between atoms: N_16  and  C_13 
REMARK    6  A    between atoms: C_20  and  N_16 
ROOT
ATOM      1  N   UNL d   1      49.193  35.180  51.876  0.00  0.00    -0.182 NA
ATOM      2  C   UNL d   1      49.128  35.436  52.660  0.00  0.00     0.197 A 
ATOM      3  C   UNL d   1      49.650  34.495  51.867  0.00  0.00     0.287 A 
ATOM      4  S   UNL d   1      49.547  34.905  53.137  0.00  0.00    -0.043 SA
ATOM      5  C   UNL d   1      49.866  34.329  52.646  0.00  0.00     0.095 A 
ATOM      6  O   UNL d   1      49.854  34.055  51.197  0.00  0.00    -0.265 OA
ENDROOT
BRANCH   2   7
ATOM      7  N   UNL d   1      48.716  36.104  52.917  0.00  0.00    -0.215 NA
BRANCH   7   8
ATOM      8  C   UNL d   1      47.911  36.062  53.049  0.00  0.00     0.159 A 
ATOM      9  C   UNL d   1      47.326  36.058  52.461  0.00  0.00     0.298 A 
ATOM     10  N   UNL d   1      46.590  36.009  52.840  0.00  0.00    -0.209 N 
ATOM     11  O   UNL d   1      47.454  36.095  51.652  0.00  0.00    -0.263 OA
ATOM     12  N   UNL d   1      46.722  35.984  53.653  0.00  0.00    -0.238 N 
ATOM     13  C   UNL d   1      47.540  36.016  53.783  0.00  0.00     0.104 A 
ATOM     14  C   UNL d   1      46.147  35.935  54.235  0.00  0.00     0.120 C 
ATOM     15  C   UNL d   1      47.917  36.006  54.509  0.00  0.00     0.022 C 
BRANCH  10  16
ATOM     16  C   UNL d   1      45.863  35.990  52.471  0.00  0.00     0.085 A 
ATOM     17  C   UNL d   1      45.468  36.698  52.300  0.00  0.00     0.019 A 
ATOM     18  C   UNL d   1      44.739  36.678  51.931  0.00  0.00     0.002 A 
ATOM     19  C   UNL d   1      44.389  35.952  51.724  0.00  0.00     0.000 A 
ATOM     20  C   UNL d   1      44.784  35.250  51.895  0.00  0.00     0.002 A 
ATOM     21  C   UNL d   1      45.519  35.268  52.267  0.00  0.00     0.019 A 
ENDBRANCH  10  16
ENDBRANCH   7   8
ENDBRANCH   2   7
BRANCH   5  22
ATOM     22  C   UNL d   1      50.327  33.688  52.886  0.00  0.00     0.074 C 
BRANCH  22  23
ATOM     23  C   UNL d   1      51.107  33.807  53.116  0.00  0.00     0.280 C 
ATOM     24  N   UNL d   1      51.534  33.204  53.469  0.00  0.00    -0.208 NA
ATOM     25  O   UNL d   1      51.468  34.541  52.990  0.00  0.00    -0.265 OA
BRANCH  24  26
ATOM     26  C   UNL d   1      52.313  33.326  53.697  0.00  0.00     0.085 A 
ATOM     27  C   UNL d   1      52.925  33.017  53.240  0.00  0.00     0.020 A 
ATOM     28  C   UNL d   1      53.710  33.138  53.467  0.00  0.00     0.013 A 
ATOM     29  C   UNL d   1      53.875  33.573  54.156  0.00  0.00     0.058 A 
ATOM     30  C   UNL d   1      53.263  33.878  54.606  0.00  0.00     0.013 A 
ATOM     31 CL   UNL d   1      54.659  33.694  54.383  0.00  0.00    -0.082 Cl
ATOM     32  C   UNL d   1      52.478  33.756  54.379  0.00  0.00     0.020 A 
ENDBRANCH  24  26
ENDBRANCH  22  23
ENDBRANCH   5  22
TORSDOF 6
ENDMDL
MODEL 5
REMARK VINA RESULT:      -6.7      2.351      6.352
REMARK  6 active torsions:
REMARK  status: ('A' for Active; 'I' for Inactive)
REMARK    1  A    between atoms: N_9  and  C_1 
REMARK    2  A    between atoms: C_15  and  N_4 
REMARK    3  A    between atoms: C_7  and  N_9 
REMARK    4  A    between atoms: C_12  and  C_11 
REMARK    5  A    between atoms: C_13  and  C_12 
REMARK       I    between atoms: N_16  and  C_13 
REMARK    6  A    between atoms: C_20  and  N_16 
ROOT
ATOM      1  N   UNL d   1      49.952  33.925  53.013  0.00  0.00    -0.182 NA
ATOM      2  C   UNL d   1      50.337  34.467  52.521  0.00  0.00     0.197 A 
ATOM      3  C   UNL d   1      50.476  33.313  53.181  0.00  0.00     0.287 A 
ATOM      4  S   UNL d   1      51.105  34.187  52.386  0.00  0.00    -0.043 SA
ATOM      5  C   UNL d   1      51.185  33.478  52.793  0.00  0.00     0.095 A 
ATOM      6  O   UNL d   1      50.318  32.652  53.654  0.00  0.00    -0.265 OA
ENDROOT
BRANCH   2   7
ATOM      7  N   UNL d   1      50.011  35.164  52.221  0.00  0.00    -0.215 NA
BRANCH   7   8
ATOM      8  C   UNL d   1      49.202  35.230  52.132  0.00  0.00     0.159 A 
ATOM      9  C   UNL d   1      48.687  35.597  52.669  0.00  0.00     0.298 A 
ATOM     10  N   UNL d   1      47.920  35.538  52.361  0.00  0.00    -0.209 N 
ATOM     11  O   UNL d   1      48.900  35.953  53.376  0.00  0.00    -0.263 OA
ATOM     12  N   UNL d   1      47.963  35.139  51.641  0.00  0.00    -0.238 N 
ATOM     13  C   UNL d   1      48.757  34.948  51.499  0.00  0.00     0.104 A 
ATOM     14  C   UNL d   1      47.333  34.959  51.148  0.00  0.00     0.120 C 
ATOM     15  C   UNL d   1      49.053  34.550  50.848  0.00  0.00     0.022 C 
BRANCH  10  16
ATOM     16  C   UNL d   1      47.241  35.825  52.709  0.00  0.00     0.085 A 
ATOM     17  C   UNL d   1      47.000  35.534  53.446  0.00  0.00     0.019 A 
ATOM     18  C   UNL d   1      46.320  35.822  53.795  0.00  0.00     0.002 A 
ATOM     19  C   UNL d   1      45.864  36.407  53.417  0.00  0.00     0.000 A 
ATOM     20  C   UNL d   1      46.106  36.695  52.684  0.00  0.00     0.002 A 
ATOM     21  C   UNL d   1      46.792  36.405  52.331  0.00  0.00     0.019 A 
ENDBRANCH  10  16
ENDBRANCH   7   8
ENDBRANCH   2   7
BRANCH   5  22
ATOM     22  C   UNL d   1      51.861  33.005  52.814  0.00  0.00     0.074 C 
BRANCH  22  23
ATOM     23  C   UNL d   1      52.537  33.272  53.197  0.00  0.00     0.280 C 
ATOM     24  N   UNL d   1      52.969  32.770  53.679  0.00  0.00    -0.208 NA
ATOM     25  O   UNL d   1      52.786  34.055  53.099  0.00  0.00    -0.265 OA
BRANCH  24  26
ATOM     26  C   UNL d   1      53.644  33.040  54.061  0.00  0.00     0.085 A 
ATOM     27  C   UNL d   1      53.584  33.355  54.821  0.00  0.00     0.020 A 
ATOM     28  C   UNL d   1      54.261  33.628  55.207  0.00  0.00     0.013 A 
ATOM     29  C   UNL d   1      54.998  33.582  54.825  0.00  0.00     0.058 A 
ATOM     30  C   UNL d   1      55.051  33.269  54.071  0.00  0.00     0.013 A 
ATOM     31 CL   UNL d   1      55.675  33.855  55.211  0.00  0.00    -0.082 Cl
ATOM     32  C   UNL d   1      54.374  32.996  53.684  0.00  0.00     0.020 A 
ENDBRANCH  24  26
ENDBRANCH  22  23
ENDBRANCH   5  22
TORSDOF 6
ENDMDL
MODEL 6
REMARK VINA RESULT:      -6.3      1.734      2.902
REMARK  6 active torsions:
REMARK  status: ('A' for Active; 'I' for Inactive)
REMARK    1  A    between atoms: N_9  and  C_1 
REMARK    2  A    between atoms: C_15  and  N_4 
REMARK    3  A    between atoms: C_7  and  N_9 
REMARK    4  A    between atoms: C_12  and  C_11 
REMARK    5  A    between atoms: C_13  and  C_12 
REMARK       I    between atoms: N_16  and  C_13 
REMARK    6  A    between atoms: C_20  and  N_16 
ROOT
ATOM      1  N   UNL d   1      53.816  33.319  54.373  0.00  0.00    -0.182 NA
ATOM      2  C   UNL d   1      53.543  33.036  53.646  0.00  0.00     0.197 A 
ATOM      3  C   UNL d   1      53.358  33.969  54.584  0.00  0.00     0.287 A 
ATOM      4  S   UNL d   1      52.911  33.517  53.408  0.00  0.00    -0.043 SA
ATOM      5  C   UNL d   1      52.802  34.088  53.987  0.00  0.00     0.095 A 
ATOM      6  O   UNL d   1      53.442  34.422  55.273  0.00  0.00    -0.265 OA
ENDROOT
BRANCH   2   7
ATOM      7  N   UNL d   1      53.848  32.389  53.233  0.00  0.00    -0.215 NA
BRANCH   7   8
ATOM      8  C   UNL d   1      53.535  31.645  53.352  0.00  0.00     0.159 A 
ATOM      9  C   UNL d   1      53.750  31.123  53.960  0.00  0.00     0.298 A 
ATOM     10  N   UNL d   1      53.297  30.434  53.872  0.00  0.00    -0.209 N 
ATOM     11  O   UNL d   1      54.310  31.264  54.542  0.00  0.00    -0.263 OA
ATOM     12  N   UNL d   1      52.808  30.532  53.216  0.00  0.00    -0.238 N 
ATOM     13  C   UNL d   1      52.955  31.281  52.894  0.00  0.00     0.104 A 
ATOM     14  C   UNL d   1      52.268  29.986  52.930  0.00  0.00     0.120 C 
ATOM     15  C   UNL d   1      52.591  31.608  52.237  0.00  0.00     0.022 C 
BRANCH  10  16
ATOM     16  C   UNL d   1      53.330  29.776  54.352  0.00  0.00     0.085 A 
ATOM     17  C   UNL d   1      53.002  29.802  55.112  0.00  0.00     0.019 A 
ATOM     18  C   UNL d   1      53.036  29.142  55.592  0.00  0.00     0.002 A 
ATOM     19  C   UNL d   1      53.397  28.441  55.326  0.00  0.00     0.000 A 
ATOM     20  C   UNL d   1      53.722  28.418  54.569  0.00  0.00     0.002 A 
ATOM     21  C   UNL d   1      53.689  29.083  54.083  0.00  0.00     0.019 A 
ENDBRANCH  10  16
ENDBRANCH   7   8
ENDBRANCH   2   7
BRANCH   5  22
ATOM     22  C   UNL d   1      52.232  34.684  53.978  0.00  0.00     0.074 C 
BRANCH  22  23
ATOM     23  C   UNL d   1      51.674  34.710  53.375  0.00  0.00     0.280 C 
ATOM     24  N   UNL d   1      50.887  34.545  53.528  0.00  0.00    -0.208 NA
ATOM     25  O   UNL d   1      51.907  34.903  52.605  0.00  0.00    -0.265 OA
BRANCH  24  26
ATOM     26  C   UNL d   1      50.333  34.571  52.922  0.00  0.00     0.085 A 
ATOM     27  C   UNL d   1      49.627  34.984  53.032  0.00  0.00     0.020 A 
ATOM     28  C   UNL d   1      49.068  35.012  52.425  0.00  0.00     0.013 A 
ATOM     29  C   UNL d   1      49.223  34.624  51.707  0.00  0.00     0.058 A 
ATOM     30  C   UNL d   1      49.925  34.216  51.603  0.00  0.00     0.013 A 
ATOM     31 CL   UNL d   1      48.664  34.652  51.100  0.00  0.00    -0.082 Cl
ATOM     32  C   UNL d   1      50.484  34.188  52.210  0.00  0.00     0.020 A 
ENDBRANCH  24  26
ENDBRANCH  22  23
ENDBRANCH   5  22
TORSDOF 6
ENDMDL
MODEL 7
REMARK VINA RESULT:      -5.9      1.985      3.055
REMARK  6 active torsions:
REMARK  status: ('A' for Active; 'I' for Inactive)
REMARK    1  A    between atoms: N_9  and  C_1 
REMARK    2  A    between atoms: C_15  and  N_4 
REMARK    3  A    between atoms: C_7  and  N_9 
REMARK    4  A    between atoms: C_12  and  C_11 
REMARK    5  A    between atoms: C_13  and  C_12 
REMARK       I    between atoms: N_16  and  C_13 
REMARK    6  A    between atoms: C_20  and  N_16 
ROOT
ATOM      1  N   UNL d   1      48.812  34.942  51.726  0.00  0.00    -0.182 NA
ATOM      2  C   UNL d   1      49.150  34.666  52.428  0.00  0.00     0.197 A 
ATOM      3  C   UNL d   1      48.351  35.600  51.904  0.00  0.00     0.287 A 
ATOM      4  S   UNL d   1      48.895  35.158  53.043  0.00  0.00    -0.043 SA
ATOM      5  C   UNL d   1      48.405  35.730  52.717  0.00  0.00     0.095 A 
ATOM      6  O   UNL d   1      47.913  36.049  51.363  0.00  0.00    -0.265 OA
ENDROOT
BRANCH   2   7
ATOM      7  N   UNL d   1      49.652  34.015  52.499  0.00  0.00    -0.215 NA
BRANCH   7   8
ATOM      8  C   UNL d   1      50.457  34.126  52.581  0.00  0.00     0.159 A 
ATOM      9  C   UNL d   1      50.870  34.137  53.300  0.00  0.00     0.298 A 
ATOM     10  N   UNL d   1      51.671  34.266  53.128  0.00  0.00    -0.209 N 
ATOM     11  O   UNL d   1      50.545  34.037  54.046  0.00  0.00    -0.263 OA
ATOM     12  N   UNL d   1      51.749  34.334  52.310  0.00  0.00    -0.238 N 
ATOM     13  C   UNL d   1      50.997  34.248  51.972  0.00  0.00     0.104 A 
ATOM     14  C   UNL d   1      52.446  34.465  51.899  0.00  0.00     0.120 C 
ATOM     15  C   UNL d   1      50.817  34.277  51.174  0.00  0.00     0.022 C 
BRANCH  10  16
ATOM     16  C   UNL d   1      52.276  34.316  53.673  0.00  0.00     0.085 A 
ATOM     17  C   UNL d   1      52.645  33.626  53.945  0.00  0.00     0.019 A 
ATOM     18  C   UNL d   1      53.250  33.677  54.490  0.00  0.00     0.002 A 
ATOM     19  C   UNL d   1      53.502  34.417  54.777  0.00  0.00     0.000 A 
ATOM     20  C   UNL d   1      53.133  35.102  54.505  0.00  0.00     0.002 A 
ATOM     21  C   UNL d   1      52.521  35.052  53.954  0.00  0.00     0.019 A 
ENDBRANCH  10  16
ENDBRANCH   7   8
ENDBRANCH   2   7
BRANCH   5  22
ATOM     22  C   UNL d   1      48.026  36.337  53.128  0.00  0.00     0.074 C 
BRANCH  22  23
ATOM     23  C   UNL d   1      47.452  36.156  53.688  0.00  0.00     0.280 C 
ATOM     24  N   UNL d   1      46.682  36.421  53.597  0.00  0.00    -0.208 NA
ATOM     25  O   UNL d   1      47.650  35.703  54.352  0.00  0.00    -0.265 OA
BRANCH  24  26
ATOM     26  C   UNL d   1      46.112  36.239  54.158  0.00  0.00     0.085 A 
ATOM     27  C   UNL d   1      46.040  36.706  54.834  0.00  0.00     0.020 A 
ATOM     28  C   UNL d   1      45.467  36.525  55.400  0.00  0.00     0.013 A 
ATOM     29  C   UNL d   1      44.967  35.872  55.283  0.00  0.00     0.058 A 
ATOM     30  C   UNL d   1      45.043  35.411  54.611  0.00  0.00     0.013 A 
ATOM     31 CL   UNL d   1      44.394  35.691  55.850  0.00  0.00    -0.082 Cl
ATOM     32  C   UNL d   1      45.616  35.592  54.044  0.00  0.00     0.020 A 
ENDBRANCH  24  26
ENDBRANCH  22  23
ENDBRANCH   5  22
TORSDOF 6
ENDMDL
MODEL 8
REMARK VINA RESULT:      -5.4      2.072      6.224
REMARK  6 active torsions:
REMARK  status: ('A' for Active; 'I' for Inactive)
REMARK    1  A    between atoms: N_9  and  C_1 
REMARK    2  A    between atoms: C_15  and  N_4 
REMARK    3  A    between atoms: C_7  and  N_9 
REMARK    4  A    between atoms: C_12  and  C_11 
REMARK    5  A    between atoms: C_13  and  C_12 
REMARK       I    between atoms: N_16  and  C_13 
REMARK    6  A    between atoms: C_20  and  N_16 
ROOT
ATOM      1  N   UNL d   1      50.949  34.700  52.537  0.00  0.00    -0.182 NA
ATOM      2  C   UNL d   1      50.607  33.955  52.428  0.00  0.00     0.197 A 
ATOM      3  C   UNL d   1      51.735  34.593  52.755  0.00  0.00     0.287 A 
ATOM      4  S   UNL d   1      51.189  33.385  52.580  0.00  0.00    -0.043 SA
ATOM      5  C   UNL d   1      51.879  33.781  52.780  0.00  0.00     0.095 A 
ATOM      6  O   UNL d   1      52.282  35.194  52.918  0.00  0.00    -0.265 OA
ENDROOT
BRANCH   2   7
ATOM      7  N   UNL d   1      49.825  33.809  52.207  0.00  0.00    -0.215 NA
BRANCH   7   8
ATOM      8  C   UNL d   1      49.280  34.417  52.211  0.00  0.00     0.159 A 
ATOM      9  C   UNL d   1      48.895  34.714  52.883  0.00  0.00     0.298 A 
ATOM     10  N   UNL d   1      48.392  35.325  52.635  0.00  0.00    -0.209 N 
ATOM     11  O   UNL d   1      48.995  34.451  53.653  0.00  0.00    -0.263 OA
ATOM     12  N   UNL d   1      48.468  35.402  51.818  0.00  0.00    -0.238 N 
ATOM     13  C   UNL d   1      49.017  34.840  51.555  0.00  0.00     0.104 A 
ATOM     14  C   UNL d   1      48.070  35.940  51.343  0.00  0.00     0.120 C 
ATOM     15  C   UNL d   1      49.260  34.722  50.782  0.00  0.00     0.022 C 
BRANCH  10  16
ATOM     16  C   UNL d   1      47.908  35.771  53.116  0.00  0.00     0.085 A 
ATOM     17  C   UNL d   1      47.086  35.740  53.017  0.00  0.00     0.019 A 
ATOM     18  C   UNL d   1      46.601  36.187  53.499  0.00  0.00     0.002 A 
ATOM     19  C   UNL d   1      46.924  36.675  54.090  0.00  0.00     0.000 A 
ATOM     20  C   UNL d   1      47.742  36.704  54.187  0.00  0.00     0.002 A 
ATOM     21  C   UNL d   1      48.233  36.253  53.701  0.00  0.00     0.019 A 
ENDBRANCH  10  16
ENDBRANCH   7   8
ENDBRANCH   2   7
BRANCH   5  22
ATOM     22  C   UNL d   1      52.600  33.431  52.975  0.00  0.00     0.074 C 
BRANCH  22  23
ATOM     23  C   UNL d   1      52.620  32.654  53.242  0.00  0.00     0.280 C 
ATOM     24  N   UNL d   1      53.186  32.132  52.964  0.00  0.00    -0.208 NA
ATOM     25  O   UNL d   1      52.064  32.394  53.798  0.00  0.00    -0.265 OA
BRANCH  24  26
ATOM     26  C   UNL d   1      53.203  31.356  53.233  0.00  0.00     0.085 A 
ATOM     27  C   UNL d   1      52.798  30.771  52.817  0.00  0.00     0.020 A 
ATOM     28  C   UNL d   1      52.813  29.990  53.086  0.00  0.00     0.013 A 
ATOM     29  C   UNL d   1      53.237  29.802  53.776  0.00  0.00     0.058 A 
ATOM     30  C   UNL d   1      53.636  30.387  54.185  0.00  0.00     0.013 A 
ATOM     31 CL   UNL d   1      53.252  29.021  54.044  0.00  0.00    -0.082 Cl
ATOM     32  C   UNL d   1      53.622  31.168  53.916  0.00  0.00     0.020 A 
ENDBRANCH  24  26
ENDBRANCH  22  23
ENDBRANCH   5  22
TORSDOF 6
ENDMDL
