MODEL 1
REMARK VINA RESULT:      -3.4      0.000      0.000
REMARK  6 active torsions:
REMARK  status: ('A' for Active; 'I' for Inactive)
REMARK    1  A    between atoms: C_2  and  S_1 
REMARK    2  A    between atoms: N_8  and  S_1 
REMARK    3  A    between atoms: O_15  and  C_3 
REMARK    4  A    between atoms: C_14  and  N_8 
REMARK    5  A    between atoms: N_10  and  C_17 
REMARK    6  A    between atoms: C_17  and  C_14 
ROOT
ATOM      1  S   UNL d   1      58.108  -0.106  30.168  0.00  0.00     0.287 S 
ATOM      2  O   UNL d   1      58.468  -0.352  30.876  0.00  0.00    -0.198 OA
ATOM      3  O   UNL d   1      57.754   0.135  29.465  0.00  0.00    -0.198 OA
ENDROOT
BRANCH   1   4
ATOM      4  C   UNL d   1      58.591  -0.623  29.748  0.00  0.00     0.128 A 
ATOM      5  C   UNL d   1      59.306  -0.355  29.421  0.00  0.00     0.118 A 
ATOM      6  C   UNL d   1      59.789  -0.873  29.001  0.00  0.00     0.091 A 
ATOM      7 CL   UNL d   1      60.497  -0.603  28.679  0.00  0.00    -0.079 Cl
ATOM      8  C   UNL d   1      59.564  -1.660  28.902  0.00  0.00     0.070 A 
ATOM      9  C   UNL d   1      58.856  -1.931  29.225  0.00  0.00     0.013 A 
ATOM     10 CL   UNL d   1      60.047  -2.178  28.482  0.00  0.00    -0.081 Cl
ATOM     11  C   UNL d   1      58.366  -1.411  29.649  0.00  0.00     0.016 A 
BRANCH   5  12
ATOM     12  O   UNL d   1      59.531   0.432  29.520  0.00  0.00    -0.327 OA
ATOM     13  C   UNL d   1      60.278   0.682  29.277  0.00  0.00     0.181 C 
ENDBRANCH   5  12
ENDBRANCH   1   4
BRANCH   1  14
ATOM     14  N   UNL d   1      57.624   0.413  30.592  0.00  0.00    -0.155 NA
BRANCH  14  15
ATOM     15  C   UNL d   1      57.280   0.170  31.301  0.00  0.00     0.131 C 
BRANCH  15  16
ATOM     16  C   UNL d   1      56.734   0.657  31.679  0.00  0.00     0.102 C 
BRANCH  16  17
ATOM     17  N   UNL d   1      56.454   0.454  32.426  0.00  0.00    -0.298 N 
ATOM     18  C   UNL d   1      56.881   0.674  33.106  0.00  0.00     0.107 A 
ATOM     19  C   UNL d   1      56.604   0.473  33.851  0.00  0.00     0.142 A 
ATOM     20  O   UNL d   1      55.899   0.051  33.930  0.00  0.00    -0.300 OA
ATOM     21  C   UNL d   1      55.474  -0.168  33.253  0.00  0.00     0.142 A 
ATOM     22  C   UNL d   1      55.750   0.033  32.499  0.00  0.00     0.107 A 
ENDBRANCH  16  17
ENDBRANCH  15  16
ENDBRANCH  14  15
ENDBRANCH   1  14
TORSDOF 6
ENDMDL
MODEL 2
REMARK VINA RESULT:      -0.5      1.914      2.814
REMARK  6 active torsions:
REMARK  status: ('A' for Active; 'I' for Inactive)
REMARK    1  A    between atoms: C_2  and  S_1 
REMARK    2  A    between atoms: N_8  and  S_1 
REMARK    3  A    between atoms: O_15  and  C_3 
REMARK    4  A    between atoms: C_14  and  N_8 
REMARK    5  A    between atoms: N_10  and  C_17 
REMARK    6  A    between atoms: C_17  and  C_14 
ROOT
ATOM      1  S   UNL d   1      58.757  -2.032  29.313  0.00  0.00     0.287 S 
ATOM      2  O   UNL d   1      58.225  -2.598  29.610  0.00  0.00    -0.198 OA
ATOM      3  O   UNL d   1      59.285  -1.474  29.019  0.00  0.00    -0.198 OA
ENDROOT
BRANCH   1   4
ATOM      4  C   UNL d   1      59.297  -2.631  29.149  0.00  0.00     0.128 A 
ATOM      5  C   UNL d   1      59.032  -3.373  28.889  0.00  0.00     0.118 A 
ATOM      6  C   UNL d   1      59.572  -3.973  28.725  0.00  0.00     0.091 A 
ATOM      7 CL   UNL d   1      59.305  -4.707  28.468  0.00  0.00    -0.079 Cl
ATOM      8  C   UNL d   1      60.380  -3.837  28.819  0.00  0.00     0.070 A 
ATOM      9  C   UNL d   1      60.648  -3.101  29.077  0.00  0.00     0.013 A 
ATOM     10 CL   UNL d   1      60.921  -4.435  28.655  0.00  0.00    -0.081 Cl
ATOM     11  C   UNL d   1      60.105  -2.495  29.243  0.00  0.00     0.016 A 
BRANCH   5  12
ATOM     12  O   UNL d   1      58.223  -3.509  28.796  0.00  0.00    -0.327 OA
ATOM     13  C   UNL d   1      57.958  -4.226  28.488  0.00  0.00     0.181 C 
ENDBRANCH   5  12
ENDBRANCH   1   4
BRANCH   1  14
ATOM     14  N   UNL d   1      58.212  -1.432  29.479  0.00  0.00    -0.155 NA
BRANCH  14  15
ATOM     15  C   UNL d   1      58.364  -0.894  30.084  0.00  0.00     0.131 C 
BRANCH  15  16
ATOM     16  C   UNL d   1      57.880  -0.235  30.177  0.00  0.00     0.102 C 
BRANCH  16  17
ATOM     17  N   UNL d   1      57.742   0.070  30.930  0.00  0.00    -0.298 N 
ATOM     18  C   UNL d   1      56.975   0.309  31.150  0.00  0.00     0.107 A 
ATOM     19  C   UNL d   1      56.835   0.612  31.898  0.00  0.00     0.142 A 
ATOM     20  O   UNL d   1      57.455   0.681  32.438  0.00  0.00    -0.300 OA
ATOM     21  C   UNL d   1      58.219   0.443  32.220  0.00  0.00     0.142 A 
ATOM     22  C   UNL d   1      58.364   0.137  31.464  0.00  0.00     0.107 A 
ENDBRANCH  16  17
ENDBRANCH  15  16
ENDBRANCH  14  15
ENDBRANCH   1  14
TORSDOF 6
ENDMDL
