MODEL 1
REMARK VINA RESULT:      -6.7      0.000      0.000
REMARK  5 active torsions:
REMARK  status: ('A' for Active; 'I' for Inactive)
REMARK    1  A    between atoms: N_10  and  C_2 
REMARK    2  A    between atoms: C_14  and  C_3 
REMARK    3  A    between atoms: C_5  and  S_13 
REMARK       I    between atoms: C_12  and  N_10 
REMARK    4  A    between atoms: C_16  and  C_12 
REMARK    5  A    between atoms: S_13  and  C_16 
ROOT
ATOM      1  N   UNL d   1     -48.320  13.774  23.436  0.00  0.00    -0.051 NA
ATOM      2  C   UNL d   1     -47.708  13.462  22.984  0.00  0.00     0.760 A 
ATOM      3  C   UNL d   1     -48.895  14.048  22.922  0.00  0.00     0.147 A 
ATOM      4  N   UNL d   1     -47.903  13.543  22.199  0.00  0.00    -0.019 NA
ATOM      5  S   UNL d   1     -48.639  13.906  22.160  0.00  0.00     0.052 SA
ENDROOT
BRANCH   2   6
ATOM      6  N   UNL d   1     -47.002  13.119  23.278  0.00  0.00    -0.018 NA
ATOM      7  C   UNL d   1     -46.939  12.307  23.357  0.00  0.00     0.302 C 
ATOM      8  O   UNL d   1     -47.572  11.828  23.147  0.00  0.00    -0.264 OA
BRANCH   7   9
ATOM      9  C   UNL d   1     -46.245  11.968  23.647  0.00  0.00     0.100 C 
BRANCH   9  10
ATOM     10  S   UNL d   1     -46.019  11.214  23.392  0.00  0.00    -0.054 SA
BRANCH  10  11
ATOM     11  C   UNL d   1     -45.220  11.011  23.350  0.00  0.00     0.164 A 
ATOM     12  S   UNL d   1     -44.886  10.319  23.632  0.00  0.00    -0.039 SA
ATOM     13  C   UNL d   1     -44.071  10.348  23.474  0.00  0.00     0.134 A 
ATOM     14  C   UNL d   1     -43.516   9.763  23.664  0.00  0.00     0.030 C 
ATOM     15  N   UNL d   1     -43.911  11.063  23.092  0.00  0.00    -0.140 NA
ATOM     16  N   UNL d   1     -44.621  11.476  23.014  0.00  0.00    -0.134 NA
ENDBRANCH  10  11
ENDBRANCH   9  10
ENDBRANCH   7   9
ENDBRANCH   2   6
BRANCH   3  17
ATOM     17  C   UNL d   1     -49.616  14.408  23.101  0.00  0.00     0.026 A 
ATOM     18  C   UNL d   1     -49.627  15.136  23.487  0.00  0.00     0.002 A 
ATOM     19  C   UNL d   1     -50.352  15.497  23.666  0.00  0.00     0.000 A 
ATOM     20  C   UNL d   1     -51.058  15.137  23.463  0.00  0.00     0.000 A 
ATOM     21  C   UNL d   1     -51.047  14.410  23.077  0.00  0.00     0.000 A 
ATOM     22  C   UNL d   1     -50.321  14.041  22.894  0.00  0.00     0.002 A 
ENDBRANCH   3  17
TORSDOF 5
ENDMDL
MODEL 2
REMARK VINA RESULT:      -6.4      1.984      2.223
REMARK  5 active torsions:
REMARK  status: ('A' for Active; 'I' for Inactive)
REMARK    1  A    between atoms: N_10  and  C_2 
REMARK    2  A    between atoms: C_14  and  C_3 
REMARK    3  A    between atoms: C_5  and  S_13 
REMARK       I    between atoms: C_12  and  N_10 
REMARK    4  A    between atoms: C_16  and  C_12 
REMARK    5  A    between atoms: S_13  and  C_16 
ROOT
ATOM      1  N   UNL d   1     -48.125  13.034  23.274  0.00  0.00    -0.051 NA
ATOM      2  C   UNL d   1     -47.584  13.624  23.085  0.00  0.00     0.760 A 
ATOM      3  C   UNL d   1     -48.875  13.353  23.204  0.00  0.00     0.147 A 
ATOM      4  N   UNL d   1     -47.997  14.300  22.902  0.00  0.00    -0.019 NA
ATOM      5  S   UNL d   1     -48.798  14.133  22.975  0.00  0.00     0.052 SA
ENDROOT
BRANCH   2   6
ATOM      6  N   UNL d   1     -46.749  13.546  23.082  0.00  0.00    -0.018 NA
ATOM      7  C   UNL d   1     -46.363  13.271  22.416  0.00  0.00     0.302 C 
ATOM      8  O   UNL d   1     -46.796  13.070  21.748  0.00  0.00    -0.264 OA
BRANCH   7   9
ATOM      9  C   UNL d   1     -45.541  13.193  22.412  0.00  0.00     0.100 C 
BRANCH   9  10
ATOM     10  S   UNL d   1     -45.159  12.915  21.733  0.00  0.00    -0.054 SA
BRANCH  10  11
ATOM     11  C   UNL d   1     -44.353  12.739  21.753  0.00  0.00     0.164 A 
ATOM     12  S   UNL d   1     -43.767  13.122  21.329  0.00  0.00    -0.039 SA
ATOM     13  C   UNL d   1     -43.042  12.764  21.517  0.00  0.00     0.134 A 
ATOM     14  C   UNL d   1     -42.300  12.977  21.214  0.00  0.00     0.030 C 
ATOM     15  N   UNL d   1     -43.189  12.159  22.060  0.00  0.00    -0.140 NA
ATOM     16  N   UNL d   1     -44.000  12.141  22.208  0.00  0.00    -0.134 NA
ENDBRANCH  10  11
ENDBRANCH   9  10
ENDBRANCH   7   9
ENDBRANCH   2   6
BRANCH   3  17
ATOM     17  C   UNL d   1     -49.604  12.987  23.333  0.00  0.00     0.026 A 
ATOM     18  C   UNL d   1     -49.655  12.164  23.342  0.00  0.00     0.002 A 
ATOM     19  C   UNL d   1     -50.387  11.798  23.472  0.00  0.00     0.000 A 
ATOM     20  C   UNL d   1     -51.062  12.246  23.591  0.00  0.00     0.000 A 
ATOM     21  C   UNL d   1     -51.011  13.068  23.582  0.00  0.00     0.000 A 
ATOM     22  C   UNL d   1     -50.277  13.443  23.453  0.00  0.00     0.002 A 
ENDBRANCH   3  17
TORSDOF 5
ENDMDL
MODEL 3
REMARK VINA RESULT:      -5.1      2.976      3.462
REMARK  5 active torsions:
REMARK  status: ('A' for Active; 'I' for Inactive)
REMARK    1  A    between atoms: N_10  and  C_2 
REMARK    2  A    between atoms: C_14  and  C_3 
REMARK    3  A    between atoms: C_5  and  S_13 
REMARK       I    between atoms: C_12  and  N_10 
REMARK    4  A    between atoms: C_16  and  C_12 
REMARK    5  A    between atoms: S_13  and  C_16 
ROOT
ATOM      1  N   UNL d   1     -46.722  12.914  22.318  0.00  0.00    -0.051 NA
ATOM      2  C   UNL d   1     -45.976  13.172  22.550  0.00  0.00     0.760 A 
ATOM      3  C   UNL d   1     -47.149  12.746  22.996  0.00  0.00     0.147 A 
ATOM      4  N   UNL d   1     -45.943  13.162  23.362  0.00  0.00    -0.019 NA
ATOM      5  S   UNL d   1     -46.670  12.898  23.640  0.00  0.00     0.052 SA
ENDROOT
BRANCH   2   6
ATOM      6  N   UNL d   1     -45.354  13.405  22.039  0.00  0.00    -0.018 NA
ATOM      7  C   UNL d   1     -44.688  12.936  21.958  0.00  0.00     0.302 C 
ATOM      8  O   UNL d   1     -44.632  12.234  22.380  0.00  0.00    -0.264 OA
BRANCH   7   9
ATOM      9  C   UNL d   1     -44.075  13.165  21.455  0.00  0.00     0.100 C 
BRANCH   9  10
ATOM     10  S   UNL d   1     -43.312  12.871  21.580  0.00  0.00    -0.054 SA
BRANCH  10  11
ATOM     11  C   UNL d   1     -42.676  13.168  21.145  0.00  0.00     0.164 A 
ATOM     12  S   UNL d   1     -42.089  13.661  21.430  0.00  0.00    -0.039 SA
ATOM     13  C   UNL d   1     -41.566  13.821  20.806  0.00  0.00     0.134 A 
ATOM     14  C   UNL d   1     -40.888  14.298  20.846  0.00  0.00     0.030 C 
ATOM     15  N   UNL d   1     -41.838  13.421  20.136  0.00  0.00    -0.140 NA
ATOM     16  N   UNL d   1     -42.526  13.016  20.343  0.00  0.00    -0.134 NA
ENDBRANCH  10  11
ENDBRANCH   9  10
ENDBRANCH   7   9
ENDBRANCH   2   6
BRANCH   3  17
ATOM     17  C   UNL d   1     -47.925  12.470  23.060  0.00  0.00     0.026 A 
ATOM     18  C   UNL d   1     -48.549  12.932  22.786  0.00  0.00     0.002 A 
ATOM     19  C   UNL d   1     -49.327  12.654  22.851  0.00  0.00     0.000 A 
ATOM     20  C   UNL d   1     -49.482  11.923  23.186  0.00  0.00     0.000 A 
ATOM     21  C   UNL d   1     -48.858  11.461  23.460  0.00  0.00     0.000 A 
ATOM     22  C   UNL d   1     -48.073  11.735  23.398  0.00  0.00     0.002 A 
ENDBRANCH   3  17
TORSDOF 5
ENDMDL
MODEL 4
REMARK VINA RESULT:      -4.7      9.119     10.714
REMARK  5 active torsions:
REMARK  status: ('A' for Active; 'I' for Inactive)
REMARK    1  A    between atoms: N_10  and  C_2 
REMARK    2  A    between atoms: C_14  and  C_3 
REMARK    3  A    between atoms: C_5  and  S_13 
REMARK       I    between atoms: C_12  and  N_10 
REMARK    4  A    between atoms: C_16  and  C_12 
REMARK    5  A    between atoms: S_13  and  C_16 
ROOT
ATOM      1  N   UNL d   1     -38.202  14.706  17.853  0.00  0.00    -0.051 NA
ATOM      2  C   UNL d   1     -38.544  15.239  18.377  0.00  0.00     0.760 A 
ATOM      3  C   UNL d   1     -38.479  14.881  17.103  0.00  0.00     0.147 A 
ATOM      4  N   UNL d   1     -39.027  15.738  17.955  0.00  0.00    -0.019 NA
ATOM      5  S   UNL d   1     -38.987  15.517  17.164  0.00  0.00     0.052 SA
ENDROOT
BRANCH   2   6
ATOM      6  N   UNL d   1     -38.418  15.266  19.205  0.00  0.00    -0.018 NA
ATOM      7  C   UNL d   1     -38.948  14.907  19.715  0.00  0.00     0.302 C 
ATOM      8  O   UNL d   1     -39.604  14.518  19.412  0.00  0.00    -0.264 OA
BRANCH   7   9
ATOM      9  C   UNL d   1     -38.825  14.933  20.531  0.00  0.00     0.100 C 
BRANCH   9  10
ATOM     10  S   UNL d   1     -39.217  14.394  21.022  0.00  0.00    -0.054 SA
BRANCH  10  11
ATOM     11  C   UNL d   1     -39.023  14.345  21.823  0.00  0.00     0.164 A 
ATOM     12  S   UNL d   1     -38.893  13.654  22.243  0.00  0.00    -0.039 SA
ATOM     13  C   UNL d   1     -38.713  13.863  23.026  0.00  0.00     0.134 A 
ATOM     14  C   UNL d   1     -38.543  13.338  23.644  0.00  0.00     0.030 C 
ATOM     15  N   UNL d   1     -38.734  14.687  23.081  0.00  0.00    -0.140 NA
ATOM     16  N   UNL d   1     -38.926  14.988  22.337  0.00  0.00    -0.134 NA
ENDBRANCH  10  11
ENDBRANCH   9  10
ENDBRANCH   7   9
ENDBRANCH   2   6
BRANCH   3  17
ATOM     17  C   UNL d   1     -38.301  14.508  16.388  0.00  0.00     0.026 A 
ATOM     18  C   UNL d   1     -38.123  14.959  15.722  0.00  0.00     0.002 A 
ATOM     19  C   UNL d   1     -37.945  14.583  15.005  0.00  0.00     0.000 A 
ATOM     20  C   UNL d   1     -37.944  13.766  14.952  0.00  0.00     0.000 A 
ATOM     21  C   UNL d   1     -38.122  13.316  15.617  0.00  0.00     0.000 A 
ATOM     22  C   UNL d   1     -38.302  13.687  16.341  0.00  0.00     0.002 A 
ENDBRANCH   3  17
TORSDOF 5
ENDMDL
MODEL 5
REMARK VINA RESULT:      -4.6      4.017      6.452
REMARK  5 active torsions:
REMARK  status: ('A' for Active; 'I' for Inactive)
REMARK    1  A    between atoms: N_10  and  C_2 
REMARK    2  A    between atoms: C_14  and  C_3 
REMARK    3  A    between atoms: C_5  and  S_13 
REMARK       I    between atoms: C_12  and  N_10 
REMARK    4  A    between atoms: C_16  and  C_12 
REMARK    5  A    between atoms: S_13  and  C_16 
ROOT
ATOM      1  N   UNL d   1     -42.362  13.480  21.681  0.00  0.00    -0.051 NA
ATOM      2  C   UNL d   1     -42.911  12.956  21.364  0.00  0.00     0.760 A 
ATOM      3  C   UNL d   1     -41.876  13.729  21.073  0.00  0.00     0.147 A 
ATOM      4  N   UNL d   1     -42.764  12.883  20.568  0.00  0.00    -0.019 NA
ATOM      5  S   UNL d   1     -42.122  13.362  20.386  0.00  0.00     0.052 SA
ENDROOT
BRANCH   2   6
ATOM      6  N   UNL d   1     -43.519  12.562  21.786  0.00  0.00    -0.018 NA
ATOM      7  C   UNL d   1     -44.244  12.924  21.899  0.00  0.00     0.302 C 
ATOM      8  O   UNL d   1     -44.375  13.675  21.596  0.00  0.00    -0.264 OA
BRANCH   7   9
ATOM      9  C   UNL d   1     -44.843  12.537  22.315  0.00  0.00     0.100 C 
BRANCH   9  10
ATOM     10  S   UNL d   1     -45.532  12.948  22.518  0.00  0.00    -0.054 SA
BRANCH  10  11
ATOM     11  C   UNL d   1     -46.146  12.560  22.911  0.00  0.00     0.164 A 
ATOM     12  S   UNL d   1     -46.942  12.740  22.852  0.00  0.00    -0.039 SA
ATOM     13  C   UNL d   1     -47.358  12.213  23.340  0.00  0.00     0.134 A 
ATOM     14  C   UNL d   1     -48.180  12.194  23.449  0.00  0.00     0.030 C 
ATOM     15  N   UNL d   1     -46.810  11.709  23.698  0.00  0.00    -0.140 NA
ATOM     16  N   UNL d   1     -46.058  11.923  23.434  0.00  0.00    -0.134 NA
ENDBRANCH  10  11
ENDBRANCH   9  10
ENDBRANCH   7   9
ENDBRANCH   2   6
BRANCH   3  17
ATOM     17  C   UNL d   1     -41.240  14.256  21.105  0.00  0.00     0.026 A 
ATOM     18  C   UNL d   1     -40.496  13.988  21.339  0.00  0.00     0.002 A 
ATOM     19  C   UNL d   1     -39.859  14.517  21.370  0.00  0.00     0.000 A 
ATOM     20  C   UNL d   1     -39.961  15.305  21.170  0.00  0.00     0.000 A 
ATOM     21  C   UNL d   1     -40.704  15.572  20.936  0.00  0.00     0.000 A 
ATOM     22  C   UNL d   1     -41.349  15.045  20.903  0.00  0.00     0.002 A 
ENDBRANCH   3  17
TORSDOF 5
ENDMDL
MODEL 6
REMARK VINA RESULT:      -4.5      4.427      5.389
REMARK  5 active torsions:
REMARK  status: ('A' for Active; 'I' for Inactive)
REMARK    1  A    between atoms: N_10  and  C_2 
REMARK    2  A    between atoms: C_14  and  C_3 
REMARK    3  A    between atoms: C_5  and  S_13 
REMARK       I    between atoms: C_12  and  N_10 
REMARK    4  A    between atoms: C_16  and  C_12 
REMARK    5  A    between atoms: S_13  and  C_16 
ROOT
ATOM      1  N   UNL d   1     -44.505  13.194  21.634  0.00  0.00    -0.051 NA
ATOM      2  C   UNL d   1     -43.818  12.759  21.514  0.00  0.00     0.760 A 
ATOM      3  C   UNL d   1     -44.921  12.838  22.242  0.00  0.00     0.147 A 
ATOM      4  N   UNL d   1     -43.810  12.141  22.042  0.00  0.00    -0.019 NA
ATOM      5  S   UNL d   1     -44.494  12.189  22.494  0.00  0.00     0.052 SA
ENDROOT
BRANCH   2   6
ATOM      6  N   UNL d   1     -43.224  12.922  20.945  0.00  0.00    -0.018 NA
ATOM      7  C   UNL d   1     -42.550  13.335  21.158  0.00  0.00     0.302 C 
ATOM      8  O   UNL d   1     -42.457  13.589  21.933  0.00  0.00    -0.264 OA
BRANCH   7   9
ATOM      9  C   UNL d   1     -41.965  13.495  20.598  0.00  0.00     0.100 C 
BRANCH   9  10
ATOM     10  S   UNL d   1     -41.379  14.055  20.767  0.00  0.00    -0.054 SA
BRANCH  10  11
ATOM     11  C   UNL d   1     -40.870  14.316  20.172  0.00  0.00     0.164 A 
ATOM     12  S   UNL d   1     -40.435  15.009  20.183  0.00  0.00    -0.039 SA
ATOM     13  C   UNL d   1     -40.003  15.049  19.475  0.00  0.00     0.134 A 
ATOM     14  C   UNL d   1     -39.487  15.658  19.252  0.00  0.00     0.030 C 
ATOM     15  N   UNL d   1     -40.177  14.374  19.032  0.00  0.00    -0.140 NA
ATOM     16  N   UNL d   1     -40.714  13.918  19.461  0.00  0.00    -0.134 NA
ENDBRANCH  10  11
ENDBRANCH   9  10
ENDBRANCH   7   9
ENDBRANCH   2   6
BRANCH   3  17
ATOM     17  C   UNL d   1     -45.645  13.062  22.570  0.00  0.00     0.026 A 
ATOM     18  C   UNL d   1     -45.912  13.837  22.488  0.00  0.00     0.002 A 
ATOM     19  C   UNL d   1     -46.639  14.061  22.818  0.00  0.00     0.000 A 
ATOM     20  C   UNL d   1     -47.095  13.518  23.226  0.00  0.00     0.000 A 
ATOM     21  C   UNL d   1     -46.829  12.744  23.309  0.00  0.00     0.000 A 
ATOM     22  C   UNL d   1     -46.099  12.512  22.979  0.00  0.00     0.002 A 
ENDBRANCH   3  17
TORSDOF 5
ENDMDL
