MODEL 1
REMARK VINA RESULT:      21.1      0.000      0.000
REMARK  3 active torsions:
REMARK  status: ('A' for Active; 'I' for Inactive)
REMARK    1  A    between atoms: C_3  and  C_1 
REMARK    2  A    between atoms: C_8  and  C_3 
REMARK    3  A    between atoms: C_10  and  C_4 
ROOT
ATOM      1  C   UNL d   1      14.656  12.874  -0.937  0.00  0.00     0.092 C 
ATOM      2  C   UNL d   1      15.080  12.341  -0.474  0.00  0.00     0.103 C 
ATOM      3  N   UNL d   1      15.502  11.780  -0.014  0.00  0.00    -0.191 NA
ENDROOT
BRANCH   1   4
ATOM      4  C   UNL d   1      14.142  12.581  -1.530  0.00  0.00     0.120 A 
ATOM      5  N   UNL d   1      14.164  12.761  -2.352  0.00  0.00    -0.238 NA
ATOM      6  C   UNL d   1      13.551  12.345  -2.726  0.00  0.00     0.088 A 
ATOM      7  C   UNL d   1      13.162  11.918  -2.137  0.00  0.00     0.056 A 
ATOM      8  S   UNL d   1      13.536  12.076  -1.427  0.00  0.00    -0.065 SA
BRANCH   6   9
ATOM      9  C   UNL d   1      13.383  12.375  -3.554  0.00  0.00     0.018 A 
ATOM     10  C   UNL d   1      12.945  13.014  -3.851  0.00  0.00     0.002 A 
ATOM     11  C   UNL d   1      12.777  13.050  -4.657  0.00  0.00     0.000 A 
ATOM     12  C   UNL d   1      13.046  12.441  -5.190  0.00  0.00     0.000 A 
ATOM     13  C   UNL d   1      13.482  11.809  -4.882  0.00  0.00     0.000 A 
ATOM     14  C   UNL d   1      13.650  11.780  -4.053  0.00  0.00     0.002 A 
ENDBRANCH   6   9
ENDBRANCH   1   4
BRANCH   1  15
ATOM     15  C   UNL d   1      14.751  13.678  -0.802  0.00  0.00     0.012 A 
ATOM     16  C   UNL d   1      14.927  14.332  -1.288  0.00  0.00     0.001 A 
ATOM     17  C   UNL d   1      14.948  15.003  -0.822  0.00  0.00     0.000 A 
ATOM     18  C   UNL d   1      14.787  14.776  -0.058  0.00  0.00     0.000 A 
ATOM     19  C   UNL d   1      14.665  13.966  -0.039  0.00  0.00     0.001 A 
ENDBRANCH   1  15
TORSDOF 3
ENDMDL
