MODEL 1
REMARK VINA RESULT:      -7.6      0.000      0.000
REMARK  3 active torsions:
REMARK  status: ('A' for Active; 'I' for Inactive)
REMARK    1  A    between atoms: C_16  and  C_4 
REMARK    2  A    between atoms: C_10  and  O_14 
REMARK    3  A    between atoms: O_14  and  C_16 
ROOT
ATOM      1  C   UNL d   1     -50.209  14.238  22.301  0.00  0.00     0.030 A 
ATOM      2  C   UNL d   1     -49.481  14.419  22.607  0.00  0.00     0.105 A 
ATOM      3  C   UNL d   1     -48.822  13.987  22.358  0.00  0.00     0.118 A 
ATOM      4  N   UNL d   1     -49.381  15.019  23.157  0.00  0.00    -0.242 NA
ATOM      5  C   UNL d   1     -50.307  13.641  21.754  0.00  0.00     0.059 A 
ATOM      6  C   UNL d   1     -48.896  13.386  21.812  0.00  0.00     0.027 A 
ATOM      7  C   UNL d   1     -49.645  13.206  21.503  0.00  0.00     0.013 A 
ATOM      8 CL   UNL d   1     -51.056  13.462  21.445  0.00  0.00    -0.082 Cl
ATOM      9  C   UNL d   1     -50.868  14.666  22.546  0.00  0.00     0.004 A 
ATOM     10  C   UNL d   1     -50.044  15.454  23.407  0.00  0.00     0.099 A 
ATOM     11  C   UNL d   1     -50.792  15.274  23.099  0.00  0.00     0.021 A 
ENDROOT
BRANCH   3  12
ATOM     12  O   UNL d   1     -48.073  14.165  22.666  0.00  0.00    -0.302 OA
BRANCH  12  13
ATOM     13  C   UNL d   1     -47.327  14.352  22.977  0.00  0.00     0.144 C 
BRANCH  13  14
ATOM     14  C   UNL d   1     -46.687  13.839  22.854  0.00  0.00     0.142 A 
ATOM     15  N   UNL d   1     -46.510  13.190  23.291  0.00  0.00    -0.057 NA
ATOM     16  C   UNL d   1     -45.847  12.852  22.982  0.00  0.00     0.735 A 
ATOM     17  N   UNL d   1     -45.611  13.314  22.329  0.00  0.00    -0.136 N 
ATOM     18  N   UNL d   1     -45.405  12.184  23.188  0.00  0.00    -0.059 NA
ATOM     19  C   UNL d   1     -46.131  13.915  22.258  0.00  0.00     0.120 A 
ATOM     20  C   UNL d   1     -44.944  13.101  21.900  0.00  0.00     0.100 A 
ATOM     21  C   UNL d   1     -44.509  12.439  22.106  0.00  0.00     0.041 A 
ATOM     22  C   UNL d   1     -44.742  11.975  22.760  0.00  0.00     0.119 A 
ENDBRANCH  13  14
ENDBRANCH  12  13
ENDBRANCH   3  12
TORSDOF 3
ENDMDL
MODEL 2
REMARK VINA RESULT:      -6.1      8.269      9.218
REMARK  3 active torsions:
REMARK  status: ('A' for Active; 'I' for Inactive)
REMARK    1  A    between atoms: C_16  and  C_4 
REMARK    2  A    between atoms: C_10  and  O_14 
REMARK    3  A    between atoms: O_14  and  C_16 
ROOT
ATOM      1  C   UNL d   1     -40.022  14.873  17.211  0.00  0.00     0.030 A 
ATOM      2  C   UNL d   1     -40.368  14.950  17.940  0.00  0.00     0.105 A 
ATOM      3  C   UNL d   1     -40.084  14.497  18.570  0.00  0.00     0.118 A 
ATOM      4  N   UNL d   1     -40.993  15.466  18.069  0.00  0.00    -0.242 NA
ATOM      5  C   UNL d   1     -39.401  14.359  17.085  0.00  0.00     0.059 A 
ATOM      6  C   UNL d   1     -39.464  13.977  18.467  0.00  0.00     0.027 A 
ATOM      7  C   UNL d   1     -39.115  13.903  17.718  0.00  0.00     0.013 A 
ATOM      8 CL   UNL d   1     -39.053  14.286  16.335  0.00  0.00    -0.082 Cl
ATOM      9  C   UNL d   1     -40.303  15.322  16.581  0.00  0.00     0.004 A 
ATOM     10  C   UNL d   1     -41.279  15.922  17.435  0.00  0.00     0.099 A 
ATOM     11  C   UNL d   1     -40.930  15.848  16.687  0.00  0.00     0.021 A 
ENDROOT
BRANCH   3  12
ATOM     12  O   UNL d   1     -40.432  14.570  19.319  0.00  0.00    -0.302 OA
BRANCH  12  13
ATOM     13  C   UNL d   1     -40.788  14.640  20.065  0.00  0.00     0.144 C 
BRANCH  13  14
ATOM     14  C   UNL d   1     -40.319  14.766  20.737  0.00  0.00     0.142 A 
ATOM     15  N   UNL d   1     -39.961  14.200  21.177  0.00  0.00    -0.057 NA
ATOM     16  C   UNL d   1     -39.561  14.562  21.776  0.00  0.00     0.735 A 
ATOM     17  N   UNL d   1     -39.682  15.384  21.697  0.00  0.00    -0.136 N 
ATOM     18  N   UNL d   1     -39.096  14.278  22.398  0.00  0.00    -0.059 NA
ATOM     19  C   UNL d   1     -40.146  15.499  21.059  0.00  0.00     0.120 A 
ATOM     20  C   UNL d   1     -39.337  15.900  22.236  0.00  0.00     0.100 A 
ATOM     21  C   UNL d   1     -38.877  15.615  22.850  0.00  0.00     0.041 A 
ATOM     22  C   UNL d   1     -38.754  14.793  22.932  0.00  0.00     0.119 A 
ENDBRANCH  13  14
ENDBRANCH  12  13
ENDBRANCH   3  12
TORSDOF 3
ENDMDL
MODEL 3
REMARK VINA RESULT:      -5.9      2.092      4.990
REMARK  3 active torsions:
REMARK  status: ('A' for Active; 'I' for Inactive)
REMARK    1  A    between atoms: C_16  and  C_4 
REMARK    2  A    between atoms: C_10  and  O_14 
REMARK    3  A    between atoms: O_14  and  C_16 
ROOT
ATOM      1  C   UNL d   1     -44.741  11.930  22.684  0.00  0.00     0.030 A 
ATOM      2  C   UNL d   1     -45.469  11.875  23.035  0.00  0.00     0.105 A 
ATOM      3  C   UNL d   1     -46.034  12.458  22.880  0.00  0.00     0.118 A 
ATOM      4  N   UNL d   1     -45.660  11.257  23.539  0.00  0.00    -0.242 NA
ATOM      5  C   UNL d   1     -44.553  12.545  22.182  0.00  0.00     0.059 A 
ATOM      6  C   UNL d   1     -45.869  13.082  22.382  0.00  0.00     0.027 A 
ATOM      7  C   UNL d   1     -45.121  13.131  22.026  0.00  0.00     0.013 A 
ATOM      8 CL   UNL d   1     -43.805  12.593  21.826  0.00  0.00    -0.082 Cl
ATOM      9  C   UNL d   1     -44.175  11.351  22.835  0.00  0.00     0.004 A 
ATOM     10  C   UNL d   1     -45.091  10.671  23.695  0.00  0.00     0.099 A 
ATOM     11  C   UNL d   1     -44.344  10.720  23.339  0.00  0.00     0.021 A 
ENDROOT
BRANCH   3  12
ATOM     12  O   UNL d   1     -46.782  12.409  23.236  0.00  0.00    -0.302 OA
BRANCH  12  13
ATOM     13  C   UNL d   1     -47.530  12.370  23.594  0.00  0.00     0.144 C 
BRANCH  13  14
ATOM     14  C   UNL d   1     -48.210  12.539  23.150  0.00  0.00     0.142 A 
ATOM     15  N   UNL d   1     -48.609  12.027  22.681  0.00  0.00    -0.057 NA
ATOM     16  C   UNL d   1     -49.233  12.418  22.354  0.00  0.00     0.735 A 
ATOM     17  N   UNL d   1     -49.214  13.202  22.637  0.00  0.00    -0.136 N 
ATOM     18  N   UNL d   1     -49.833  12.189  21.833  0.00  0.00    -0.059 NA
ATOM     19  C   UNL d   1     -48.584  13.267  23.123  0.00  0.00     0.120 A 
ATOM     20  C   UNL d   1     -49.789  13.737  22.396  0.00  0.00     0.100 A 
ATOM     21  C   UNL d   1     -50.381  13.507  21.881  0.00  0.00     0.041 A 
ATOM     22  C   UNL d   1     -50.404  12.722  21.595  0.00  0.00     0.119 A 
ENDBRANCH  13  14
ENDBRANCH  12  13
ENDBRANCH   3  12
TORSDOF 3
ENDMDL
MODEL 4
REMARK VINA RESULT:      -5.5      2.175      4.927
REMARK  3 active torsions:
REMARK  status: ('A' for Active; 'I' for Inactive)
REMARK    1  A    between atoms: C_16  and  C_4 
REMARK    2  A    between atoms: C_10  and  O_14 
REMARK    3  A    between atoms: O_14  and  C_16 
ROOT
ATOM      1  C   UNL d   1     -44.787  11.747  22.826  0.00  0.00     0.030 A 
ATOM      2  C   UNL d   1     -45.355  12.318  22.735  0.00  0.00     0.105 A 
ATOM      3  C   UNL d   1     -46.079  12.230  23.123  0.00  0.00     0.118 A 
ATOM      4  N   UNL d   1     -45.228  12.981  22.269  0.00  0.00    -0.242 NA
ATOM      5  C   UNL d   1     -44.914  11.088  23.290  0.00  0.00     0.059 A 
ATOM      6  C   UNL d   1     -46.228  11.580  23.591  0.00  0.00     0.027 A 
ATOM      7  C   UNL d   1     -45.643  10.999  23.680  0.00  0.00     0.013 A 
ATOM      8 CL   UNL d   1     -44.328  10.507  23.378  0.00  0.00    -0.082 Cl
ATOM      9  C   UNL d   1     -44.064  11.830  22.442  0.00  0.00     0.004 A 
ATOM     10  C   UNL d   1     -44.500  13.070  21.879  0.00  0.00     0.099 A 
ATOM     11  C   UNL d   1     -43.914  12.489  21.967  0.00  0.00     0.021 A 
ENDROOT
BRANCH   3  12
ATOM     12  O   UNL d   1     -46.665  12.811  23.035  0.00  0.00    -0.302 OA
BRANCH  12  13
ATOM     13  C   UNL d   1     -47.245  13.398  22.948  0.00  0.00     0.144 C 
BRANCH  13  14
ATOM     14  C   UNL d   1     -48.042  13.183  22.864  0.00  0.00     0.142 A 
ATOM     15  N   UNL d   1     -48.546  12.996  23.459  0.00  0.00    -0.057 NA
ATOM     16  C   UNL d   1     -49.263  12.822  23.136  0.00  0.00     0.735 A 
ATOM     17  N   UNL d   1     -49.192  12.905  22.309  0.00  0.00    -0.136 N 
ATOM     18  N   UNL d   1     -49.989  12.595  23.460  0.00  0.00    -0.059 NA
ATOM     19  C   UNL d   1     -48.442  13.126  22.152  0.00  0.00     0.120 A 
ATOM     20  C   UNL d   1     -49.843  12.761  21.828  0.00  0.00     0.100 A 
ATOM     21  C   UNL d   1     -50.559  12.537  22.152  0.00  0.00     0.041 A 
ATOM     22  C   UNL d   1     -50.634  12.452  22.979  0.00  0.00     0.119 A 
ENDBRANCH  13  14
ENDBRANCH  12  13
ENDBRANCH   3  12
TORSDOF 3
ENDMDL
MODEL 5
REMARK VINA RESULT:      -5.2      8.855      9.766
REMARK  3 active torsions:
REMARK  status: ('A' for Active; 'I' for Inactive)
REMARK    1  A    between atoms: C_16  and  C_4 
REMARK    2  A    between atoms: C_10  and  O_14 
REMARK    3  A    between atoms: O_14  and  C_16 
ROOT
ATOM      1  C   UNL d   1     -39.956  15.364  17.349  0.00  0.00     0.030 A 
ATOM      2  C   UNL d   1     -39.380  15.363  17.919  0.00  0.00     0.105 A 
ATOM      3  C   UNL d   1     -39.585  15.558  18.696  0.00  0.00     0.118 A 
ATOM      4  N   UNL d   1     -38.601  15.174  17.746  0.00  0.00    -0.242 NA
ATOM      5  C   UNL d   1     -40.730  15.552  17.522  0.00  0.00     0.059 A 
ATOM      6  C   UNL d   1     -40.352  15.749  18.893  0.00  0.00     0.027 A 
ATOM      7  C   UNL d   1     -40.936  15.748  18.303  0.00  0.00     0.013 A 
ATOM      8 CL   UNL d   1     -41.313  15.550  16.932  0.00  0.00    -0.082 Cl
ATOM      9  C   UNL d   1     -39.757  15.171  16.574  0.00  0.00     0.004 A 
ATOM     10  C   UNL d   1     -38.396  14.979  16.965  0.00  0.00     0.099 A 
ATOM     11  C   UNL d   1     -38.979  14.977  16.376  0.00  0.00     0.021 A 
ENDROOT
BRANCH   3  12
ATOM     12  O   UNL d   1     -39.002  15.560  19.286  0.00  0.00    -0.302 OA
BRANCH  12  13
ATOM     13  C   UNL d   1     -38.417  15.570  19.875  0.00  0.00     0.144 C 
BRANCH  13  14
ATOM     14  C   UNL d   1     -38.509  15.105  20.556  0.00  0.00     0.142 A 
ATOM     15  N   UNL d   1     -38.380  14.315  20.610  0.00  0.00    -0.057 NA
ATOM     16  C   UNL d   1     -38.533  14.087  21.367  0.00  0.00     0.735 A 
ATOM     17  N   UNL d   1     -38.766  14.766  21.792  0.00  0.00    -0.136 N 
ATOM     18  N   UNL d   1     -38.501  13.357  21.755  0.00  0.00    -0.059 NA
ATOM     19  C   UNL d   1     -38.748  15.384  21.288  0.00  0.00     0.120 A 
ATOM     20  C   UNL d   1     -38.959  14.702  22.588  0.00  0.00     0.100 A 
ATOM     21  C   UNL d   1     -38.926  13.979  22.968  0.00  0.00     0.041 A 
ATOM     22  C   UNL d   1     -38.694  13.296  22.546  0.00  0.00     0.119 A 
ENDBRANCH  13  14
ENDBRANCH  12  13
ENDBRANCH   3  12
TORSDOF 3
ENDMDL
