MODEL 1
REMARK VINA RESULT:      25.1      0.000      0.000
REMARK  4 active torsions:
REMARK  status: ('A' for Active; 'I' for Inactive)
REMARK    1  A    between atoms: C_5  and  N_1 
REMARK    2  A    between atoms: C_7  and  C_5 
REMARK    3  A    between atoms: O_10  and  C_8 
REMARK    4  A    between atoms: C_14  and  O_10 
ROOT
ATOM      1  C   UNL d   1      45.806 -16.497  43.523  0.00  0.00     0.086 C 
ENDROOT
BRANCH   1   2
ATOM      2  N   UNL d   1      45.504 -15.919  44.025  0.00  0.00    -0.268 N 
ATOM      3  C   UNL d   1      44.888 -16.021  44.573  0.00  0.00     0.296 A 
ATOM      4  S   UNL d   1      44.770 -15.298  44.955  0.00  0.00    -0.025 SA
ATOM      5  O   UNL d   1      44.470 -16.718  44.712  0.00  0.00    -0.259 OA
ATOM      6  C   UNL d   1      45.305 -14.753  44.649  0.00  0.00     0.050 A 
ATOM      7  C   UNL d   1      45.762 -15.135  44.072  0.00  0.00     0.073 A 
ATOM      8  C   UNL d   1      45.446 -13.948  44.813  0.00  0.00     0.008 A 
ATOM      9  C   UNL d   1      46.346 -14.726  43.667  0.00  0.00     0.018 A 
ATOM     10  C   UNL d   1      46.482 -13.929  43.834  0.00  0.00     0.002 A 
ATOM     11  C   UNL d   1      46.036 -13.544  44.403  0.00  0.00     0.001 A 
ENDBRANCH   1   2
BRANCH   1  12
ATOM     12  C   UNL d   1      46.083 -17.210  43.839  0.00  0.00     0.040 A 
ATOM     13  C   UNL d   1      46.192 -17.851  43.339  0.00  0.00     0.101 A 
ATOM     14  C   UNL d   1      46.465 -18.556  43.650  0.00  0.00     0.025 A 
ATOM     15  C   UNL d   1      46.632 -18.625  44.463  0.00  0.00     0.002 A 
ATOM     16  C   UNL d   1      46.518 -17.973  44.955  0.00  0.00     0.000 A 
ATOM     17  C   UNL d   1      46.241 -17.261  44.639  0.00  0.00     0.004 A 
BRANCH  13  18
ATOM     18  O   UNL d   1      46.019 -17.753  42.541  0.00  0.00    -0.307 OA
BRANCH  18  19
ATOM     19  C   UNL d   1      46.177 -18.364  42.005  0.00  0.00     0.100 C 
ATOM     20  C   UNL d   1      45.873 -19.122  42.146  0.00  0.00     0.027 C 
ATOM     21  C   UNL d   1      46.632 -18.223  41.339  0.00  0.00     0.027 C 
ENDBRANCH  18  19
ENDBRANCH  13  18
ENDBRANCH   1  12
TORSDOF 4
ENDMDL
MODEL 2
REMARK VINA RESULT:      27.1      1.397      3.814
REMARK  4 active torsions:
REMARK  status: ('A' for Active; 'I' for Inactive)
REMARK    1  A    between atoms: C_5  and  N_1 
REMARK    2  A    between atoms: C_7  and  C_5 
REMARK    3  A    between atoms: O_10  and  C_8 
REMARK    4  A    between atoms: C_14  and  O_10 
ROOT
ATOM      1  C   UNL d   1      46.212 -16.835  43.506  0.00  0.00     0.086 C 
ENDROOT
BRANCH   1   2
ATOM      2  N   UNL d   1      46.339 -17.649  43.501  0.00  0.00    -0.268 N 
ATOM      3  C   UNL d   1      46.473 -18.127  44.167  0.00  0.00     0.296 A 
ATOM      4  S   UNL d   1      46.571 -18.903  43.902  0.00  0.00    -0.025 SA
ATOM      5  O   UNL d   1      46.505 -17.872  44.950  0.00  0.00    -0.259 OA
ATOM      6  C   UNL d   1      46.497 -18.909  43.083  0.00  0.00     0.050 A 
ATOM      7  C   UNL d   1      46.353 -18.132  42.830  0.00  0.00     0.073 A 
ATOM      8  C   UNL d   1      46.542 -19.519  42.517  0.00  0.00     0.008 A 
ATOM      9  C   UNL d   1      46.255 -17.966  42.033  0.00  0.00     0.018 A 
ATOM     10  C   UNL d   1      46.300 -18.574  41.478  0.00  0.00     0.002 A 
ATOM     11  C   UNL d   1      46.442 -19.345  41.718  0.00  0.00     0.001 A 
ENDBRANCH   1   2
BRANCH   1  12
ATOM     12  C   UNL d   1      45.623 -16.516  43.992  0.00  0.00     0.040 A 
ATOM     13  C   UNL d   1      45.615 -15.707  44.129  0.00  0.00     0.101 A 
ATOM     14  C   UNL d   1      45.034 -15.390  44.608  0.00  0.00     0.025 A 
ATOM     15  C   UNL d   1      44.456 -15.880  44.955  0.00  0.00     0.002 A 
ATOM     16  C   UNL d   1      44.475 -16.691  44.810  0.00  0.00     0.000 A 
ATOM     17  C   UNL d   1      45.064 -17.010  44.324  0.00  0.00     0.004 A 
BRANCH  13  18
ATOM     18  O   UNL d   1      46.198 -15.249  43.773  0.00  0.00    -0.307 OA
BRANCH  18  19
ATOM     19  C   UNL d   1      46.192 -14.426  43.864  0.00  0.00     0.100 C 
ATOM     20  C   UNL d   1      46.600 -14.081  44.496  0.00  0.00     0.027 C 
ATOM     21  C   UNL d   1      45.783 -13.954  43.333  0.00  0.00     0.027 C 
ENDBRANCH  18  19
ENDBRANCH  13  18
ENDBRANCH   1  12
TORSDOF 4
ENDMDL
