MODEL 1
REMARK VINA RESULT:      -3.1      0.000      0.000
REMARK  7 active torsions:
REMARK  status: ('A' for Active; 'I' for Inactive)
REMARK    1  A    between atoms: C_2  and  C_1 
REMARK    2  A    between atoms: C_16  and  N_4 
REMARK    3  A    between atoms: C_14  and  C_21 
REMARK    4  A    between atoms: C_22  and  C_16 
REMARK    5  A    between atoms: C_21  and  C_23 
REMARK    6  A    between atoms: C_25  and  C_22 
REMARK    7  A    between atoms: C_23  and  C_25 
ROOT
ATOM      1  C   UNL d   1      32.324  18.261 -24.465  0.00  0.00     0.093 A 
ATOM      2  N   UNL d   1      32.916  19.148 -23.703  0.00  0.00    -0.259 N 
ATOM      3  C   UNL d   1      32.916  19.432 -24.464  0.00  0.00     0.153 A 
ATOM      4  C   UNL d   1      32.551  18.427 -23.707  0.00  0.00     0.272 A 
ATOM      5  S   UNL d   1      32.547  18.879 -24.937  0.00  0.00    -0.053 SA
ATOM      6  S   UNL d   1      33.241  20.160 -24.694  0.00  0.00    -0.052 SA
ATOM      7  O   UNL d   1      32.429  17.933 -23.029  0.00  0.00    -0.266 OA
ENDROOT
BRANCH   1   8
ATOM      8  C   UNL d   1      31.930  17.546 -24.635  0.00  0.00     0.069 A 
ATOM      9  C   UNL d   1      32.318  16.830 -24.770  0.00  0.00     0.265 A 
ATOM     10  N   UNL d   1      31.769  16.257 -24.916  0.00  0.00    -0.272 N 
ATOM     11  O   UNL d   1      33.145  16.712 -24.760  0.00  0.00    -0.267 OA
ATOM     12  C   UNL d   1      31.939  15.453 -25.080  0.00  0.00     0.102 C 
ATOM     13  C   UNL d   1      31.027  16.603 -24.875  0.00  0.00     0.067 A 
ATOM     14  C   UNL d   1      31.128  17.412 -24.698  0.00  0.00     0.021 A 
ATOM     15  C   UNL d   1      30.278  16.302 -24.971  0.00  0.00     0.018 A 
ATOM     16  C   UNL d   1      30.467  17.900 -24.622  0.00  0.00     0.002 A 
ATOM     17  C   UNL d   1      29.699  17.618 -24.716  0.00  0.00     0.000 A 
ATOM     18  C   UNL d   1      29.612  16.797 -24.894  0.00  0.00     0.002 A 
ENDBRANCH   1   8
BRANCH   2  19
ATOM     19  C   UNL d   1      33.240  19.541 -23.039  0.00  0.00     0.084 C 
BRANCH  19  20
ATOM     20  C   UNL d   1      32.744  19.893 -22.506  0.00  0.00     0.019 C 
BRANCH  20  21
ATOM     21  C   UNL d   1      33.065  20.374 -21.903  0.00  0.00     0.002 C 
BRANCH  21  22
ATOM     22  C   UNL d   1      32.581  20.881 -21.500  0.00  0.00     0.006 C 
BRANCH  22  23
ATOM     23  C   UNL d   1      32.856  21.238 -20.796  0.00  0.00     0.070 C 
BRANCH  23  24
ATOM     24  C   UNL d   1      32.469  21.880 -20.490  0.00  0.00     0.211 C 
ATOM     25  O   UNL d   1      31.757  22.138 -20.825  0.00  0.00    -0.644 OA
ATOM     26  O   UNL d   1      32.769  22.290 -19.845  0.00  0.00    -0.644 OA
ENDBRANCH  23  24
ENDBRANCH  22  23
ENDBRANCH  21  22
ENDBRANCH  20  21
ENDBRANCH  19  20
ENDBRANCH   2  19
TORSDOF 7
ENDMDL
