MODEL 1
REMARK VINA RESULT:      -7.9      0.000      0.000
REMARK  3 active torsions:
REMARK  status: ('A' for Active; 'I' for Inactive)
REMARK    1  A    between atoms: C_7  and  C_3 
REMARK       I    between atoms: N_10  and  C_7 
REMARK    2  A    between atoms: C_18  and  C_9 
REMARK    3  A    between atoms: C_12  and  N_10 
ROOT
ATOM      1  C   UNL d   1      53.055  33.366  53.914  0.00  0.00     0.059 A 
ATOM      2  C   UNL d   1      53.364  32.736  53.479  0.00  0.00     0.013 A 
ATOM      3  C   UNL d   1      51.841  33.281  53.175  0.00  0.00     0.088 A 
ATOM      4  S   UNL d   1      52.296  33.638  53.763  0.00  0.00    -0.075 SA
ATOM      5  S   UNL d   1      53.510  33.723  54.502  0.00  0.00    -0.080 SA
ATOM      6  C   UNL d   1      52.150  32.651  52.740  0.00  0.00     0.012 A 
ATOM      7  C   UNL d   1      54.574  32.820  54.216  0.00  0.00     0.007 A 
ATOM      8  C   UNL d   1      54.265  33.450  54.651  0.00  0.00     0.030 A 
ENDROOT
BRANCH   3   9
ATOM      9  C   UNL d   1      51.082  33.553  53.024  0.00  0.00     0.285 C 
ATOM     10  N   UNL d   1      50.967  34.211  52.533  0.00  0.00    -0.208 NA
ATOM     11  O   UNL d   1      50.431  33.173  53.359  0.00  0.00    -0.265 OA
BRANCH  10  12
ATOM     12  C   UNL d   1      50.205  34.486  52.380  0.00  0.00     0.085 A 
ATOM     13  C   UNL d   1      49.802  34.906  52.953  0.00  0.00     0.019 A 
ATOM     14  C   UNL d   1      49.045  35.178  52.798  0.00  0.00     0.002 A 
ATOM     15  C   UNL d   1      48.689  35.027  52.059  0.00  0.00     0.000 A 
ATOM     16  C   UNL d   1      49.105  34.603  51.488  0.00  0.00     0.002 A 
ATOM     17  C   UNL d   1      47.925  35.301  51.900  0.00  0.00     0.000 C 
ATOM     18  C   UNL d   1      49.860  34.332  51.646  0.00  0.00     0.019 A 
ENDBRANCH  10  12
ENDBRANCH   3   9
BRANCH   8  19
ATOM     19  C   UNL d   1      54.726  33.804  55.239  0.00  0.00     0.006 C 
ATOM     20  C   UNL d   1      55.542  33.831  55.164  0.00  0.00     0.001 C 
ENDBRANCH   8  19
TORSDOF 3
ENDMDL
MODEL 2
REMARK VINA RESULT:      -7.8      1.223      5.033
REMARK  3 active torsions:
REMARK  status: ('A' for Active; 'I' for Inactive)
REMARK    1  A    between atoms: C_7  and  C_3 
REMARK       I    between atoms: N_10  and  C_7 
REMARK    2  A    between atoms: C_18  and  C_9 
REMARK    3  A    between atoms: C_12  and  N_10 
ROOT
ATOM      1  C   UNL d   1      49.792  34.666  52.464  0.00  0.00     0.059 A 
ATOM      2  C   UNL d   1      49.865  34.487  51.661  0.00  0.00     0.013 A 
ATOM      3  C   UNL d   1      51.065  34.079  52.712  0.00  0.00     0.088 A 
ATOM      4  S   UNL d   1      50.390  34.463  52.988  0.00  0.00    -0.075 SA
ATOM      5  S   UNL d   1      49.117  35.051  52.740  0.00  0.00    -0.080 SA
ATOM      6  C   UNL d   1      51.138  33.899  51.909  0.00  0.00     0.012 A 
ATOM      7  C   UNL d   1      48.597  35.073  51.414  0.00  0.00     0.007 A 
ATOM      8  C   UNL d   1      48.523  35.252  52.217  0.00  0.00     0.030 A 
ENDROOT
BRANCH   3   9
ATOM      9  C   UNL d   1      51.663  33.875  53.236  0.00  0.00     0.285 C 
ATOM     10  N   UNL d   1      52.415  34.212  53.158  0.00  0.00    -0.208 NA
ATOM     11  O   UNL d   1      51.516  33.335  53.843  0.00  0.00    -0.265 OA
BRANCH  10  12
ATOM     12  C   UNL d   1      53.018  34.009  53.683  0.00  0.00     0.085 A 
ATOM     13  C   UNL d   1      53.125  34.446  54.365  0.00  0.00     0.019 A 
ATOM     14  C   UNL d   1      53.725  34.242  54.885  0.00  0.00     0.002 A 
ATOM     15  C   UNL d   1      54.221  33.592  54.719  0.00  0.00     0.000 A 
ATOM     16  C   UNL d   1      54.102  33.159  54.029  0.00  0.00     0.002 A 
ATOM     17  C   UNL d   1      54.826  33.385  55.243  0.00  0.00     0.000 C 
ATOM     18  C   UNL d   1      53.504  33.365  53.511  0.00  0.00     0.019 A 
ENDBRANCH  10  12
ENDBRANCH   3   9
BRANCH   8  19
ATOM     19  C   UNL d   1      47.844  35.637  52.487  0.00  0.00     0.006 C 
ATOM     20  C   UNL d   1      47.313  35.964  51.954  0.00  0.00     0.001 C 
ENDBRANCH   8  19
TORSDOF 3
ENDMDL
MODEL 3
REMARK VINA RESULT:      -7.5      1.360      1.940
REMARK  3 active torsions:
REMARK  status: ('A' for Active; 'I' for Inactive)
REMARK    1  A    between atoms: C_7  and  C_3 
REMARK       I    between atoms: N_10  and  C_7 
REMARK    2  A    between atoms: C_18  and  C_9 
REMARK    3  A    between atoms: C_12  and  N_10 
ROOT
ATOM      1  C   UNL d   1      52.485  32.512  53.118  0.00  0.00     0.059 A 
ATOM      2  C   UNL d   1      53.038  32.924  53.573  0.00  0.00     0.013 A 
ATOM      3  C   UNL d   1      51.756  33.717  52.911  0.00  0.00     0.088 A 
ATOM      4  S   UNL d   1      51.846  32.907  52.788  0.00  0.00    -0.075 SA
ATOM      5  S   UNL d   1      52.575  31.702  52.995  0.00  0.00    -0.080 SA
ATOM      6  C   UNL d   1      52.308  34.130  53.365  0.00  0.00     0.012 A 
ATOM      7  C   UNL d   1      53.764  31.723  53.779  0.00  0.00     0.007 A 
ATOM      8  C   UNL d   1      53.212  31.311  53.325  0.00  0.00     0.030 A 
ENDROOT
BRANCH   3   9
ATOM      9  C   UNL d   1      51.116  34.112  52.580  0.00  0.00     0.285 C 
ATOM     10  N   UNL d   1      50.380  34.097  52.958  0.00  0.00    -0.208 NA
ATOM     11  O   UNL d   1      51.206  34.525  51.872  0.00  0.00    -0.265 OA
BRANCH  10  12
ATOM     12  C   UNL d   1      49.736  34.494  52.628  0.00  0.00     0.085 A 
ATOM     13  C   UNL d   1      49.474  34.290  51.882  0.00  0.00     0.019 A 
ATOM     14  C   UNL d   1      48.833  34.686  51.557  0.00  0.00     0.002 A 
ATOM     15  C   UNL d   1      48.453  35.292  51.986  0.00  0.00     0.000 A 
ATOM     16  C   UNL d   1      48.727  35.488  52.737  0.00  0.00     0.002 A 
ATOM     17  C   UNL d   1      47.808  35.692  51.659  0.00  0.00     0.000 C 
ATOM     18  C   UNL d   1      49.366  35.092  53.059  0.00  0.00     0.019 A 
ENDBRANCH  10  12
ENDBRANCH   3   9
BRANCH   8  19
ATOM     19  C   UNL d   1      53.308  30.499  53.205  0.00  0.00     0.006 C 
ATOM     20  C   UNL d   1      53.626  30.028  53.796  0.00  0.00     0.001 C 
ENDBRANCH   8  19
TORSDOF 3
ENDMDL
MODEL 4
REMARK VINA RESULT:      -7.0      2.731      3.916
REMARK  3 active torsions:
REMARK  status: ('A' for Active; 'I' for Inactive)
REMARK    1  A    between atoms: C_7  and  C_3 
REMARK       I    between atoms: N_10  and  C_7 
REMARK    2  A    between atoms: C_18  and  C_9 
REMARK    3  A    between atoms: C_12  and  N_10 
ROOT
ATOM      1  C   UNL d   1      53.213  30.641  53.660  0.00  0.00     0.059 A 
ATOM      2  C   UNL d   1      52.765  30.424  53.001  0.00  0.00     0.013 A 
ATOM      3  C   UNL d   1      53.063  32.013  53.310  0.00  0.00     0.088 A 
ATOM      4  S   UNL d   1      53.362  31.433  53.814  0.00  0.00    -0.075 SA
ATOM      5  S   UNL d   1      53.512  30.061  54.163  0.00  0.00    -0.080 SA
ATOM      6  C   UNL d   1      52.615  31.796  52.652  0.00  0.00     0.012 A 
ATOM      7  C   UNL d   1      52.914  29.057  53.349  0.00  0.00     0.007 A 
ATOM      8  C   UNL d   1      53.363  29.273  54.008  0.00  0.00     0.030 A 
ENDROOT
BRANCH   3   9
ATOM      9  C   UNL d   1      53.212  32.806  53.465  0.00  0.00     0.285 C 
ATOM     10  N   UNL d   1      52.702  33.235  53.955  0.00  0.00    -0.208 NA
ATOM     11  O   UNL d   1      53.871  33.176  53.133  0.00  0.00    -0.265 OA
BRANCH  10  12
ATOM     12  C   UNL d   1      52.849  34.032  54.111  0.00  0.00     0.085 A 
ATOM     13  C   UNL d   1      52.598  34.602  53.584  0.00  0.00     0.019 A 
ATOM     14  C   UNL d   1      52.746  35.393  53.742  0.00  0.00     0.002 A 
ATOM     15  C   UNL d   1      53.151  35.612  54.437  0.00  0.00     0.000 A 
ATOM     16  C   UNL d   1      53.400  35.028  54.962  0.00  0.00     0.002 A 
ATOM     17  C   UNL d   1      53.301  36.409  54.598  0.00  0.00     0.000 C 
ATOM     18  C   UNL d   1      53.251  34.240  54.801  0.00  0.00     0.019 A 
ENDBRANCH  10  12
ENDBRANCH   3   9
BRANCH   8  19
ATOM     19  C   UNL d   1      53.660  28.687  54.509  0.00  0.00     0.006 C 
ATOM     20  C   UNL d   1      53.262  28.492  55.199  0.00  0.00     0.001 C 
ENDBRANCH   8  19
TORSDOF 3
ENDMDL
