MODEL 1
REMARK VINA RESULT:      83.5      0.000      0.000
REMARK  5 active torsions:
REMARK  status: ('A' for Active; 'I' for Inactive)
REMARK    1  A    between atoms: C_4  and  S_1 
REMARK    2  A    between atoms: N_5  and  S_1 
REMARK    3  A    between atoms: C_2  and  C_9 
REMARK       I    between atoms: N_3  and  C_2 
REMARK    4  A    between atoms: C_8  and  N_3 
REMARK    5  A    between atoms: O_16  and  C_11 
ROOT
ATOM      1  C   UNL d   1      58.281  49.533  53.805  0.00  0.00     0.104 A 
ATOM      2  C   UNL d   1      59.070  49.400  52.329  0.00  0.00     0.058 A 
ATOM      3  C   UNL d   1      59.075  49.554  53.758  0.00  0.00     0.013 A 
ATOM      4  C   UNL d   1      57.865  49.446  53.115  0.00  0.00     0.013 A 
ATOM      5  C   UNL d   1      58.222  49.378  52.375  0.00  0.00     0.005 A 
ATOM      6  C   UNL d   1      59.467  49.488  53.029  0.00  0.00     0.005 A 
ENDROOT
BRANCH   2   7
ATOM      7  C   UNL d   1      59.471  49.333  51.584  0.00  0.00     0.279 C 
ATOM      8  N   UNL d   1      60.153  48.958  51.506  0.00  0.00    -0.206 NA
ATOM      9  O   UNL d   1      59.092  49.700  50.915  0.00  0.00    -0.265 OA
BRANCH   8  10
ATOM     10  C   UNL d   1      60.521  48.908  50.769  0.00  0.00     0.107 A 
ATOM     11  C   UNL d   1      60.864  48.212  50.544  0.00  0.00     0.112 A 
ATOM     12  C   UNL d   1      61.232  48.163  49.807  0.00  0.00     0.026 A 
ATOM     13  C   UNL d   1      61.256  48.810  49.296  0.00  0.00     0.002 A 
ATOM     14  C   UNL d   1      60.898  49.526  49.539  0.00  0.00     0.002 A 
ATOM     15  C   UNL d   1      60.531  49.570  50.276  0.00  0.00     0.021 A 
BRANCH  11  16
ATOM     16  O   UNL d   1      60.830  47.638  51.022  0.00  0.00    -0.327 OA
ATOM     17  C   UNL d   1      61.720  47.495  51.392  0.00  0.00     0.181 C 
ENDBRANCH  11  16
ENDBRANCH   8  10
ENDBRANCH   2   7
BRANCH   1  18
ATOM     18  S   UNL d   1      57.798  49.597  54.548  0.00  0.00     0.271 S 
ATOM     19  O   UNL d   1      58.465  49.661  55.059  0.00  0.00    -0.200 OA
ATOM     20  O   UNL d   1      57.164  49.536  54.055  0.00  0.00    -0.200 OA
BRANCH  18  21
ATOM     21  N   UNL d   1      57.261  49.656  55.242  0.00  0.00    -0.226 N 
ATOM     22  C   UNL d   1      57.573  49.704  56.005  0.00  0.00     0.111 C 
ATOM     23  C   UNL d   1      56.433  49.662  55.126  0.00  0.00     0.111 C 
ENDBRANCH  18  21
ENDBRANCH   1  18
TORSDOF 5
ENDMDL
