MODEL 1
REMARK VINA RESULT:      -4.2      0.000      0.000
REMARK  3 active torsions:
REMARK  status: ('A' for Active; 'I' for Inactive)
REMARK    1  A    between atoms: C_6  and  C_2 
REMARK       I    between atoms: N_8  and  C_6 
REMARK    2  A    between atoms: C_14  and  N_8 
REMARK    3  A    between atoms: C_15  and  C_14 
ROOT
ATOM      1  N   UNL d   1     -41.712-122.620 -53.489  0.00  0.00    -0.252 N 
ATOM      2  C   UNL d   1     -41.393-122.289 -52.140  0.00  0.00     0.133 A 
ATOM      3  C   UNL d   1     -41.688-122.071 -52.877  0.00  0.00     0.272 A 
ATOM      4  C   UNL d   1     -41.441-123.389 -53.364  0.00  0.00     0.182 A 
ATOM      5  N   UNL d   1     -41.146-123.609 -52.627  0.00  0.00    -0.220 NA
ATOM      6  C   UNL d   1     -41.123-123.059 -52.015  0.00  0.00     0.111 A 
ATOM      7  S   UNL d   1     -41.531-123.814 -54.071  0.00  0.00    -0.048 SA
ATOM      8  O   UNL d   1     -41.959-121.302 -53.002  0.00  0.00    -0.266 OA
ATOM      9  C   UNL d   1     -41.969-122.570 -54.273  0.00  0.00     0.092 A 
ATOM     10  C   UNL d   1     -41.856-123.307 -54.625  0.00  0.00     0.057 A 
ENDROOT
BRANCH   2  11
ATOM     11  C   UNL d   1     -41.367-121.737 -51.516  0.00  0.00     0.285 C 
ATOM     12  N   UNL d   1     -41.585-121.967 -50.752  0.00  0.00    -0.208 NA
ATOM     13  O   UNL d   1     -41.123-120.963 -51.666  0.00  0.00    -0.265 OA
BRANCH  12  14
ATOM     14  C   UNL d   1     -41.830-122.743 -50.606  0.00  0.00     0.085 C 
ATOM     15  C   UNL d   1     -41.271-123.357 -50.581  0.00  0.00     0.021 C 
BRANCH  14  16
ATOM     16  C   UNL d   1     -42.627-122.904 -50.485  0.00  0.00     0.019 C 
ATOM     17  C   UNL d   1     -42.896-123.126 -49.733  0.00  0.00     0.002 C 
ENDBRANCH  14  16
ENDBRANCH  12  14
ENDBRANCH   2  11
TORSDOF 3
ENDMDL
MODEL 2
REMARK VINA RESULT:      -3.9      2.766      4.396
REMARK  3 active torsions:
REMARK  status: ('A' for Active; 'I' for Inactive)
REMARK    1  A    between atoms: C_6  and  C_2 
REMARK       I    between atoms: N_8  and  C_6 
REMARK    2  A    between atoms: C_14  and  N_8 
REMARK    3  A    between atoms: C_15  and  C_14 
ROOT
ATOM      1  N   UNL d   1     -42.216-123.208 -48.006  0.00  0.00    -0.252 N 
ATOM      2  C   UNL d   1     -42.383-123.483 -49.394  0.00  0.00     0.133 A 
ATOM      3  C   UNL d   1     -42.680-123.189 -48.685  0.00  0.00     0.272 A 
ATOM      4  C   UNL d   1     -41.454-123.523 -48.035  0.00  0.00     0.182 A 
ATOM      5  N   UNL d   1     -41.156-123.817 -48.743  0.00  0.00    -0.220 NA
ATOM      6  C   UNL d   1     -41.620-123.798 -49.423  0.00  0.00     0.111 A 
ATOM      7  S   UNL d   1     -41.123-123.469 -47.277  0.00  0.00    -0.048 SA
ATOM      8  O   UNL d   1     -43.442-122.875 -48.656  0.00  0.00    -0.266 OA
ATOM      9  C   UNL d   1     -42.355-122.961 -47.229  0.00  0.00     0.092 A 
ATOM     10  C   UNL d   1     -41.679-123.124 -46.786  0.00  0.00     0.057 A 
ENDROOT
BRANCH   2  11
ATOM     11  C   UNL d   1     -42.848-123.466 -50.086  0.00  0.00     0.285 C 
ATOM     12  N   UNL d   1     -42.518-123.206 -50.798  0.00  0.00    -0.208 NA
ATOM     13  O   UNL d   1     -43.635-123.711 -50.054  0.00  0.00    -0.265 OA
BRANCH  12  14
ATOM     14  C   UNL d   1     -41.729-122.962 -50.826  0.00  0.00     0.085 C 
ATOM     15  C   UNL d   1     -41.123-123.525 -50.895  0.00  0.00     0.021 C 
BRANCH  14  16
ATOM     16  C   UNL d   1     -41.547-122.161 -50.786  0.00  0.00     0.019 C 
ATOM     17  C   UNL d   1     -41.234-121.772 -51.448  0.00  0.00     0.002 C 
ENDBRANCH  14  16
ENDBRANCH  12  14
ENDBRANCH   2  11
TORSDOF 3
ENDMDL
MODEL 3
REMARK VINA RESULT:      -2.9      1.652      3.494
REMARK  3 active torsions:
REMARK  status: ('A' for Active; 'I' for Inactive)
REMARK    1  A    between atoms: C_6  and  C_2 
REMARK       I    between atoms: N_8  and  C_6 
REMARK    2  A    between atoms: C_14  and  N_8 
REMARK    3  A    between atoms: C_15  and  C_14 
ROOT
ATOM      1  N   UNL d   1     -41.357-122.441 -52.007  0.00  0.00    -0.252 N 
ATOM      2  C   UNL d   1     -41.392-122.594 -53.424  0.00  0.00     0.133 A 
ATOM      3  C   UNL d   1     -41.451-122.920 -52.669  0.00  0.00     0.272 A 
ATOM      4  C   UNL d   1     -41.204-121.635 -52.099  0.00  0.00     0.182 A 
ATOM      5  N   UNL d   1     -41.146-121.309 -52.852  0.00  0.00    -0.220 NA
ATOM      6  C   UNL d   1     -41.240-121.789 -53.515  0.00  0.00     0.111 A 
ATOM      7  S   UNL d   1     -41.137-121.297 -51.344  0.00  0.00    -0.048 SA
ATOM      8  O   UNL d   1     -41.603-123.725 -52.578  0.00  0.00    -0.266 OA
ATOM      9  C   UNL d   1     -41.383-122.600 -51.197  0.00  0.00     0.092 A 
ATOM     10  C   UNL d   1     -41.247-121.893 -50.795  0.00  0.00     0.057 A 
ENDROOT
BRANCH   2  11
ATOM     11  C   UNL d   1     -41.487-123.075 -54.099  0.00  0.00     0.285 C 
ATOM     12  N   UNL d   1     -41.937-122.805 -54.737  0.00  0.00    -0.208 NA
ATOM     13  O   UNL d   1     -41.128-123.817 -54.124  0.00  0.00    -0.265 OA
BRANCH  12  14
ATOM     14  C   UNL d   1     -42.295-122.060 -54.708  0.00  0.00     0.085 C 
ATOM     15  C   UNL d   1     -42.973-121.943 -54.243  0.00  0.00     0.021 C 
BRANCH  14  16
ATOM     16  C   UNL d   1     -41.977-121.437 -55.141  0.00  0.00     0.019 C 
ATOM     17  C   UNL d   1     -42.135-121.371 -55.952  0.00  0.00     0.002 C 
ENDBRANCH  14  16
ENDBRANCH  12  14
ENDBRANCH   2  11
TORSDOF 3
ENDMDL
MODEL 4
REMARK VINA RESULT:      -2.1      1.451      1.780
REMARK  3 active torsions:
REMARK  status: ('A' for Active; 'I' for Inactive)
REMARK    1  A    between atoms: C_6  and  C_2 
REMARK       I    between atoms: N_8  and  C_6 
REMARK    2  A    between atoms: C_14  and  N_8 
REMARK    3  A    between atoms: C_15  and  C_14 
ROOT
ATOM      1  N   UNL d   1     -42.007-122.464 -54.250  0.00  0.00    -0.252 N 
ATOM      2  C   UNL d   1     -41.548-122.581 -52.906  0.00  0.00     0.133 A 
ATOM      3  C   UNL d   1     -41.861-122.926 -53.585  0.00  0.00     0.272 A 
ATOM      4  C   UNL d   1     -41.841-121.656 -54.236  0.00  0.00     0.182 A 
ATOM      5  N   UNL d   1     -41.528-121.310 -53.558  0.00  0.00    -0.220 NA
ATOM      6  C   UNL d   1     -41.382-121.773 -52.892  0.00  0.00     0.111 A 
ATOM      7  S   UNL d   1     -42.043-121.338 -54.975  0.00  0.00    -0.048 SA
ATOM      8  O   UNL d   1     -42.027-123.734 -53.598  0.00  0.00    -0.266 OA
ATOM      9  C   UNL d   1     -42.312-122.644 -54.997  0.00  0.00     0.092 A 
ATOM     10  C   UNL d   1     -42.331-121.947 -55.438  0.00  0.00     0.057 A 
ENDROOT
BRANCH   2  11
ATOM     11  C   UNL d   1     -41.398-123.044 -52.229  0.00  0.00     0.285 C 
ATOM     12  N   UNL d   1     -41.525-122.726 -51.476  0.00  0.00    -0.208 NA
ATOM     13  O   UNL d   1     -41.123-123.816 -52.316  0.00  0.00    -0.265 OA
BRANCH  12  14
ATOM     14  C   UNL d   1     -41.800-121.952 -51.392  0.00  0.00     0.085 C 
ATOM     15  C   UNL d   1     -41.295-121.312 -51.550  0.00  0.00     0.021 C 
BRANCH  14  16
ATOM     16  C   UNL d   1     -42.576-121.817 -51.153  0.00  0.00     0.019 C 
ATOM     17  C   UNL d   1     -42.798-121.960 -50.367  0.00  0.00     0.002 C 
ENDBRANCH  14  16
ENDBRANCH  12  14
ENDBRANCH   2  11
TORSDOF 3
ENDMDL
