MODEL 1
REMARK VINA RESULT:       6.3      0.000      0.000
REMARK  1 active torsions:
REMARK  status: ('A' for Active; 'I' for Inactive)
REMARK    1  A    between atoms: C_5  and  C_1 
ROOT
ATOM      1  C   UNL d   1     -51.726  25.354  33.323  0.00  0.00     0.005 A 
ATOM      2  C   UNL d   1     -50.915  25.504  33.310  0.00  0.00     0.001 A 
ATOM      3  C   UNL d   1     -52.262  25.977  33.331  0.00  0.00     0.001 A 
ATOM      4  C   UNL d   1     -51.180  26.907  33.314  0.00  0.00     0.058 A 
ATOM      5  C   UNL d   1     -51.991  26.757  33.327  0.00  0.00     0.011 A 
ATOM      6  C   UNL d   1     -50.640  26.276  33.306  0.00  0.00     0.011 A 
ATOM      7 CL   UNL d   1     -50.901  27.691  33.309  0.00  0.00    -0.082 Cl
ENDROOT
BRANCH   1   8
ATOM      8  C   UNL d   1     -51.999  24.576  33.328  0.00  0.00     0.060 A 
ATOM      9  C   UNL d   1     -51.652  23.854  33.333  0.00  0.00     0.206 A 
ATOM     10  N   UNL d   1     -52.092  23.194  33.336  0.00  0.00    -0.127 NA
ATOM     11  N   UNL d   1     -50.826  23.797  33.335  0.00  0.00    -0.125 N 
ATOM     12  N   UNL d   1     -52.880  23.261  33.335  0.00  0.00    -0.145 NA
ATOM     13  C   UNL d   1     -53.229  23.978  33.330  0.00  0.00     0.125 A 
ENDBRANCH   1   8
TORSDOF 1
ENDMDL
