MODEL 1
REMARK VINA RESULT:      -3.5      0.000      0.000
REMARK  6 active torsions:
REMARK  status: ('A' for Active; 'I' for Inactive)
REMARK    1  A    between atoms: S_6  and  N_1 
REMARK    2  A    between atoms: C_2  and  C_4 
REMARK    3  A    between atoms: C_12  and  C_3 
REMARK    4  A    between atoms: C_17  and  N_8 
REMARK    5  A    between atoms: C_16  and  C_10 
REMARK    6  A    between atoms: O_27  and  C_24 
ROOT
ATOM      1  N   UNL d   1     -46.329  14.031  22.546  0.00  0.00    -0.155 N 
ATOM      2  C   UNL d   1     -46.555  13.271  22.313  0.00  0.00     0.099 A 
ATOM      3  N   UNL d   1     -45.528  14.096  22.382  0.00  0.00    -0.156 NA
ATOM      4  C   UNL d   1     -45.259  13.385  22.050  0.00  0.00     0.103 A 
ATOM      5  C   UNL d   1     -45.917  12.887  22.017  0.00  0.00     0.041 A 
ENDROOT
BRANCH   2   6
ATOM      6  C   UNL d   1     -47.360  12.991  22.396  0.00  0.00     0.058 A 
ATOM      7  C   UNL d   1     -47.589  12.324  22.784  0.00  0.00     0.110 A 
ATOM      8  N   UNL d   1     -48.426  12.307  22.701  0.00  0.00    -0.165 NA
ATOM      9  N   UNL d   1     -48.672  12.967  22.265  0.00  0.00    -0.228 N 
ATOM     10  C   UNL d   1     -48.002  13.399  22.073  0.00  0.00     0.103 A 
BRANCH   7  11
ATOM     11  C   UNL d   1     -47.123  11.775  23.175  0.00  0.00     0.049 A 
ATOM     12  S   UNL d   1     -46.601  11.503  23.476  0.00  0.00    -0.085 SA
ATOM     13  C   UNL d   1     -46.846  10.732  23.697  0.00  0.00     0.035 A 
ATOM     14  C   UNL d   1     -47.590  10.517  23.511  0.00  0.00     0.007 A 
ATOM     15  C   UNL d   1     -47.829  11.163  23.163  0.00  0.00     0.009 A 
ENDBRANCH   7  11
BRANCH   9  16
ATOM     16  C   UNL d   1     -49.449  13.146  22.068  0.00  0.00     0.083 A 
ATOM     17  C   UNL d   1     -49.988  13.353  22.645  0.00  0.00     0.019 A 
ATOM     18  C   UNL d   1     -50.710  13.509  22.384  0.00  0.00     0.002 A 
ATOM     19  C   UNL d   1     -51.028  13.502  21.618  0.00  0.00     0.000 A 
ATOM     20  C   UNL d   1     -50.446  13.284  21.054  0.00  0.00     0.002 A 
ATOM     21  C   UNL d   1     -49.667  13.106  21.253  0.00  0.00     0.019 A 
ENDBRANCH   9  16
ENDBRANCH   2   6
BRANCH   1  22
ATOM     22  S   UNL d   1     -46.795  14.627  22.880  0.00  0.00     0.266 S 
ATOM     23  O   UNL d   1     -46.710  14.275  23.625  0.00  0.00    -0.203 OA
ATOM     24  O   UNL d   1     -46.879  14.977  22.139  0.00  0.00    -0.203 OA
ATOM     25  C   UNL d   1     -47.263  15.224  23.217  0.00  0.00     0.165 C 
ENDBRANCH   1  22
BRANCH   4  26
ATOM     26  C   UNL d   1     -44.498  13.196  21.799  0.00  0.00     0.020 A 
ATOM     27  C   UNL d   1     -44.194  12.429  21.839  0.00  0.00     0.004 A 
ATOM     28  C   UNL d   1     -43.433  12.271  21.583  0.00  0.00     0.024 A 
ATOM     29  C   UNL d   1     -42.969  12.884  21.282  0.00  0.00     0.094 A 
ATOM     30  C   UNL d   1     -43.273  13.651  21.242  0.00  0.00     0.024 A 
ATOM     31  C   UNL d   1     -44.006  13.790  21.492  0.00  0.00     0.004 A 
BRANCH  29  32
ATOM     32  O   UNL d   1     -42.190  12.704  21.023  0.00  0.00    -0.328 OA
ATOM     33  C   UNL d   1     -41.604  13.276  21.058  0.00  0.00     0.181 C 
ENDBRANCH  29  32
ENDBRANCH   4  26
TORSDOF 6
ENDMDL
MODEL 2
REMARK VINA RESULT:      -2.7      1.516      1.968
REMARK  6 active torsions:
REMARK  status: ('A' for Active; 'I' for Inactive)
REMARK    1  A    between atoms: S_6  and  N_1 
REMARK    2  A    between atoms: C_2  and  C_4 
REMARK    3  A    between atoms: C_12  and  C_3 
REMARK    4  A    between atoms: C_17  and  N_8 
REMARK    5  A    between atoms: C_16  and  C_10 
REMARK    6  A    between atoms: O_27  and  C_24 
ROOT
ATOM      1  N   UNL d   1     -47.472  13.122  21.451  0.00  0.00    -0.155 N 
ATOM      2  C   UNL d   1     -47.460  13.158  22.277  0.00  0.00     0.099 A 
ATOM      3  N   UNL d   1     -46.703  12.964  21.214  0.00  0.00    -0.156 NA
ATOM      4  C   UNL d   1     -46.218  12.903  21.885  0.00  0.00     0.103 A 
ATOM      5  C   UNL d   1     -46.713  13.027  22.534  0.00  0.00     0.041 A 
ENDROOT
BRANCH   2   6
ATOM      6  C   UNL d   1     -48.166  13.314  22.735  0.00  0.00     0.058 A 
ATOM      7  C   UNL d   1     -48.526  12.799  23.238  0.00  0.00     0.110 A 
ATOM      8  N   UNL d   1     -49.186  13.223  23.541  0.00  0.00    -0.165 NA
ATOM      9  N   UNL d   1     -49.200  13.982  23.208  0.00  0.00    -0.228 N 
ATOM     10  C   UNL d   1     -48.559  14.041  22.701  0.00  0.00     0.103 A 
BRANCH   7  11
ATOM     11  C   UNL d   1     -48.310  12.030  23.422  0.00  0.00     0.049 A 
ATOM     12  S   UNL d   1     -47.932  11.504  23.550  0.00  0.00    -0.085 SA
ATOM     13  C   UNL d   1     -48.465  10.874  23.698  0.00  0.00     0.035 A 
ATOM     14  C   UNL d   1     -49.244  11.037  23.655  0.00  0.00     0.007 A 
ATOM     15  C   UNL d   1     -49.210  11.787  23.476  0.00  0.00     0.009 A 
ENDBRANCH   7  11
BRANCH   9  16
ATOM     16  C   UNL d   1     -49.761  14.561  23.367  0.00  0.00     0.083 A 
ATOM     17  C   UNL d   1     -50.557  14.384  23.358  0.00  0.00     0.019 A 
ATOM     18  C   UNL d   1     -51.033  14.985  23.518  0.00  0.00     0.002 A 
ATOM     19  C   UNL d   1     -50.871  15.778  23.698  0.00  0.00     0.000 A 
ATOM     20  C   UNL d   1     -50.044  15.922  23.698  0.00  0.00     0.002 A 
ATOM     21  C   UNL d   1     -49.484  15.340  23.538  0.00  0.00     0.019 A 
ENDBRANCH   9  16
ENDBRANCH   2   6
BRANCH   1  22
ATOM     22  S   UNL d   1     -48.116  13.221  20.941  0.00  0.00     0.266 S 
ATOM     23  O   UNL d   1     -48.130  12.406  20.800  0.00  0.00    -0.203 OA
ATOM     24  O   UNL d   1     -48.101  14.033  21.082  0.00  0.00    -0.203 OA
ATOM     25  C   UNL d   1     -48.762  13.320  20.429  0.00  0.00     0.165 C 
ENDBRANCH   1  22
BRANCH   4  26
ATOM     26  C   UNL d   1     -45.410  12.750  21.916  0.00  0.00     0.020 A 
ATOM     27  C   UNL d   1     -44.892  12.971  21.311  0.00  0.00     0.004 A 
ATOM     28  C   UNL d   1     -44.093  12.805  21.369  0.00  0.00     0.024 A 
ATOM     29  C   UNL d   1     -43.805  12.415  22.038  0.00  0.00     0.094 A 
ATOM     30  C   UNL d   1     -44.323  12.193  22.643  0.00  0.00     0.024 A 
ATOM     31  C   UNL d   1     -45.090  12.358  22.574  0.00  0.00     0.004 A 
BRANCH  29  32
ATOM     32  O   UNL d   1     -42.981  12.252  22.082  0.00  0.00    -0.328 OA
ATOM     33  C   UNL d   1     -42.458  12.658  21.599  0.00  0.00     0.181 C 
ENDBRANCH  29  32
ENDBRANCH   4  26
TORSDOF 6
ENDMDL
MODEL 3
REMARK VINA RESULT:      -2.5      1.702      2.232
REMARK  6 active torsions:
REMARK  status: ('A' for Active; 'I' for Inactive)
REMARK    1  A    between atoms: S_6  and  N_1 
REMARK    2  A    between atoms: C_2  and  C_4 
REMARK    3  A    between atoms: C_12  and  C_3 
REMARK    4  A    between atoms: C_17  and  N_8 
REMARK    5  A    between atoms: C_16  and  C_10 
REMARK    6  A    between atoms: O_27  and  C_24 
ROOT
ATOM      1  N   UNL d   1     -46.795  13.580  22.681  0.00  0.00    -0.155 N 
ATOM      2  C   UNL d   1     -47.339  13.047  23.001  0.00  0.00     0.099 A 
ATOM      3  N   UNL d   1     -46.068  13.201  22.683  0.00  0.00    -0.156 NA
ATOM      4  C   UNL d   1     -46.159  12.440  23.001  0.00  0.00     0.103 A 
ATOM      5  C   UNL d   1     -46.959  12.368  23.192  0.00  0.00     0.041 A 
ENDROOT
BRANCH   2   6
ATOM      6  C   UNL d   1     -48.168  13.242  23.092  0.00  0.00     0.058 A 
ATOM      7  C   UNL d   1     -48.752  12.732  23.307  0.00  0.00     0.110 A 
ATOM      8  N   UNL d   1     -49.451  13.199  23.313  0.00  0.00    -0.165 NA
ATOM      9  N   UNL d   1     -49.262  13.978  23.101  0.00  0.00    -0.228 N 
ATOM     10  C   UNL d   1     -48.455  14.006  22.962  0.00  0.00     0.103 A 
BRANCH   7  11
ATOM     11  C   UNL d   1     -48.693  11.933  23.483  0.00  0.00     0.049 A 
ATOM     12  S   UNL d   1     -48.429  11.346  23.627  0.00  0.00    -0.085 SA
ATOM     13  C   UNL d   1     -49.076  10.818  23.697  0.00  0.00     0.035 A 
ATOM     14  C   UNL d   1     -49.806  11.117  23.583  0.00  0.00     0.007 A 
ATOM     15  C   UNL d   1     -49.623  11.853  23.437  0.00  0.00     0.009 A 
ENDBRANCH   7  11
BRANCH   9  16
ATOM     16  C   UNL d   1     -49.797  14.599  23.045  0.00  0.00     0.083 A 
ATOM     17  C   UNL d   1     -50.258  14.693  22.378  0.00  0.00     0.019 A 
ATOM     18  C   UNL d   1     -50.744  15.307  22.394  0.00  0.00     0.002 A 
ATOM     19  C   UNL d   1     -50.876  15.884  22.974  0.00  0.00     0.000 A 
ATOM     20  C   UNL d   1     -50.385  15.756  23.642  0.00  0.00     0.002 A 
ATOM     21  C   UNL d   1     -49.850  15.132  23.697  0.00  0.00     0.019 A 
ENDBRANCH   9  16
ENDBRANCH   2   6
BRANCH   1  22
ATOM     22  S   UNL d   1     -46.930  14.349  22.405  0.00  0.00     0.266 S 
ATOM     23  O   UNL d   1     -46.751  14.649  23.155  0.00  0.00    -0.203 OA
ATOM     24  O   UNL d   1     -47.108  14.049  21.658  0.00  0.00    -0.203 OA
ATOM     25  C   UNL d   1     -47.064  15.120  22.129  0.00  0.00     0.165 C 
ENDBRANCH   1  22
BRANCH   4  26
ATOM     26  C   UNL d   1     -45.582  11.863  23.112  0.00  0.00     0.020 A 
ATOM     27  C   UNL d   1     -45.698  11.206  23.599  0.00  0.00     0.004 A 
ATOM     28  C   UNL d   1     -45.106  10.649  23.690  0.00  0.00     0.024 A 
ATOM     29  C   UNL d   1     -44.389  10.747  23.291  0.00  0.00     0.094 A 
ATOM     30  C   UNL d   1     -44.273  11.404  22.804  0.00  0.00     0.024 A 
ATOM     31  C   UNL d   1     -44.851  11.933  22.725  0.00  0.00     0.004 A 
BRANCH  29  32
ATOM     32  O   UNL d   1     -43.792  10.164  23.396  0.00  0.00    -0.328 OA
ATOM     33  C   UNL d   1     -43.927   9.392  23.159  0.00  0.00     0.181 C 
ENDBRANCH  29  32
ENDBRANCH   4  26
TORSDOF 6
ENDMDL
MODEL 4
REMARK VINA RESULT:      -2.0      2.060      3.045
REMARK  6 active torsions:
REMARK  status: ('A' for Active; 'I' for Inactive)
REMARK    1  A    between atoms: S_6  and  N_1 
REMARK    2  A    between atoms: C_2  and  C_4 
REMARK    3  A    between atoms: C_12  and  C_3 
REMARK    4  A    between atoms: C_17  and  N_8 
REMARK    5  A    between atoms: C_16  and  C_10 
REMARK    6  A    between atoms: O_27  and  C_24 
ROOT
ATOM      1  N   UNL d   1     -47.960  11.817  22.923  0.00  0.00    -0.155 N 
ATOM      2  C   UNL d   1     -47.531  12.510  23.061  0.00  0.00     0.099 A 
ATOM      3  N   UNL d   1     -47.427  11.197  22.981  0.00  0.00    -0.156 NA
ATOM      4  C   UNL d   1     -46.674  11.501  23.153  0.00  0.00     0.103 A 
ATOM      5  C   UNL d   1     -46.765  12.320  23.198  0.00  0.00     0.041 A 
ENDROOT
BRANCH   2   6
ATOM      6  C   UNL d   1     -47.899  13.283  23.048  0.00  0.00     0.058 A 
ATOM      7  C   UNL d   1     -47.514  13.987  22.990  0.00  0.00     0.110 A 
ATOM      8  N   UNL d   1     -48.125  14.565  23.001  0.00  0.00    -0.165 NA
ATOM      9  N   UNL d   1     -48.860  14.186  23.066  0.00  0.00    -0.228 N 
ATOM     10  C   UNL d   1     -48.718  13.379  23.095  0.00  0.00     0.103 A 
BRANCH   7  11
ATOM     11  C   UNL d   1     -46.708  14.126  22.932  0.00  0.00     0.049 A 
ATOM     12  S   UNL d   1     -46.057  14.055  23.015  0.00  0.00    -0.085 SA
ATOM     13  C   UNL d   1     -45.705  14.685  22.590  0.00  0.00     0.035 A 
ATOM     14  C   UNL d   1     -46.193  15.189  22.212  0.00  0.00     0.007 A 
ATOM     15  C   UNL d   1     -46.873  14.875  22.398  0.00  0.00     0.009 A 
ENDBRANCH   7  11
BRANCH   9  16
ATOM     16  C   UNL d   1     -49.589  14.562  23.094  0.00  0.00     0.083 A 
ATOM     17  C   UNL d   1     -50.190  14.345  22.587  0.00  0.00     0.019 A 
ATOM     18  C   UNL d   1     -50.857  14.747  22.671  0.00  0.00     0.002 A 
ATOM     19  C   UNL d   1     -51.064  15.361  23.189  0.00  0.00     0.000 A 
ATOM     20  C   UNL d   1     -50.423  15.556  23.693  0.00  0.00     0.002 A 
ATOM     21  C   UNL d   1     -49.692  15.178  23.663  0.00  0.00     0.019 A 
ENDBRANCH   9  16
ENDBRANCH   2   6
BRANCH   1  22
ATOM     22  S   UNL d   1     -48.766  11.736  22.757  0.00  0.00     0.266 S 
ATOM     23  O   UNL d   1     -48.924  11.656  23.565  0.00  0.00    -0.203 OA
ATOM     24  O   UNL d   1     -48.609  11.817  21.952  0.00  0.00    -0.203 OA
ATOM     25  C   UNL d   1     -49.576  11.655  22.592  0.00  0.00     0.165 C 
ENDBRANCH   1  22
BRANCH   4  26
ATOM     26  C   UNL d   1     -45.970  11.086  23.260  0.00  0.00     0.020 A 
ATOM     27  C   UNL d   1     -45.945  10.335  23.602  0.00  0.00     0.004 A 
ATOM     28  C   UNL d   1     -45.231   9.947  23.696  0.00  0.00     0.024 A 
ATOM     29  C   UNL d   1     -44.533  10.312  23.446  0.00  0.00     0.094 A 
ATOM     30  C   UNL d   1     -44.558  11.063  23.105  0.00  0.00     0.024 A 
ATOM     31  C   UNL d   1     -45.252  11.426  23.020  0.00  0.00     0.004 A 
BRANCH  29  32
ATOM     32  O   UNL d   1     -43.808   9.898  23.550  0.00  0.00    -0.328 OA
ATOM     33  C   UNL d   1     -43.119  10.190  23.217  0.00  0.00     0.181 C 
ENDBRANCH  29  32
ENDBRANCH   4  26
TORSDOF 6
ENDMDL
MODEL 5
REMARK VINA RESULT:      -1.7      7.536      9.520
REMARK  6 active torsions:
REMARK  status: ('A' for Active; 'I' for Inactive)
REMARK    1  A    between atoms: S_6  and  N_1 
REMARK    2  A    between atoms: C_2  and  C_4 
REMARK    3  A    between atoms: C_12  and  C_3 
REMARK    4  A    between atoms: C_17  and  N_8 
REMARK    5  A    between atoms: C_16  and  C_10 
REMARK    6  A    between atoms: O_27  and  C_24 
ROOT
ATOM      1  N   UNL d   1     -38.728  13.997  17.756  0.00  0.00    -0.155 N 
ATOM      2  C   UNL d   1     -39.089  14.737  17.814  0.00  0.00     0.099 A 
ATOM      3  N   UNL d   1     -38.443  13.935  16.990  0.00  0.00    -0.156 NA
ATOM      4  C   UNL d   1     -38.624  14.631  16.576  0.00  0.00     0.103 A 
ATOM      5  C   UNL d   1     -39.026  15.115  17.110  0.00  0.00     0.041 A 
ENDROOT
BRANCH   2   6
ATOM      6  C   UNL d   1     -39.456  15.009  18.539  0.00  0.00     0.058 A 
ATOM      7  C   UNL d   1     -40.151  15.411  18.593  0.00  0.00     0.110 A 
ATOM      8  N   UNL d   1     -40.258  15.541  19.417  0.00  0.00    -0.165 NA
ATOM      9  N   UNL d   1     -39.620  15.211  19.831  0.00  0.00    -0.228 N 
ATOM     10  C   UNL d   1     -39.115  14.876  19.280  0.00  0.00     0.103 A 
BRANCH   7  11
ATOM     11  C   UNL d   1     -40.653  15.647  17.989  0.00  0.00     0.049 A 
ATOM     12  S   UNL d   1     -40.860  15.852  17.397  0.00  0.00    -0.085 SA
ATOM     13  C   UNL d   1     -41.694  15.913  17.458  0.00  0.00     0.035 A 
ATOM     14  C   UNL d   1     -42.024  15.727  18.159  0.00  0.00     0.007 A 
ATOM     15  C   UNL d   1     -41.388  15.542  18.556  0.00  0.00     0.009 A 
ENDBRANCH   7  11
BRANCH   9  16
ATOM     16  C   UNL d   1     -39.524  15.225  20.647  0.00  0.00     0.083 A 
ATOM     17  C   UNL d   1     -39.823  14.625  21.112  0.00  0.00     0.019 A 
ATOM     18  C   UNL d   1     -39.694  14.704  21.880  0.00  0.00     0.002 A 
ATOM     19  C   UNL d   1     -39.304  15.295  22.311  0.00  0.00     0.000 A 
ATOM     20  C   UNL d   1     -39.011  15.894  21.800  0.00  0.00     0.002 A 
ATOM     21  C   UNL d   1     -39.108  15.878  20.983  0.00  0.00     0.019 A 
ENDBRANCH   9  16
ENDBRANCH   2   6
BRANCH   1  22
ATOM     22  S   UNL d   1     -38.654  13.413  18.339  0.00  0.00     0.266 S 
ATOM     23  O   UNL d   1     -39.362  13.069  18.084  0.00  0.00    -0.203 OA
ATOM     24  O   UNL d   1     -37.949  13.756  18.592  0.00  0.00    -0.203 OA
ATOM     25  C   UNL d   1     -38.581  12.827  18.922  0.00  0.00     0.165 C 
ENDBRANCH   1  22
BRANCH   4  26
ATOM     26  C   UNL d   1     -38.448  14.818  15.793  0.00  0.00     0.020 A 
ATOM     27  C   UNL d   1     -38.156  15.557  15.568  0.00  0.00     0.004 A 
ATOM     28  C   UNL d   1     -37.990  15.714  14.782  0.00  0.00     0.024 A 
ATOM     29  C   UNL d   1     -38.116  15.128  14.214  0.00  0.00     0.094 A 
ATOM     30  C   UNL d   1     -38.408  14.389  14.439  0.00  0.00     0.024 A 
ATOM     31  C   UNL d   1     -38.564  14.250  15.198  0.00  0.00     0.004 A 
BRANCH  29  32
ATOM     32  O   UNL d   1     -37.940  15.306  13.411  0.00  0.00    -0.328 OA
ATOM     33  C   UNL d   1     -38.165  14.788  12.817  0.00  0.00     0.181 C 
ENDBRANCH  29  32
ENDBRANCH   4  26
TORSDOF 6
ENDMDL
MODEL 6
REMARK VINA RESULT:      -1.4      1.576      4.987
REMARK  6 active torsions:
REMARK  status: ('A' for Active; 'I' for Inactive)
REMARK    1  A    between atoms: S_6  and  N_1 
REMARK    2  A    between atoms: C_2  and  C_4 
REMARK    3  A    between atoms: C_12  and  C_3 
REMARK    4  A    between atoms: C_17  and  N_8 
REMARK    5  A    between atoms: C_16  and  C_10 
REMARK    6  A    between atoms: O_27  and  C_24 
ROOT
ATOM      1  N   UNL d   1     -46.343  13.488  22.820  0.00  0.00    -0.155 N 
ATOM      2  C   UNL d   1     -46.088  12.738  22.586  0.00  0.00     0.099 A 
ATOM      3  N   UNL d   1     -47.149  13.427  22.960  0.00  0.00    -0.156 NA
ATOM      4  C   UNL d   1     -47.392  12.647  22.815  0.00  0.00     0.103 A 
ATOM      5  C   UNL d   1     -46.713  12.238  22.584  0.00  0.00     0.041 A 
ENDROOT
BRANCH   2   6
ATOM      6  C   UNL d   1     -45.270  12.577  22.389  0.00  0.00     0.058 A 
ATOM      7  C   UNL d   1     -44.848  11.932  22.620  0.00  0.00     0.110 A 
ATOM      8  N   UNL d   1     -44.086  12.044  22.281  0.00  0.00    -0.165 NA
ATOM      9  N   UNL d   1     -44.077  12.757  21.857  0.00  0.00    -0.228 N 
ATOM     10  C   UNL d   1     -44.822  13.093  21.925  0.00  0.00     0.103 A 
BRANCH   7  11
ATOM     11  C   UNL d   1     -45.092  11.299  23.080  0.00  0.00     0.049 A 
ATOM     12  S   UNL d   1     -45.482  10.901  23.434  0.00  0.00    -0.085 SA
ATOM     13  C   UNL d   1     -44.990  10.274  23.692  0.00  0.00     0.035 A 
ATOM     14  C   UNL d   1     -44.225  10.295  23.472  0.00  0.00     0.007 A 
ATOM     15  C   UNL d   1     -44.225  10.950  23.063  0.00  0.00     0.009 A 
ENDBRANCH   7  11
BRANCH   9  16
ATOM     16  C   UNL d   1     -43.432  13.059  21.448  0.00  0.00     0.083 A 
ATOM     17  C   UNL d   1     -43.011  13.692  21.744  0.00  0.00     0.019 A 
ATOM     18  C   UNL d   1     -42.409  13.927  21.300  0.00  0.00     0.002 A 
ATOM     19  C   UNL d   1     -42.121  13.644  20.576  0.00  0.00     0.000 A 
ATOM     20  C   UNL d   1     -42.578  12.995  20.304  0.00  0.00     0.002 A 
ATOM     21  C   UNL d   1     -43.224  12.694  20.716  0.00  0.00     0.019 A 
ENDBRANCH   9  16
ENDBRANCH   2   6
BRANCH   1  22
ATOM     22  S   UNL d   1     -45.898  14.180  22.905  0.00  0.00     0.266 S 
ATOM     23  O   UNL d   1     -46.032  14.364  22.109  0.00  0.00    -0.203 OA
ATOM     24  O   UNL d   1     -45.763  13.997  23.697  0.00  0.00    -0.203 OA
ATOM     25  C   UNL d   1     -45.451  14.875  22.988  0.00  0.00     0.165 C 
ENDBRANCH   1  22
BRANCH   4  26
ATOM     26  C   UNL d   1     -48.148  12.329  22.883  0.00  0.00     0.020 A 
ATOM     27  C   UNL d   1     -48.484  12.132  23.611  0.00  0.00     0.004 A 
ATOM     28  C   UNL d   1     -49.239  11.818  23.647  0.00  0.00     0.024 A 
ATOM     29  C   UNL d   1     -49.664  11.698  22.949  0.00  0.00     0.094 A 
ATOM     30  C   UNL d   1     -49.328  11.895  22.221  0.00  0.00     0.024 A 
ATOM     31  C   UNL d   1     -48.602  12.196  22.200  0.00  0.00     0.004 A 
BRANCH  29  32
ATOM     32  O   UNL d   1     -50.438  11.374  23.005  0.00  0.00    -0.328 OA
ATOM     33  C   UNL d   1     -51.033  11.794  23.381  0.00  0.00     0.181 C 
ENDBRANCH  29  32
ENDBRANCH   4  26
TORSDOF 6
ENDMDL
MODEL 7
REMARK VINA RESULT:      -1.4      1.055      2.247
REMARK  6 active torsions:
REMARK  status: ('A' for Active; 'I' for Inactive)
REMARK    1  A    between atoms: S_6  and  N_1 
REMARK    2  A    between atoms: C_2  and  C_4 
REMARK    3  A    between atoms: C_12  and  C_3 
REMARK    4  A    between atoms: C_17  and  N_8 
REMARK    5  A    between atoms: C_16  and  C_10 
REMARK    6  A    between atoms: O_27  and  C_24 
ROOT
ATOM      1  N   UNL d   1     -46.425  12.036  22.606  0.00  0.00    -0.155 N 
ATOM      2  C   UNL d   1     -46.576  12.758  22.234  0.00  0.00     0.099 A 
ATOM      3  N   UNL d   1     -45.623  11.890  22.516  0.00  0.00    -0.156 NA
ATOM      4  C   UNL d   1     -45.279  12.515  22.092  0.00  0.00     0.103 A 
ATOM      5  C   UNL d   1     -45.892  13.043  21.928  0.00  0.00     0.041 A 
ENDROOT
BRANCH   2   6
ATOM      6  C   UNL d   1     -47.360  13.102  22.209  0.00  0.00     0.058 A 
ATOM      7  C   UNL d   1     -47.547  13.862  22.391  0.00  0.00     0.110 A 
ATOM      8  N   UNL d   1     -48.379  13.910  22.277  0.00  0.00    -0.165 NA
ATOM      9  N   UNL d   1     -48.664  13.172  22.028  0.00  0.00    -0.228 N 
ATOM     10  C   UNL d   1     -48.024  12.663  21.985  0.00  0.00     0.103 A 
BRANCH   7  11
ATOM     11  C   UNL d   1     -47.050  14.467  22.636  0.00  0.00     0.049 A 
ATOM     12  S   UNL d   1     -46.524  14.776  22.890  0.00  0.00    -0.085 SA
ATOM     13  C   UNL d   1     -46.690  15.595  22.821  0.00  0.00     0.035 A 
ATOM     14  C   UNL d   1     -47.385  15.801  22.492  0.00  0.00     0.007 A 
ATOM     15  C   UNL d   1     -47.673  15.100  22.346  0.00  0.00     0.009 A 
ENDBRANCH   7  11
BRANCH   9  16
ATOM     16  C   UNL d   1     -49.449  12.997  21.859  0.00  0.00     0.083 A 
ATOM     17  C   UNL d   1     -49.678  12.801  21.101  0.00  0.00     0.019 A 
ATOM     18  C   UNL d   1     -50.441  12.647  21.015  0.00  0.00     0.002 A 
ATOM     19  C   UNL d   1     -51.064  12.647  21.561  0.00  0.00     0.000 A 
ATOM     20  C   UNL d   1     -50.791  12.853  22.328  0.00  0.00     0.002 A 
ATOM     21  C   UNL d   1     -50.004  13.028  22.495  0.00  0.00     0.019 A 
ENDBRANCH   9  16
ENDBRANCH   2   6
BRANCH   1  22
ATOM     22  S   UNL d   1     -46.957  11.538  22.998  0.00  0.00     0.266 S 
ATOM     23  O   UNL d   1     -47.084  11.119  22.296  0.00  0.00    -0.203 OA
ATOM     24  O   UNL d   1     -46.831  11.955  23.698  0.00  0.00    -0.203 OA
ATOM     25  C   UNL d   1     -47.491  11.038  23.391  0.00  0.00     0.165 C 
ENDBRANCH   1  22
BRANCH   4  26
ATOM     26  C   UNL d   1     -44.491  12.607  21.872  0.00  0.00     0.020 A 
ATOM     27  C   UNL d   1     -43.882  12.157  22.202  0.00  0.00     0.004 A 
ATOM     28  C   UNL d   1     -43.107  12.271  21.963  0.00  0.00     0.024 A 
ATOM     29  C   UNL d   1     -42.937  12.840  21.389  0.00  0.00     0.094 A 
ATOM     30  C   UNL d   1     -43.546  13.290  21.060  0.00  0.00     0.024 A 
ATOM     31  C   UNL d   1     -44.287  13.171  21.298  0.00  0.00     0.004 A 
BRANCH  29  32
ATOM     32  O   UNL d   1     -42.136  12.944  21.156  0.00  0.00    -0.328 OA
ATOM     33  C   UNL d   1     -41.899  13.644  20.802  0.00  0.00     0.181 C 
ENDBRANCH  29  32
ENDBRANCH   4  26
TORSDOF 6
ENDMDL
MODEL 8
REMARK VINA RESULT:      -1.3      3.961      8.086
REMARK  6 active torsions:
REMARK  status: ('A' for Active; 'I' for Inactive)
REMARK    1  A    between atoms: S_6  and  N_1 
REMARK    2  A    between atoms: C_2  and  C_4 
REMARK    3  A    between atoms: C_12  and  C_3 
REMARK    4  A    between atoms: C_17  and  N_8 
REMARK    5  A    between atoms: C_16  and  C_10 
REMARK    6  A    between atoms: O_27  and  C_24 
ROOT
ATOM      1  N   UNL d   1     -41.280  14.510  20.057  0.00  0.00    -0.155 N 
ATOM      2  C   UNL d   1     -40.824  13.825  20.128  0.00  0.00     0.099 A 
ATOM      3  N   UNL d   1     -41.981  14.365  20.457  0.00  0.00    -0.156 NA
ATOM      4  C   UNL d   1     -41.961  13.598  20.773  0.00  0.00     0.103 A 
ATOM      5  C   UNL d   1     -41.231  13.282  20.555  0.00  0.00     0.041 A 
ENDROOT
BRANCH   2   6
ATOM      6  C   UNL d   1     -40.044  13.759  19.780  0.00  0.00     0.058 A 
ATOM      7  C   UNL d   1     -39.352  13.690  20.184  0.00  0.00     0.110 A 
ATOM      8  N   UNL d   1     -38.761  13.646  19.586  0.00  0.00    -0.165 NA
ATOM      9  N   UNL d   1     -39.121  13.691  18.841  0.00  0.00    -0.228 N 
ATOM     10  C   UNL d   1     -39.929  13.763  18.961  0.00  0.00     0.103 A 
BRANCH   7  11
ATOM     11  C   UNL d   1     -39.233  13.665  20.994  0.00  0.00     0.049 A 
ATOM     12  S   UNL d   1     -39.362  13.643  21.642  0.00  0.00    -0.085 SA
ATOM     13  C   UNL d   1     -38.614  13.639  22.020  0.00  0.00     0.035 A 
ATOM     14  C   UNL d   1     -37.968  13.661  21.555  0.00  0.00     0.007 A 
ATOM     15  C   UNL d   1     -38.308  13.679  20.861  0.00  0.00     0.009 A 
ENDBRANCH   7  11
BRANCH   9  16
ATOM     16  C   UNL d   1     -38.728  13.667  18.120  0.00  0.00     0.083 A 
ATOM     17  C   UNL d   1     -38.300  14.310  17.858  0.00  0.00     0.019 A 
ATOM     18  C   UNL d   1     -37.951  14.216  17.162  0.00  0.00     0.002 A 
ATOM     19  C   UNL d   1     -37.940  13.573  16.639  0.00  0.00     0.000 A 
ATOM     20  C   UNL d   1     -38.390  12.932  16.942  0.00  0.00     0.002 A 
ATOM     21  C   UNL d   1     -38.783  12.958  17.665  0.00  0.00     0.019 A 
ENDBRANCH   9  16
ENDBRANCH   2   6
BRANCH   1  22
ATOM     22  S   UNL d   1     -41.093  15.215  19.667  0.00  0.00     0.266 S 
ATOM     23  O   UNL d   1     -41.326  14.879  18.948  0.00  0.00    -0.203 OA
ATOM     24  O   UNL d   1     -40.860  15.549  20.384  0.00  0.00    -0.203 OA
ATOM     25  C   UNL d   1     -40.905  15.922  19.275  0.00  0.00     0.165 C 
ENDBRANCH   1  22
BRANCH   4  26
ATOM     26  C   UNL d   1     -42.541  13.215  21.215  0.00  0.00     0.020 A 
ATOM     27  C   UNL d   1     -42.402  12.500  21.605  0.00  0.00     0.004 A 
ATOM     28  C   UNL d   1     -42.997  12.142  22.038  0.00  0.00     0.024 A 
ATOM     29  C   UNL d   1     -43.741  12.500  22.082  0.00  0.00     0.094 A 
ATOM     30  C   UNL d   1     -43.880  13.215  21.691  0.00  0.00     0.024 A 
ATOM     31  C   UNL d   1     -43.298  13.549  21.279  0.00  0.00     0.004 A 
BRANCH  29  32
ATOM     32  O   UNL d   1     -44.341  12.119  22.530  0.00  0.00    -0.328 OA
ATOM     33  C   UNL d   1     -45.110  12.399  22.508  0.00  0.00     0.181 C 
ENDBRANCH  29  32
ENDBRANCH   4  26
TORSDOF 6
ENDMDL
