MODEL 1
REMARK VINA RESULT:      67.1      0.000      0.000
REMARK  4 active torsions:
REMARK  status: ('A' for Active; 'I' for Inactive)
REMARK    1  A    between atoms: N_2  and  S_1 
REMARK    2  A    between atoms: C_4  and  S_1 
REMARK    3  A    between atoms: C_3  and  C_8 
REMARK       I    between atoms: N_5  and  C_3 
REMARK    4  A    between atoms: C_17  and  N_5 
ROOT
ATOM      1  C   UNL d   1     -49.904  27.262  33.945  0.00  0.00     0.104 A 
ATOM      2  C   UNL d   1     -48.940  28.562  34.257  0.00  0.00     0.058 A 
ATOM      3  C   UNL d   1     -49.297  27.215  34.521  0.00  0.00     0.013 A 
ATOM      4  C   UNL d   1     -50.020  27.977  33.524  0.00  0.00     0.013 A 
ATOM      5  C   UNL d   1     -48.824  27.867  34.669  0.00  0.00     0.005 A 
ATOM      6  C   UNL d   1     -49.542  28.628  33.676  0.00  0.00     0.005 A 
ENDROOT
BRANCH   1   7
ATOM      7  S   UNL d   1     -50.395  26.609  33.782  0.00  0.00     0.272 S 
ATOM      8  O   UNL d   1     -49.729  26.130  33.606  0.00  0.00    -0.200 OA
ATOM      9  O   UNL d   1     -51.073  27.082  33.958  0.00  0.00    -0.200 OA
BRANCH   7  10
ATOM     10  N   UNL d   1     -50.906  25.964  33.623  0.00  0.00    -0.225 N 
ATOM     11  C   UNL d   1     -51.721  26.084  33.568  0.00  0.00     0.118 A 
ATOM     12  C   UNL d   1     -52.209  25.448  33.413  0.00  0.00     0.142 A 
ATOM     13  O   UNL d   1     -51.884  24.669  33.307  0.00  0.00    -0.300 OA
ATOM     14  C   UNL d   1     -51.080  24.549  33.360  0.00  0.00     0.142 A 
ATOM     15  C   UNL d   1     -50.581  25.185  33.517  0.00  0.00     0.118 A 
ENDBRANCH   7  10
ENDBRANCH   1   7
BRANCH   2  16
ATOM     16  C   UNL d   1     -48.463  29.229  34.401  0.00  0.00     0.279 C 
ATOM     17  N   UNL d   1     -48.785  29.986  34.419  0.00  0.00    -0.208 NA
ATOM     18  O   UNL d   1     -47.655  29.109  34.525  0.00  0.00    -0.265 OA
BRANCH  17  19
ATOM     19  C   UNL d   1     -48.307  30.653  34.563  0.00  0.00     0.085 A 
ATOM     20  C   UNL d   1     -48.392  31.321  34.084  0.00  0.00     0.019 A 
ATOM     21  C   UNL d   1     -47.927  31.990  34.213  0.00  0.00     0.002 A 
ATOM     22  C   UNL d   1     -47.380  31.981  34.825  0.00  0.00     0.000 A 
ATOM     23  C   UNL d   1     -47.296  31.313  35.305  0.00  0.00     0.002 A 
ATOM     24  C   UNL d   1     -47.758  30.656  35.172  0.00  0.00     0.019 A 
ENDBRANCH  17  19
ENDBRANCH   2  16
TORSDOF 4
ENDMDL
MODEL 2
REMARK VINA RESULT:      68.2      1.143      5.487
REMARK  4 active torsions:
REMARK  status: ('A' for Active; 'I' for Inactive)
REMARK    1  A    between atoms: N_2  and  S_1 
REMARK    2  A    between atoms: C_4  and  S_1 
REMARK    3  A    between atoms: C_3  and  C_8 
REMARK       I    between atoms: N_5  and  C_3 
REMARK    4  A    between atoms: C_17  and  N_5 
ROOT
ATOM      1  C   UNL d   1     -48.780  28.575  34.605  0.00  0.00     0.104 A 
ATOM      2  C   UNL d   1     -49.584  27.203  34.177  0.00  0.00     0.058 A 
ATOM      3  C   UNL d   1     -49.078  28.055  35.191  0.00  0.00     0.013 A 
ATOM      4  C   UNL d   1     -48.892  28.395  33.795  0.00  0.00     0.013 A 
ATOM      5  C   UNL d   1     -49.477  27.376  34.967  0.00  0.00     0.005 A 
ATOM      6  C   UNL d   1     -49.293  27.711  33.577  0.00  0.00     0.005 A 
ENDROOT
BRANCH   1   7
ATOM      7  S   UNL d   1     -48.372  29.272  34.814  0.00  0.00     0.272 S 
ATOM      8  O   UNL d   1     -48.963  29.747  34.455  0.00  0.00    -0.200 OA
ATOM      9  O   UNL d   1     -47.770  28.803  35.180  0.00  0.00    -0.200 OA
BRANCH   7  10
ATOM     10  N   UNL d   1     -47.947  29.960  35.034  0.00  0.00    -0.225 N 
ATOM     11  C   UNL d   1     -48.055  30.665  34.618  0.00  0.00     0.118 A 
ATOM     12  C   UNL d   1     -47.636  31.329  34.840  0.00  0.00     0.142 A 
ATOM     13  O   UNL d   1     -47.092  31.298  35.493  0.00  0.00    -0.300 OA
ATOM     14  C   UNL d   1     -46.984  30.603  35.905  0.00  0.00     0.142 A 
ATOM     15  C   UNL d   1     -47.403  29.929  35.687  0.00  0.00     0.118 A 
ENDBRANCH   7  10
ENDBRANCH   1   7
BRANCH   2  16
ATOM     16  C   UNL d   1     -49.989  26.514  33.941  0.00  0.00     0.279 C 
ATOM     17  N   UNL d   1     -50.807  26.458  34.006  0.00  0.00    -0.208 NA
ATOM     18  O   UNL d   1     -49.544  25.886  33.640  0.00  0.00    -0.265 OA
BRANCH  17  19
ATOM     19  C   UNL d   1     -51.211  25.769  33.770  0.00  0.00     0.085 A 
ATOM     20  C   UNL d   1     -50.781  25.080  33.621  0.00  0.00     0.019 A 
ATOM     21  C   UNL d   1     -51.165  24.388  33.387  0.00  0.00     0.002 A 
ATOM     22  C   UNL d   1     -51.982  24.398  33.306  0.00  0.00     0.000 A 
ATOM     23  C   UNL d   1     -52.412  25.087  33.455  0.00  0.00     0.002 A 
ATOM     24  C   UNL d   1     -52.026  25.766  33.686  0.00  0.00     0.019 A 
ENDBRANCH  17  19
ENDBRANCH   2  16
TORSDOF 4
ENDMDL
