MODEL 1
REMARK VINA RESULT:       6.8      0.000      0.000
REMARK  2 active torsions:
REMARK  status: ('A' for Active; 'I' for Inactive)
REMARK    1  A    between atoms: N_8  and  C_7 
REMARK    2  A    between atoms: C_9  and  N_8 
ROOT
ATOM      1  N   UNL d   1      45.433 -13.101  44.713  0.00  0.00    -0.245 NA
ENDROOT
BRANCH   1   2
ATOM      2  C   UNL d   1      45.451 -13.916  44.785  0.00  0.00     0.093 A 
ATOM      3  C   UNL d   1      44.806 -14.423  44.735  0.00  0.00     0.118 A 
ATOM      4  S   UNL d   1      45.089 -15.195  44.841  0.00  0.00     0.213 S 
ATOM      5  C   UNL d   1      45.901 -15.163  44.955  0.00  0.00     0.100 A 
ATOM      6  O   UNL d   1      45.432 -15.934  44.953  0.00  0.00    -0.217 OA
ATOM      7  O   UNL d   1      44.281 -15.134  44.720  0.00  0.00    -0.217 OA
ATOM      8  C   UNL d   1      46.126 -14.371  44.920  0.00  0.00     0.032 A 
ENDBRANCH   1   2
BRANCH   1   9
ATOM      9  C   UNL d   1      45.360 -12.760  43.963  0.00  0.00     0.082 A 
ATOM     10  C   UNL d   1      44.612 -12.604  43.652  0.00  0.00     0.030 A 
ATOM     11  C   UNL d   1      44.537 -12.268  42.915  0.00  0.00     0.059 A 
ATOM     12 CL   UNL d   1      43.841 -12.080  42.529  0.00  0.00    -0.082 Cl
ATOM     13  C   UNL d   1      45.211 -12.082  42.475  0.00  0.00     0.011 A 
ATOM     14  C   UNL d   1      45.959 -12.237  42.785  0.00  0.00     0.002 A 
ATOM     15  C   UNL d   1      46.034 -12.579  43.536  0.00  0.00     0.019 A 
ENDBRANCH   1   9
TORSDOF 2
ENDMDL
MODEL 2
REMARK VINA RESULT:       7.5      6.893      7.549
REMARK  2 active torsions:
REMARK  status: ('A' for Active; 'I' for Inactive)
REMARK    1  A    between atoms: N_8  and  C_7 
REMARK    2  A    between atoms: C_9  and  N_8 
ROOT
ATOM      1  N   UNL d   1      44.865 -15.948  37.359  0.00  0.00    -0.245 NA
ENDROOT
BRANCH   1   2
ATOM      2  C   UNL d   1      44.098 -15.813  37.109  0.00  0.00     0.093 A 
ATOM      3  C   UNL d   1      43.483 -15.514  37.564  0.00  0.00     0.118 A 
ATOM      4  S   UNL d   1      42.812 -15.474  37.079  0.00  0.00     0.213 S 
ATOM      5  C   UNL d   1      43.013 -15.746  36.331  0.00  0.00     0.100 A 
ATOM      6  O   UNL d   1      42.184 -15.460  36.547  0.00  0.00    -0.217 OA
ATOM      7  O   UNL d   1      42.700 -15.220  37.850  0.00  0.00    -0.217 OA
ATOM      8  C   UNL d   1      43.810 -15.957  36.349  0.00  0.00     0.032 A 
ENDBRANCH   1   2
BRANCH   1   9
ATOM      9  C   UNL d   1      45.461 -15.414  37.149  0.00  0.00     0.082 A 
ATOM     10  C   UNL d   1      45.535 -14.698  37.551  0.00  0.00     0.030 A 
ATOM     11  C   UNL d   1      46.121 -14.171  37.345  0.00  0.00     0.059 A 
ATOM     12 CL   UNL d   1      46.268 -13.443  37.686  0.00  0.00    -0.082 Cl
ATOM     13  C   UNL d   1      46.644 -14.354  36.733  0.00  0.00     0.011 A 
ATOM     14  C   UNL d   1      46.571 -15.070  36.330  0.00  0.00     0.002 A 
ATOM     15  C   UNL d   1      45.975 -15.604  36.540  0.00  0.00     0.019 A 
ENDBRANCH   1   9
TORSDOF 2
ENDMDL
MODEL 3
REMARK VINA RESULT:       7.9      2.047      3.174
REMARK  2 active torsions:
REMARK  status: ('A' for Active; 'I' for Inactive)
REMARK    1  A    between atoms: N_8  and  C_7 
REMARK    2  A    between atoms: C_9  and  N_8 
ROOT
ATOM      1  N   UNL d   1      45.044 -13.465  44.810  0.00  0.00    -0.245 NA
ENDROOT
BRANCH   1   2
ATOM      2  C   UNL d   1      45.075 -13.058  44.101  0.00  0.00     0.093 A 
ATOM      3  C   UNL d   1      44.533 -13.111  43.486  0.00  0.00     0.118 A 
ATOM      4  S   UNL d   1      44.789 -12.602  42.884  0.00  0.00     0.213 S 
ATOM      5  C   UNL d   1      45.485 -12.239  43.127  0.00  0.00     0.100 A 
ATOM      6  O   UNL d   1      45.098 -12.080  42.327  0.00  0.00    -0.217 OA
ATOM      7  O   UNL d   1      44.096 -13.008  42.724  0.00  0.00    -0.217 OA
ATOM      8  C   UNL d   1      45.662 -12.521  43.881  0.00  0.00     0.032 A 
ENDBRANCH   1   2
BRANCH   1   9
ATOM      9  C   UNL d   1      45.366 -14.225  44.857  0.00  0.00     0.082 A 
ATOM     10  C   UNL d   1      44.867 -14.883  44.879  0.00  0.00     0.030 A 
ATOM     11  C   UNL d   1      45.181 -15.633  44.926  0.00  0.00     0.059 A 
ATOM     12 CL   UNL d   1      44.768 -16.337  44.952  0.00  0.00    -0.082 Cl
ATOM     13  C   UNL d   1      46.000 -15.737  44.951  0.00  0.00     0.011 A 
ATOM     14  C   UNL d   1      46.499 -15.080  44.929  0.00  0.00     0.002 A 
ATOM     15  C   UNL d   1      46.178 -14.318  44.882  0.00  0.00     0.019 A 
ENDBRANCH   1   9
TORSDOF 2
ENDMDL
