MODEL 1
REMARK VINA RESULT:      10.7      0.000      0.000
REMARK  8 active torsions:
REMARK  status: ('A' for Active; 'I' for Inactive)
REMARK    1  A    between atoms: C_8  and  C_5 
REMARK    2  A    between atoms: S_22  and  C_6 
REMARK    3  A    between atoms: C_9  and  C_7 
REMARK    4  A    between atoms: C_12  and  C_9 
REMARK    5  A    between atoms: C_25  and  S_22 
REMARK    6  A    between atoms: O_24  and  C_26 
REMARK    7  A    between atoms: C_27  and  O_24 
REMARK    8  A    between atoms: C_26  and  C_25 
ROOT
ATOM      1  C   UNL d   1     -41.561-122.135 -51.838  0.00  0.00     0.082 A 
ATOM      2  N   UNL d   1     -41.438-121.309 -51.949  0.00  0.00    -0.238 NA
ATOM      3  C   UNL d   1     -41.526-121.509 -53.387  0.00  0.00     0.092 A 
ATOM      4  C   UNL d   1     -41.662-122.623 -52.496  0.00  0.00     0.019 A 
ATOM      5  C   UNL d   1     -41.645-122.315 -53.263  0.00  0.00     0.019 A 
ATOM      6  C   UNL d   1     -41.421-121.000 -52.714  0.00  0.00     0.120 A 
ATOM      7  C   UNL d   1     -41.605-122.597 -51.156  0.00  0.00     0.018 A 
ATOM      8  C   UNL d   1     -41.511-121.202 -54.177  0.00  0.00     0.103 C 
ATOM      9  N   UNL d   1     -41.495-120.899 -54.959  0.00  0.00    -0.191 NA
ATOM     10  C   UNL d   1     -41.769-123.391 -52.215  0.00  0.00     0.002 A 
ATOM     11  C   UNL d   1     -41.735-123.381 -51.382  0.00  0.00     0.002 A 
ENDROOT
BRANCH   5  12
ATOM     12  C   UNL d   1     -41.750-122.824 -53.918  0.00  0.00     0.030 A 
ATOM     13  S   UNL d   1     -41.187-123.388 -54.075  0.00  0.00    -0.086 SA
ATOM     14  C   UNL d   1     -41.418-123.810 -54.739  0.00  0.00     0.035 A 
ATOM     15  C   UNL d   1     -42.133-123.491 -54.981  0.00  0.00     0.007 A 
ATOM     16  C   UNL d   1     -42.328-122.884 -54.468  0.00  0.00     0.007 A 
ENDBRANCH   5  12
BRANCH   6  17
ATOM     17  S   UNL d   1     -41.301-120.192 -52.823  0.00  0.00    -0.065 SA
BRANCH  17  18
ATOM     18  C   UNL d   1     -41.553-119.648 -52.246  0.00  0.00     0.064 C 
BRANCH  18  19
ATOM     19  C   UNL d   1     -41.169-118.898 -52.168  0.00  0.00     0.130 C 
BRANCH  19  20
ATOM     20  O   UNL d   1     -41.517-118.229 -52.514  0.00  0.00    -0.303 OA
BRANCH  20  21
ATOM     21  C   UNL d   1     -41.139-117.866 -53.178  0.00  0.00     0.123 C 
ATOM     22  C   UNL d   1     -41.405-117.150 -53.446  0.00  0.00     0.029 C 
ENDBRANCH  20  21
ENDBRANCH  19  20
ENDBRANCH  18  19
ENDBRANCH  17  18
ENDBRANCH   6  17
BRANCH   7  23
ATOM     23  C   UNL d   1     -41.532-122.336 -50.354  0.00  0.00     0.008 C 
BRANCH  23  24
ATOM     24  C   UNL d   1     -41.789-122.834 -49.736  0.00  0.00     0.029 A 
ATOM     25  S   UNL d   1     -41.692-123.634 -49.612  0.00  0.00    -0.086 SA
ATOM     26  C   UNL d   1     -42.072-123.815 -48.898  0.00  0.00     0.035 A 
ATOM     27  C   UNL d   1     -42.384-123.129 -48.611  0.00  0.00     0.007 A 
ATOM     28  C   UNL d   1     -42.221-122.522 -49.109  0.00  0.00     0.007 A 
ENDBRANCH  23  24
ENDBRANCH   7  23
TORSDOF 8
ENDMDL
MODEL 2
REMARK VINA RESULT:      11.8      1.450      3.257
REMARK  8 active torsions:
REMARK  status: ('A' for Active; 'I' for Inactive)
REMARK    1  A    between atoms: C_8  and  C_5 
REMARK    2  A    between atoms: S_22  and  C_6 
REMARK    3  A    between atoms: C_9  and  C_7 
REMARK    4  A    between atoms: C_12  and  C_9 
REMARK    5  A    between atoms: C_25  and  S_22 
REMARK    6  A    between atoms: O_24  and  C_26 
REMARK    7  A    between atoms: C_27  and  O_24 
REMARK    8  A    between atoms: C_26  and  C_25 
ROOT
ATOM      1  C   UNL d   1     -41.707-122.575 -51.134  0.00  0.00     0.082 A 
ATOM      2  N   UNL d   1     -41.692-123.043 -51.835  0.00  0.00    -0.238 NA
ATOM      3  C   UNL d   1     -41.441-121.840 -52.611  0.00  0.00     0.092 A 
ATOM      4  C   UNL d   1     -41.590-121.761 -51.187  0.00  0.00     0.019 A 
ATOM      5  C   UNL d   1     -41.458-121.394 -51.918  0.00  0.00     0.019 A 
ATOM      6  C   UNL d   1     -41.560-122.680 -52.563  0.00  0.00     0.120 A 
ATOM      7  C   UNL d   1     -41.823-122.775 -50.343  0.00  0.00     0.018 A 
ATOM      8  C   UNL d   1     -41.305-121.456 -53.354  0.00  0.00     0.103 C 
ATOM      9  N   UNL d   1     -41.170-121.075 -54.089  0.00  0.00    -0.191 NA
ATOM     10  C   UNL d   1     -41.635-121.458 -50.421  0.00  0.00     0.002 A 
ATOM     11  C   UNL d   1     -41.780-122.084 -49.892  0.00  0.00     0.002 A 
ENDROOT
BRANCH   5  12
ATOM     12  C   UNL d   1     -41.341-120.567 -51.953  0.00  0.00     0.030 A 
ATOM     13  S   UNL d   1     -41.230-120.154 -51.263  0.00  0.00    -0.086 SA
ATOM     14  C   UNL d   1     -41.129-119.361 -51.447  0.00  0.00     0.035 A 
ATOM     15  C   UNL d   1     -41.183-119.302 -52.262  0.00  0.00     0.007 A 
ATOM     16  C   UNL d   1     -41.313-120.052 -52.564  0.00  0.00     0.007 A 
ENDBRANCH   5  12
BRANCH   6  17
ATOM     17  S   UNL d   1     -41.545-123.137 -53.249  0.00  0.00    -0.065 SA
BRANCH  17  18
ATOM     18  C   UNL d   1     -42.182-123.641 -53.432  0.00  0.00     0.064 C 
BRANCH  18  19
ATOM     19  C   UNL d   1     -42.376-123.809 -54.239  0.00  0.00     0.130 C 
BRANCH  19  20
ATOM     20  O   UNL d   1     -42.598-123.185 -54.738  0.00  0.00    -0.303 OA
BRANCH  20  21
ATOM     21  C   UNL d   1     -42.978-123.363 -55.473  0.00  0.00     0.123 C 
ATOM     22  C   UNL d   1     -43.186-122.760 -55.971  0.00  0.00     0.029 C 
ENDBRANCH  20  21
ENDBRANCH  19  20
ENDBRANCH  18  19
ENDBRANCH  17  18
ENDBRANCH   6  17
BRANCH   7  23
ATOM     23  C   UNL d   1     -41.964-123.548 -50.024  0.00  0.00     0.008 C 
BRANCH  23  24
ATOM     24  C   UNL d   1     -42.129-123.631 -49.211  0.00  0.00     0.029 A 
ATOM     25  S   UNL d   1     -41.639-123.729 -48.567  0.00  0.00    -0.086 SA
ATOM     26  C   UNL d   1     -42.126-123.779 -47.898  0.00  0.00     0.035 A 
ATOM     27  C   UNL d   1     -42.889-123.711 -48.151  0.00  0.00     0.007 A 
ATOM     28  C   UNL d   1     -42.908-123.620 -48.947  0.00  0.00     0.007 A 
ENDBRANCH  23  24
ENDBRANCH   7  23
TORSDOF 8
ENDMDL
