MODEL 1
REMARK VINA RESULT:      32.6      0.000      0.000
REMARK  5 active torsions:
REMARK  status: ('A' for Active; 'I' for Inactive)
REMARK    1  A    between atoms: C_3  and  C_1 
REMARK       I    between atoms: N_4  and  C_1 
REMARK    2  A    between atoms: C_9  and  N_4 
REMARK    3  A    between atoms: C_5  and  O_6 
REMARK    4  A    between atoms: O_6  and  C_10 
REMARK    5  A    between atoms: C_10  and  C_9 
ROOT
ATOM      1  C   UNL d   1      60.078  49.504  51.112  0.00  0.00     0.279 C 
ATOM      2  O   UNL d   1      60.205  49.682  50.317  0.00  0.00    -0.265 OA
ATOM      3  N   UNL d   1      59.309  49.466  51.408  0.00  0.00    -0.204 NA
ENDROOT
BRANCH   3   4
ATOM      4  C   UNL d   1      58.666  49.606  50.909  0.00  0.00     0.129 C 
BRANCH   4   5
ATOM      5  C   UNL d   1      57.922  49.304  51.098  0.00  0.00     0.143 C 
BRANCH   5   6
ATOM      6  O   UNL d   1      57.243  49.643  50.774  0.00  0.00    -0.303 OA
BRANCH   6   7
ATOM      7  C   UNL d   1      56.838  49.267  50.146  0.00  0.00     0.100 A 
ATOM      8  C   UNL d   1      56.617  49.707  49.485  0.00  0.00     0.025 A 
ATOM      9  C   UNL d   1      56.220  49.350  48.865  0.00  0.00     0.002 A 
ATOM     10  C   UNL d   1      56.044  48.548  48.905  0.00  0.00     0.000 A 
ATOM     11  C   UNL d   1      56.265  48.108  49.567  0.00  0.00     0.002 A 
ATOM     12  C   UNL d   1      56.663  48.470  50.188  0.00  0.00     0.025 A 
ENDBRANCH   6   7
ENDBRANCH   5   6
ENDBRANCH   4   5
ENDBRANCH   3   4
BRANCH   1  13
ATOM     13  C   UNL d   1      60.716  49.364  51.610  0.00  0.00     0.058 A 
ATOM     14  C   UNL d   1      60.729  49.700  52.355  0.00  0.00     0.005 A 
ATOM     15  C   UNL d   1      61.370  49.561  52.857  0.00  0.00     0.000 A 
ATOM     16  C   UNL d   1      61.994  49.084  52.605  0.00  0.00     0.000 A 
ATOM     17  C   UNL d   1      61.977  48.746  51.852  0.00  0.00     0.000 A 
ATOM     18  C   UNL d   1      61.341  48.887  51.359  0.00  0.00     0.005 A 
ENDBRANCH   1  13
TORSDOF 5
ENDMDL
MODEL 2
REMARK VINA RESULT:      33.7      1.297      4.455
REMARK  5 active torsions:
REMARK  status: ('A' for Active; 'I' for Inactive)
REMARK    1  A    between atoms: C_3  and  C_1 
REMARK       I    between atoms: N_4  and  C_1 
REMARK    2  A    between atoms: C_9  and  N_4 
REMARK    3  A    between atoms: C_5  and  O_6 
REMARK    4  A    between atoms: O_6  and  C_10 
REMARK    5  A    between atoms: C_10  and  C_9 
ROOT
ATOM      1  C   UNL d   1      58.230  49.686  50.827  0.00  0.00     0.279 C 
ATOM      2  O   UNL d   1      58.272  49.673  51.651  0.00  0.00    -0.265 OA
ATOM      3  N   UNL d   1      58.923  49.704  50.379  0.00  0.00    -0.204 NA
ENDROOT
BRANCH   3   4
ATOM      4  C   UNL d   1      59.658  49.708  50.754  0.00  0.00     0.129 C 
BRANCH   4   5
ATOM      5  C   UNL d   1      60.344  49.557  50.321  0.00  0.00     0.143 C 
BRANCH   5   6
ATOM      6  O   UNL d   1      60.998  49.213  50.689  0.00  0.00    -0.303 OA
BRANCH   6   7
ATOM      7  C   UNL d   1      61.066  48.381  50.744  0.00  0.00     0.100 A 
ATOM      8  C   UNL d   1      61.458  47.965  50.150  0.00  0.00     0.025 A 
ATOM      9  C   UNL d   1      61.530  47.151  50.194  0.00  0.00     0.002 A 
ATOM     10  C   UNL d   1      61.208  46.750  50.836  0.00  0.00     0.000 A 
ATOM     11  C   UNL d   1      60.816  47.167  51.430  0.00  0.00     0.002 A 
ATOM     12  C   UNL d   1      60.745  47.984  51.383  0.00  0.00     0.025 A 
ENDBRANCH   6   7
ENDBRANCH   5   6
ENDBRANCH   4   5
ENDBRANCH   3   4
BRANCH   1  13
ATOM     13  C   UNL d   1      57.499  49.682  50.452  0.00  0.00     0.058 A 
ATOM     14  C   UNL d   1      57.463  49.708  49.636  0.00  0.00     0.005 A 
ATOM     15  C   UNL d   1      56.730  49.704  49.257  0.00  0.00     0.000 A 
ATOM     16  C   UNL d   1      56.036  49.674  49.703  0.00  0.00     0.000 A 
ATOM     17  C   UNL d   1      56.076  49.649  50.528  0.00  0.00     0.000 A 
ATOM     18  C   UNL d   1      56.805  49.653  50.898  0.00  0.00     0.005 A 
ENDBRANCH   1  13
TORSDOF 5
ENDMDL
MODEL 3
REMARK VINA RESULT:      34.2      0.857      4.705
REMARK  5 active torsions:
REMARK  status: ('A' for Active; 'I' for Inactive)
REMARK    1  A    between atoms: C_3  and  C_1 
REMARK       I    between atoms: N_4  and  C_1 
REMARK    2  A    between atoms: C_9  and  N_4 
REMARK    3  A    between atoms: C_5  and  O_6 
REMARK    4  A    between atoms: O_6  and  C_10 
REMARK    5  A    between atoms: C_10  and  C_9 
ROOT
ATOM      1  C   UNL d   1      58.225  49.648  50.856  0.00  0.00     0.279 C 
ATOM      2  O   UNL d   1      58.259  49.665  51.680  0.00  0.00    -0.265 OA
ATOM      3  N   UNL d   1      58.921  49.666  50.414  0.00  0.00    -0.204 NA
ENDROOT
BRANCH   3   4
ATOM      4  C   UNL d   1      59.652  49.701  50.795  0.00  0.00     0.129 C 
BRANCH   4   5
ATOM      5  C   UNL d   1      60.343  49.521  50.381  0.00  0.00     0.143 C 
BRANCH   5   6
ATOM      6  O   UNL d   1      60.999  49.220  50.782  0.00  0.00    -0.303 OA
BRANCH   6   7
ATOM      7  C   UNL d   1      61.105  49.373  51.598  0.00  0.00     0.100 A 
ATOM      8  C   UNL d   1      61.867  49.482  51.894  0.00  0.00     0.025 A 
ATOM      9  C   UNL d   1      61.983  49.633  52.690  0.00  0.00     0.002 A 
ATOM     10  C   UNL d   1      61.334  49.674  53.193  0.00  0.00     0.000 A 
ATOM     11  C   UNL d   1      60.572  49.564  52.897  0.00  0.00     0.002 A 
ATOM     12  C   UNL d   1      60.459  49.413  52.097  0.00  0.00     0.025 A 
ENDBRANCH   6   7
ENDBRANCH   5   6
ENDBRANCH   4   5
ENDBRANCH   3   4
BRANCH   1  13
ATOM     13  C   UNL d   1      57.497  49.613  50.474  0.00  0.00     0.058 A 
ATOM     14  C   UNL d   1      57.469  49.615  49.657  0.00  0.00     0.005 A 
ATOM     15  C   UNL d   1      56.740  49.580  49.273  0.00  0.00     0.000 A 
ATOM     16  C   UNL d   1      56.043  49.543  49.713  0.00  0.00     0.000 A 
ATOM     17  C   UNL d   1      56.075  49.542  50.538  0.00  0.00     0.000 A 
ATOM     18  C   UNL d   1      56.801  49.577  50.915  0.00  0.00     0.005 A 
ENDBRANCH   1  13
TORSDOF 5
ENDMDL
