MODEL 1
REMARK VINA RESULT:      24.7      0.000      0.000
REMARK  3 active torsions:
REMARK  status: ('A' for Active; 'I' for Inactive)
REMARK    1  A    between atoms: C_5  and  N_1 
REMARK    2  A    between atoms: C_8  and  C_2 
REMARK    3  A    between atoms: C_7  and  C_5 
ROOT
ATOM      1  N   UNL d   1      46.482 -18.561  43.598  0.00  0.00    -0.287 N 
ATOM      2  C   UNL d   1      46.264 -19.324  43.836  0.00  0.00     0.187 A 
ATOM      3  N   UNL d   1      46.117 -19.784  43.153  0.00  0.00    -0.224 NA
ATOM      4  C   UNL d   1      46.473 -18.537  42.764  0.00  0.00     0.083 A 
ATOM      5  C   UNL d   1      46.249 -19.290  42.496  0.00  0.00     0.099 A 
ATOM      6  C   UNL d   1      46.638 -17.935  42.210  0.00  0.00     0.019 A 
ATOM      7  C   UNL d   1      46.189 -19.445  41.675  0.00  0.00     0.021 A 
ATOM      8  C   UNL d   1      46.580 -18.086  41.401  0.00  0.00     0.002 A 
ATOM      9  C   UNL d   1      46.355 -18.839  41.134  0.00  0.00     0.002 A 
ENDROOT
BRANCH   1  10
ATOM     10  C   UNL d   1      46.644 -18.042  44.218  0.00  0.00     0.082 C 
BRANCH  10  11
ATOM     11  C   UNL d   1      46.131 -17.426  44.384  0.00  0.00     0.018 A 
ATOM     12  C   UNL d   1      45.413 -17.574  44.748  0.00  0.00     0.001 A 
ATOM     13  C   UNL d   1      44.898 -16.957  44.916  0.00  0.00     0.000 A 
ATOM     14  C   UNL d   1      45.213 -18.350  44.946  0.00  0.00     0.000 C 
ATOM     15  C   UNL d   1      45.102 -16.183  44.716  0.00  0.00     0.000 A 
ATOM     16  C   UNL d   1      45.825 -16.031  44.349  0.00  0.00     0.000 A 
ATOM     17  C   UNL d   1      46.338 -16.653  44.184  0.00  0.00     0.002 A 
ATOM     18  C   UNL d   1      46.033 -15.257  44.148  0.00  0.00     0.000 C 
ENDBRANCH  10  11
ENDBRANCH   1  10
BRANCH   2  19
ATOM     19  C   UNL d   1      46.100 -19.920  44.373  0.00  0.00     0.230 C 
ATOM     20  O   UNL d   1      45.385 -20.329  44.334  0.00  0.00    -0.283 OA
ATOM     21  C   UNL d   1      46.647 -20.113  44.955  0.00  0.00     0.049 C 
ENDBRANCH   2  19
TORSDOF 3
ENDMDL
MODEL 2
REMARK VINA RESULT:      26.2      0.779      2.982
REMARK  3 active torsions:
REMARK  status: ('A' for Active; 'I' for Inactive)
REMARK    1  A    between atoms: C_5  and  N_1 
REMARK    2  A    between atoms: C_8  and  C_2 
REMARK    3  A    between atoms: C_7  and  C_5 
ROOT
ATOM      1  N   UNL d   1      46.246 -18.285  43.678  0.00  0.00    -0.287 N 
ATOM      2  C   UNL d   1      46.025 -18.787  44.298  0.00  0.00     0.187 A 
ATOM      3  N   UNL d   1      45.629 -18.336  44.879  0.00  0.00    -0.224 NA
ATOM      4  C   UNL d   1      45.990 -17.513  43.866  0.00  0.00     0.083 A 
ATOM      5  C   UNL d   1      45.612 -17.550  44.604  0.00  0.00     0.099 A 
ATOM      6  C   UNL d   1      46.048 -16.781  43.469  0.00  0.00     0.019 A 
ATOM      7  C   UNL d   1      45.291 -16.857  44.949  0.00  0.00     0.021 A 
ATOM      8  C   UNL d   1      45.733 -16.098  43.807  0.00  0.00     0.002 A 
ATOM      9  C   UNL d   1      45.355 -16.136  44.545  0.00  0.00     0.002 A 
ENDROOT
BRANCH   1  10
ATOM     10  C   UNL d   1      46.645 -18.657  43.060  0.00  0.00     0.082 C 
BRANCH  10  11
ATOM     11  C   UNL d   1      46.247 -18.847  42.368  0.00  0.00     0.018 A 
ATOM     12  C   UNL d   1      46.213 -19.624  42.113  0.00  0.00     0.001 A 
ATOM     13  C   UNL d   1      45.815 -19.815  41.421  0.00  0.00     0.000 A 
ATOM     14  C   UNL d   1      46.582 -20.212  42.558  0.00  0.00     0.000 C 
ATOM     15  C   UNL d   1      45.447 -19.224  40.978  0.00  0.00     0.000 A 
ATOM     16  C   UNL d   1      45.481 -18.440  41.234  0.00  0.00     0.000 A 
ATOM     17  C   UNL d   1      45.881 -18.253  41.929  0.00  0.00     0.002 A 
ATOM     18  C   UNL d   1      45.114 -17.845  40.794  0.00  0.00     0.000 C 
ENDBRANCH  10  11
ENDBRANCH   1  10
BRANCH   2  19
ATOM     19  C   UNL d   1      45.964 -19.502  44.693  0.00  0.00     0.230 C 
ATOM     20  O   UNL d   1      45.223 -19.800  44.899  0.00  0.00    -0.283 OA
ATOM     21  C   UNL d   1      46.640 -19.926  44.887  0.00  0.00     0.049 C 
ENDBRANCH   2  19
TORSDOF 3
ENDMDL
MODEL 3
REMARK VINA RESULT:      27.3      6.299      7.515
REMARK  3 active torsions:
REMARK  status: ('A' for Active; 'I' for Inactive)
REMARK    1  A    between atoms: C_5  and  N_1 
REMARK    2  A    between atoms: C_8  and  C_2 
REMARK    3  A    between atoms: C_7  and  C_5 
ROOT
ATOM      1  N   UNL d   1      44.271 -15.770  36.939  0.00  0.00    -0.287 N 
ATOM      2  C   UNL d   1      44.257 -16.375  37.505  0.00  0.00     0.187 A 
ATOM      3  N   UNL d   1      43.466 -16.494  37.747  0.00  0.00    -0.224 NA
ATOM      4  C   UNL d   1      43.487 -15.506  36.822  0.00  0.00     0.083 A 
ATOM      5  C   UNL d   1      42.998 -15.954  37.321  0.00  0.00     0.099 A 
ATOM      6  C   UNL d   1      43.151 -14.921  36.332  0.00  0.00     0.019 A 
ATOM      7  C   UNL d   1      42.171 -15.819  37.332  0.00  0.00     0.021 A 
ATOM      8  C   UNL d   1      42.338 -14.786  36.342  0.00  0.00     0.002 A 
ATOM      9  C   UNL d   1      41.849 -15.235  36.841  0.00  0.00     0.002 A 
ENDROOT
BRANCH   1  10
ATOM     10  C   UNL d   1      45.021 -15.591  36.647  0.00  0.00     0.082 C 
BRANCH  10  11
ATOM     11  C   UNL d   1      45.434 -14.946  36.941  0.00  0.00     0.018 A 
ATOM     12  C   UNL d   1      46.232 -14.863  36.786  0.00  0.00     0.001 A 
ATOM     13  C   UNL d   1      46.647 -14.218  37.080  0.00  0.00     0.000 A 
ATOM     14  C   UNL d   1      46.618 -15.434  36.331  0.00  0.00     0.000 C 
ATOM     15  C   UNL d   1      46.258 -13.649  37.534  0.00  0.00     0.000 A 
ATOM     16  C   UNL d   1      45.453 -13.731  37.691  0.00  0.00     0.000 A 
ATOM     17  C   UNL d   1      45.042 -14.380  37.395  0.00  0.00     0.002 A 
ATOM     18  C   UNL d   1      45.060 -13.164  38.146  0.00  0.00     0.000 C 
ENDBRANCH  10  11
ENDBRANCH   1  10
BRANCH   2  19
ATOM     19  C   UNL d   1      44.580 -16.951  37.989  0.00  0.00     0.230 C 
ATOM     20  O   UNL d   1      44.552 -16.867  38.809  0.00  0.00    -0.283 OA
ATOM     21  C   UNL d   1      44.933 -17.616  37.661  0.00  0.00     0.049 C 
ENDBRANCH   2  19
TORSDOF 3
ENDMDL
