MODEL 1
REMARK VINA RESULT:      26.7      0.000      0.000
REMARK  4 active torsions:
REMARK  status: ('A' for Active; 'I' for Inactive)
REMARK    1  A    between atoms: C_2  and  S_1 
REMARK    2  A    between atoms: N_9  and  S_1 
REMARK    3  A    between atoms: C_18  and  N_9 
REMARK    4  A    between atoms: C_19  and  N_9 
ROOT
ATOM      1  C   UNL d   1      45.177 -15.650  44.402  0.00  0.00     0.104 A 
ATOM      2  C   UNL d   1      45.015 -12.899  44.422  0.00  0.00     0.225 A 
ATOM      3  S   UNL d   1      44.195 -13.465  44.860  0.00  0.00    -0.046 SA
ATOM      4  C   UNL d   1      45.172 -14.216  44.370  0.00  0.00     0.010 A 
ATOM      5  C   UNL d   1      44.421 -14.230  44.761  0.00  0.00     0.033 A 
ATOM      6  C   UNL d   1      45.554 -14.923  44.189  0.00  0.00     0.013 A 
ATOM      7  C   UNL d   1      45.519 -13.503  44.174  0.00  0.00     0.046 A 
ATOM      8  C   UNL d   1      44.456 -15.664  44.776  0.00  0.00     0.013 A 
ATOM      9  C   UNL d   1      44.082 -14.951  44.954  0.00  0.00     0.007 A 
ATOM     10  O   UNL d   1      45.271 -12.118  44.270  0.00  0.00    -0.279 OA
ATOM     11  C   UNL d   1      46.305 -14.908  43.799  0.00  0.00     0.001 A 
ATOM     12  C   UNL d   1      46.270 -13.489  43.784  0.00  0.00     0.004 A 
ATOM     13  C   UNL d   1      46.645 -14.187  43.606  0.00  0.00     0.000 A 
ENDROOT
BRANCH   1  14
ATOM     14  S   UNL d   1      45.553 -16.384  44.224  0.00  0.00     0.271 S 
ATOM     15  O   UNL d   1      45.113 -16.402  43.523  0.00  0.00    -0.200 OA
ATOM     16  O   UNL d   1      45.996 -16.343  44.954  0.00  0.00    -0.200 OA
BRANCH  14  17
ATOM     17  N   UNL d   1      45.937 -17.122  44.054  0.00  0.00    -0.229 N 
BRANCH  17  18
ATOM     18  C   UNL d   1      45.794 -17.433  43.297  0.00  0.00     0.092 C 
ATOM     19  C   UNL d   1      46.295 -17.948  42.918  0.00  0.00     0.021 C 
ENDBRANCH  17  18
BRANCH  17  20
ATOM     20  C   UNL d   1      46.412 -17.500  44.596  0.00  0.00     0.092 C 
ATOM     21  C   UNL d   1      46.330 -18.316  44.719  0.00  0.00     0.021 C 
ENDBRANCH  17  20
ENDBRANCH  14  17
ENDBRANCH   1  14
TORSDOF 4
ENDMDL
