MODEL 1
REMARK VINA RESULT:      82.0      0.000      0.000
REMARK  5 active torsions:
REMARK  status: ('A' for Active; 'I' for Inactive)
REMARK    1  A    between atoms: N_7  and  C_1 
REMARK    2  A    between atoms: S_6  and  C_2 
REMARK    3  A    between atoms: C_3  and  S_6 
REMARK    4  A    between atoms: C_13  and  N_5 
REMARK    5  A    between atoms: C_18  and  C_13 
ROOT
ATOM      1  C   UNL d   1      59.885  49.675  51.898  0.00  0.00     0.232 A 
ATOM      2  C   UNL d   1      59.722  49.682  51.095  0.00  0.00     0.139 A 
ATOM      3  N   UNL d   1      59.169  49.684  52.314  0.00  0.00    -0.204 NA
ATOM      4  N   UNL d   1      58.903  49.695  51.003  0.00  0.00    -0.282 N 
ATOM      5  C   UNL d   1      58.557  49.696  51.752  0.00  0.00     0.150 A 
ATOM      6  C   UNL d   1      57.754  49.707  51.919  0.00  0.00     0.041 C 
ENDROOT
BRANCH   2   7
ATOM      7  S   UNL d   1      60.276  49.677  50.486  0.00  0.00    -0.029 SA
BRANCH   7   8
ATOM      8  C   UNL d   1      60.712  48.995  50.329  0.00  0.00     0.181 A 
ATOM      9  N   UNL d   1      61.178  48.579  50.874  0.00  0.00    -0.221 NA
ATOM     10  C   UNL d   1      61.513  47.939  50.488  0.00  0.00     0.100 A 
ATOM     11  C   UNL d   1      62.020  47.335  50.735  0.00  0.00     0.021 A 
ATOM     12  C   UNL d   1      61.260  47.948  49.702  0.00  0.00     0.084 A 
ATOM     13  C   UNL d   1      62.266  46.761  50.217  0.00  0.00     0.002 A 
ATOM     14  C   UNL d   1      62.009  46.777  49.432  0.00  0.00     0.002 A 
ATOM     15  C   UNL d   1      61.506  47.367  49.167  0.00  0.00     0.019 A 
ATOM     16  N   UNL d   1      60.763  48.605  49.607  0.00  0.00    -0.282 N 
ATOM     17  C   UNL d   1      60.386  48.827  48.907  0.00  0.00     0.101 C 
ENDBRANCH   7   8
ENDBRANCH   2   7
BRANCH   1  18
ATOM     18  N   UNL d   1      60.173  49.667  52.676  0.00  0.00    -0.093 N 
ATOM     19  O   UNL d   1      59.646  49.619  53.310  0.00  0.00    -0.530 OA
ATOM     20  O   UNL d   1      60.983  49.706  52.822  0.00  0.00    -0.530 OA
ENDBRANCH   1  18
BRANCH   4  21
ATOM     21  C   UNL d   1      58.496  49.705  50.281  0.00  0.00     0.082 C 
BRANCH  21  22
ATOM     22  C   UNL d   1      57.781  49.301  50.215  0.00  0.00     0.018 A 
ATOM     23  C   UNL d   1      57.080  49.708  50.039  0.00  0.00     0.002 A 
ATOM     24  C   UNL d   1      56.371  49.305  49.974  0.00  0.00     0.000 A 
ATOM     25  C   UNL d   1      56.357  48.483  50.087  0.00  0.00     0.000 A 
ATOM     26  C   UNL d   1      57.047  48.077  50.261  0.00  0.00     0.000 A 
ATOM     27  C   UNL d   1      57.762  48.485  50.326  0.00  0.00     0.002 A 
ENDBRANCH  21  22
ENDBRANCH   4  21
TORSDOF 5
ENDMDL
