MODEL 1
REMARK VINA RESULT:      -0.9      0.000      0.000
REMARK  6 active torsions:
REMARK  status: ('A' for Active; 'I' for Inactive)
REMARK    1  A    between atoms: N_8  and  S_1 
REMARK    2  A    between atoms: C_12  and  S_1 
REMARK    3  A    between atoms: N_5  and  C_2 
REMARK    4  A    between atoms: C_4  and  O_9 
REMARK    5  A    between atoms: O_9  and  C_10 
REMARK    6  A    between atoms: C_10  and  C_16 
ROOT
ATOM      1  C   UNL d   1     -41.650-122.139 -53.074  0.00  0.00     0.104 A 
ATOM      2  C   UNL d   1     -41.749-122.915 -51.633  0.00  0.00     0.064 A 
ATOM      3  C   UNL d   1     -41.139-122.752 -52.901  0.00  0.00     0.013 A 
ATOM      4  C   UNL d   1     -42.217-121.912 -52.519  0.00  0.00     0.013 A 
ATOM      5  C   UNL d   1     -41.186-123.147 -52.171  0.00  0.00     0.006 A 
ATOM      6  C   UNL d   1     -42.268-122.300 -51.796  0.00  0.00     0.006 A 
ENDROOT
BRANCH   2   7
ATOM      7  C   UNL d   1     -41.804-123.305 -50.901  0.00  0.00     0.300 C 
ATOM      8  O   UNL d   1     -41.150-123.688 -50.596  0.00  0.00    -0.259 OA
BRANCH   7   9
ATOM      9  O   UNL d   1     -42.520-123.300 -50.488  0.00  0.00    -0.271 OA
BRANCH   9  10
ATOM     10  C   UNL d   1     -42.534-123.399 -49.670  0.00  0.00     0.132 A 
ATOM     11  C   UNL d   1     -43.246-123.343 -49.254  0.00  0.00     0.207 A 
ATOM     12  C   UNL d   1     -43.260-123.442 -48.436  0.00  0.00     0.303 A 
ATOM     13  O   UNL d   1     -43.975-123.385 -48.024  0.00  0.00    -0.263 OA
ATOM     14  N   UNL d   1     -42.561-123.598 -48.031  0.00  0.00    -0.206 NA
ATOM     15  C   UNL d   1     -41.854-123.654 -48.438  0.00  0.00     0.087 A 
ATOM     16  C   UNL d   1     -41.841-123.555 -49.257  0.00  0.00     0.046 A 
ATOM     17  C   UNL d   1     -41.144-123.812 -48.029  0.00  0.00     0.021 C 
BRANCH  11  18
ATOM     18  N   UNL d   1     -43.948-123.186 -49.667  0.00  0.00    -0.107 N 
ATOM     19  O   UNL d   1     -44.454-123.810 -49.860  0.00  0.00    -0.531 OA
ATOM     20  O   UNL d   1     -44.139-122.413 -49.883  0.00  0.00    -0.531 OA
ENDBRANCH  11  18
ENDBRANCH   9  10
ENDBRANCH   7   9
ENDBRANCH   2   7
BRANCH   1  21
ATOM     21  S   UNL d   1     -41.610-121.745 -53.788  0.00  0.00     0.271 S 
ATOM     22  O   UNL d   1     -41.471-121.228 -54.398  0.00  0.00    -0.200 OA
ATOM     23  O   UNL d   1     -41.203-121.271 -53.267  0.00  0.00    -0.200 OA
BRANCH  21  24
ATOM     24  N   UNL d   1     -41.970-122.080 -54.441  0.00  0.00    -0.229 N 
ATOM     25  C   UNL d   1     -41.579-122.656 -54.883  0.00  0.00     0.092 A 
ATOM     26  C   UNL d   1     -41.953-122.980 -55.531  0.00  0.00     0.020 A 
ATOM     27  C   UNL d   1     -42.716-122.742 -55.752  0.00  0.00     0.003 A 
ATOM     28  C   UNL d   1     -43.096-122.172 -55.309  0.00  0.00     0.020 A 
ATOM     29  C   UNL d   1     -42.726-121.836 -54.649  0.00  0.00     0.092 A 
ENDBRANCH  21  24
ENDBRANCH   1  21
TORSDOF 6
ENDMDL
MODEL 2
REMARK VINA RESULT:       2.0      1.159      1.715
REMARK  6 active torsions:
REMARK  status: ('A' for Active; 'I' for Inactive)
REMARK    1  A    between atoms: N_8  and  S_1 
REMARK    2  A    between atoms: C_12  and  S_1 
REMARK    3  A    between atoms: N_5  and  C_2 
REMARK    4  A    between atoms: C_4  and  O_9 
REMARK    5  A    between atoms: O_9  and  C_10 
REMARK    6  A    between atoms: C_10  and  C_16 
ROOT
ATOM      1  C   UNL d   1     -41.635-121.807 -52.313  0.00  0.00     0.104 A 
ATOM      2  C   UNL d   1     -41.511-122.624 -50.897  0.00  0.00     0.064 A 
ATOM      3  C   UNL d   1     -41.288-121.453 -51.664  0.00  0.00     0.013 A 
ATOM      4  C   UNL d   1     -41.923-122.577 -52.253  0.00  0.00     0.013 A 
ATOM      5  C   UNL d   1     -41.223-121.865 -50.944  0.00  0.00     0.006 A 
ATOM      6  C   UNL d   1     -41.862-122.989 -51.543  0.00  0.00     0.006 A 
ENDROOT
BRANCH   2   7
ATOM      7  C   UNL d   1     -41.450-123.043 -50.182  0.00  0.00     0.300 C 
ATOM      8  O   UNL d   1     -41.144-123.800 -50.180  0.00  0.00    -0.259 OA
BRANCH   7   9
ATOM      9  O   UNL d   1     -41.701-122.688 -49.478  0.00  0.00    -0.271 OA
BRANCH   9  10
ATOM     10  C   UNL d   1     -42.312-123.020 -49.035  0.00  0.00     0.132 A 
ATOM     11  C   UNL d   1     -42.228-123.123 -48.220  0.00  0.00     0.207 A 
ATOM     12  C   UNL d   1     -42.840-123.455 -47.776  0.00  0.00     0.303 A 
ATOM     13  O   UNL d   1     -42.750-123.555 -46.960  0.00  0.00    -0.263 OA
ATOM     14  N   UNL d   1     -43.536-123.685 -48.148  0.00  0.00    -0.206 NA
ATOM     15  C   UNL d   1     -43.623-123.585 -48.955  0.00  0.00     0.087 A 
ATOM     16  C   UNL d   1     -43.012-123.253 -49.398  0.00  0.00     0.046 A 
ATOM     17  C   UNL d   1     -44.329-123.817 -49.334  0.00  0.00     0.021 C 
BRANCH  11  18
ATOM     18  N   UNL d   1     -41.524-122.889 -47.849  0.00  0.00    -0.107 N 
ATOM     19  O   UNL d   1     -41.208-122.143 -48.009  0.00  0.00    -0.531 OA
ATOM     20  O   UNL d   1     -41.142-123.399 -47.325  0.00  0.00    -0.531 OA
ENDBRANCH  11  18
ENDBRANCH   9  10
ENDBRANCH   7   9
ENDBRANCH   2   7
BRANCH   1  21
ATOM     21  S   UNL d   1     -41.702-121.409 -53.023  0.00  0.00     0.271 S 
ATOM     22  O   UNL d   1     -41.747-120.861 -53.620  0.00  0.00    -0.200 OA
ATOM     23  O   UNL d   1     -41.602-120.824 -52.467  0.00  0.00    -0.200 OA
BRANCH  21  24
ATOM     24  N   UNL d   1     -41.811-121.843 -53.707  0.00  0.00    -0.229 N 
ATOM     25  C   UNL d   1     -41.223-122.358 -53.971  0.00  0.00     0.092 A 
ATOM     26  C   UNL d   1     -41.348-122.784 -54.655  0.00  0.00     0.020 A 
ATOM     27  C   UNL d   1     -42.052-122.710 -55.087  0.00  0.00     0.003 A 
ATOM     28  C   UNL d   1     -42.628-122.199 -54.819  0.00  0.00     0.020 A 
ATOM     29  C   UNL d   1     -42.513-121.761 -54.126  0.00  0.00     0.092 A 
ENDBRANCH  21  24
ENDBRANCH   1  21
TORSDOF 6
ENDMDL
