MODEL 1
REMARK VINA RESULT:      87.0      0.000      0.000
REMARK  11 active torsions:
REMARK  status: ('A' for Active; 'I' for Inactive)
REMARK    1  A    between atoms: C_14  and  C_3 
REMARK    2  A    between atoms: N_15  and  C_6 
REMARK    3  A    between atoms: N_12  and  C_19 
REMARK    4  A    between atoms: N_13  and  C_20 
REMARK    5  A    between atoms: N_16  and  C_14 
REMARK    6  A    between atoms: C_28  and  N_15 
REMARK    7  A    between atoms: C_23  and  N_16 
REMARK    8  A    between atoms: C_19  and  C_21 
REMARK    9  A    between atoms: C_20  and  C_22 
REMARK   10  A    between atoms: C_21  and  C_23 
REMARK   11  A    between atoms: C_22  and  C_28 
ROOT
ATOM      1  N   UNL d   1      61.255  48.766  51.577  0.00  0.00    -0.258 N 
ATOM      2  C   UNL d   1      61.311  48.293  50.892  0.00  0.00     0.270 A 
ATOM      3  C   UNL d   1      60.715  48.295  50.339  0.00  0.00     0.111 A 
ATOM      4  N   UNL d   1      59.987  49.230  51.114  0.00  0.00    -0.209 NA
ATOM      5  C   UNL d   1      60.588  49.238  51.689  0.00  0.00     0.152 A 
ATOM      6  C   UNL d   1      60.048  48.768  50.451  0.00  0.00     0.170 A 
ATOM      7  C   UNL d   1      61.849  48.761  52.124  0.00  0.00     0.084 A 
ATOM      8  C   UNL d   1      60.524  49.699  52.346  0.00  0.00     0.038 A 
ATOM      9  C   UNL d   1      61.791  49.233  52.804  0.00  0.00     0.018 A 
ATOM     10  C   UNL d   1      61.124  49.705  52.916  0.00  0.00     0.005 A 
ATOM     11  O   UNL d   1      61.988  47.814  50.779  0.00  0.00    -0.266 OA
ATOM     12  C   UNL d   1      62.392  49.234  53.368  0.00  0.00     0.002 C 
ENDROOT
BRANCH   3  13
ATOM     13  C   UNL d   1      60.776  47.826  49.665  0.00  0.00     0.107 C 
BRANCH  13  14
ATOM     14  N   UNL d   1      61.379  47.248  49.614  0.00  0.00    -0.242 NA
BRANCH  14  15
ATOM     15  C   UNL d   1      61.232  46.536  49.225  0.00  0.00     0.101 C 
BRANCH  15  16
ATOM     16  C   UNL d   1      61.813  45.959  49.200  0.00  0.00     0.040 C 
BRANCH  16  17
ATOM     17  C   UNL d   1      61.605  45.142  49.227  0.00  0.00     0.082 C 
BRANCH  17  18
ATOM     18  N   UNL d   1      61.396  44.790  49.936  0.00  0.00    -0.299 N 
ATOM     19  C   UNL d   1      61.971  44.522  50.446  0.00  0.00     0.107 A 
ATOM     20  C   UNL d   1      61.758  44.163  51.171  0.00  0.00     0.142 A 
ATOM     21  O   UNL d   1      60.974  44.079  51.371  0.00  0.00    -0.300 OA
ATOM     22  C   UNL d   1      60.379  44.355  50.847  0.00  0.00     0.142 A 
ATOM     23  C   UNL d   1      60.589  44.709  50.132  0.00  0.00     0.107 A 
ENDBRANCH  17  18
ENDBRANCH  16  17
ENDBRANCH  15  16
ENDBRANCH  14  15
ENDBRANCH  13  14
ENDBRANCH   3  13
BRANCH   6  24
ATOM     24  N   UNL d   1      59.451  48.764  49.887  0.00  0.00    -0.225 NA
BRANCH  24  25
ATOM     25  C   UNL d   1      58.860  49.364  49.905  0.00  0.00     0.102 C 
BRANCH  25  26
ATOM     26  C   UNL d   1      58.610  49.706  49.201  0.00  0.00     0.040 C 
BRANCH  26  27
ATOM     27  C   UNL d   1      57.813  49.602  48.949  0.00  0.00     0.082 C 
BRANCH  27  28
ATOM     28  N   UNL d   1      57.241  49.398  49.513  0.00  0.00    -0.299 N 
ATOM     29  C   UNL d   1      56.645  48.860  49.299  0.00  0.00     0.107 A 
ATOM     30  C   UNL d   1      56.065  48.638  49.835  0.00  0.00     0.142 A 
ATOM     31  O   UNL d   1      56.086  48.964  50.598  0.00  0.00    -0.300 OA
ATOM     32  C   UNL d   1      56.678  49.499  50.810  0.00  0.00     0.142 A 
ATOM     33  C   UNL d   1      57.249  49.707  50.259  0.00  0.00     0.107 A 
ENDBRANCH  27  28
ENDBRANCH  26  27
ENDBRANCH  25  26
ENDBRANCH  24  25
ENDBRANCH   6  24
TORSDOF 11
ENDMDL
