MODEL 1
REMARK VINA RESULT:      61.7      0.000      0.000
REMARK  3 active torsions:
REMARK  status: ('A' for Active; 'I' for Inactive)
REMARK    1  A    between atoms: C_2  and  C_1 
REMARK       I    between atoms: N_3  and  C_2 
REMARK    2  A    between atoms: C_21  and  N_4 
REMARK    3  A    between atoms: C_20  and  C_21 
ROOT
ATOM      1  C   UNL d   1     -56.209 -99.428 -44.737  0.00  0.00     0.255 C 
ATOM      2  N   UNL d   1     -55.868-100.092 -44.341  0.00  0.00    -0.271 N 
ATOM      3  N   UNL d   1     -55.182-101.388 -43.575  0.00  0.00    -0.300 N 
ATOM      4  O   UNL d   1     -55.768 -98.991 -45.185  0.00  0.00    -0.270 OA
ATOM      5  C   UNL d   1     -55.071-100.269 -44.436  0.00  0.00     0.102 A 
ATOM      6  C   UNL d   1     -56.332-100.569 -43.856  0.00  0.00     0.102 A 
ATOM      7  C   UNL d   1     -55.995-101.226 -43.465  0.00  0.00     0.100 A 
ATOM      8  C   UNL d   1     -54.716-100.905 -44.064  0.00  0.00     0.100 A 
ENDROOT
BRANCH   1   9
ATOM      9  C   UNL d   1     -56.990 -99.262 -44.638  0.00  0.00     0.137 A 
ATOM     10  C   UNL d   1     -57.015 -99.102 -43.838  0.00  0.00     0.033 A 
ATOM     11  C   UNL d   1     -57.684 -98.893 -43.406  0.00  0.00     0.046 A 
ATOM     12  C   UNL d   1     -58.463 -98.757 -43.462  0.00  0.00    -0.015 A 
ATOM     13  C   UNL d   1     -58.368 -98.830 -43.744  0.00  0.00    -0.022 A 
ATOM     14  C   UNL d   1     -58.668 -98.857 -44.176  0.00  0.00     0.027 A 
ATOM     15  C   UNL d   1     -57.967 -99.055 -44.520  0.00  0.00    -0.117 A 
ATOM     16  C   UNL d   1     -59.348 -98.820 -44.643  0.00  0.00     0.006 A 
ATOM     17  C   UNL d   1     -58.346 -99.027 -44.744  0.00  0.00    -0.006 A 
ATOM     18  C   UNL d   1     -57.661 -99.224 -45.095  0.00  0.00    -0.007 A 
ENDBRANCH   1   9
BRANCH   3  19
ATOM     19  C   UNL d   1     -54.801-101.912 -43.294  0.00  0.00     0.080 C 
BRANCH  19  20
ATOM     20  C   UNL d   1     -54.778-102.007 -42.481  0.00  0.00     0.020 A 
ATOM     21  C   UNL d   1     -54.789-101.352 -41.974  0.00  0.00     0.028 A 
ATOM     22  C   UNL d   1     -54.766-101.444 -41.149  0.00  0.00     0.119 A 
ATOM     23  O   UNL d   1     -54.772-100.889 -40.561  0.00  0.00    -0.300 OA
ATOM     24  C   UNL d   1     -54.730-102.203 -40.811  0.00  0.00     0.119 A 
ATOM     25  C   UNL d   1     -54.739-101.284 -39.807  0.00  0.00     0.304 A 
ATOM     26  O   UNL d   1     -54.713-102.095 -39.991  0.00  0.00    -0.300 OA
ATOM     27  C   UNL d   1     -54.717-102.871 -41.320  0.00  0.00     0.026 A 
ATOM     28  C   UNL d   1     -54.741-102.773 -42.141  0.00  0.00     0.004 A 
ENDBRANCH  19  20
ENDBRANCH   3  19
TORSDOF 3
ENDMDL
