MODEL 1
REMARK VINA RESULT:      71.1      0.000      0.000
REMARK  6 active torsions:
REMARK  status: ('A' for Active; 'I' for Inactive)
REMARK    1  A    between atoms: C_10  and  N_2 
REMARK    2  A    between atoms: C_11  and  N_5 
REMARK    3  A    between atoms: C_21  and  C_10 
REMARK    4  A    between atoms: C_12  and  C_11 
REMARK       I    between atoms: N_16  and  C_12 
REMARK    5  A    between atoms: C_15  and  C_17 
REMARK    6  A    between atoms: C_17  and  N_16 
ROOT
ATOM      1  C   UNL d   1      13.676  12.460  -2.674  0.00  0.00     0.102 A 
ATOM      2  N   UNL d   1      13.972  13.219  -1.511  0.00  0.00    -0.225 N 
ATOM      3  C   UNL d   1      13.873  13.919  -1.937  0.00  0.00     0.342 A 
ATOM      4  C   UNL d   1      13.576  13.167  -3.104  0.00  0.00     0.080 A 
ATOM      5  N   UNL d   1      13.675  13.889  -2.736  0.00  0.00    -0.253 N 
ATOM      6  C   UNL d   1      13.874  12.483  -1.880  0.00  0.00     0.276 A 
ATOM      7  S   UNL d   1      13.540  11.828  -3.200  0.00  0.00    -0.081 SA
ATOM      8  C   UNL d   1      13.381  12.964  -3.885  0.00  0.00     0.023 A 
ATOM      9  C   UNL d   1      13.359  12.136  -3.943  0.00  0.00     0.031 A 
ATOM     10  O   UNL d   1      13.972  14.644  -1.565  0.00  0.00    -0.245 OA
ATOM     11  O   UNL d   1      13.974  11.795  -1.452  0.00  0.00    -0.266 OA
ATOM     12  C   UNL d   1      13.221  13.428  -4.544  0.00  0.00     0.002 A 
ATOM     13  C   UNL d   1      13.178  11.780  -4.657  0.00  0.00     0.006 A 
ATOM     14  C   UNL d   1      13.039  13.071  -5.266  0.00  0.00     0.000 A 
ATOM     15  C   UNL d   1      13.017  12.244  -5.324  0.00  0.00     0.001 A 
ENDROOT
BRANCH   5  16
ATOM     16  C   UNL d   1      13.575  14.588  -3.161  0.00  0.00     0.147 C 
BRANCH  16  17
ATOM     17  C   UNL d   1      14.236  15.050  -3.358  0.00  0.00     0.297 C 
ATOM     18  N   UNL d   1      14.217  15.518  -4.029  0.00  0.00    -0.205 NA
ATOM     19  O   UNL d   1      14.903  15.037  -2.880  0.00  0.00    -0.264 OA
BRANCH  18  20
ATOM     20  C   UNL d   1      14.880  15.980  -4.223  0.00  0.00     0.103 C 
BRANCH  20  21
ATOM     21  C   UNL d   1      14.786  16.638  -4.727  0.00  0.00     0.030 A 
ATOM     22  C   UNL d   1      15.070  17.380  -4.502  0.00  0.00     0.059 A 
ATOM     23 CL   UNL d   1      15.451  17.474  -3.770  0.00  0.00    -0.082 Cl
ATOM     24  C   UNL d   1      14.971  18.023  -5.009  0.00  0.00     0.011 A 
ATOM     25  C   UNL d   1      14.591  17.928  -5.736  0.00  0.00     0.001 A 
ATOM     26  C   UNL d   1      14.311  17.183  -5.954  0.00  0.00     0.000 A 
ATOM     27  C   UNL d   1      14.404  16.535  -5.456  0.00  0.00     0.002 A 
ENDBRANCH  20  21
ENDBRANCH  18  20
ENDBRANCH  16  17
ENDBRANCH   5  16
BRANCH   2  28
ATOM     28  C   UNL d   1      14.172  13.250  -0.707  0.00  0.00     0.087 C 
BRANCH  28  29
ATOM     29  C   UNL d   1      14.953  13.397  -0.483  0.00  0.00     0.018 A 
ATOM     30  C   UNL d   1      15.496  12.779  -0.510  0.00  0.00     0.002 A 
ATOM     31  C   UNL d   1      16.285  12.926  -0.284  0.00  0.00     0.000 A 
ATOM     32  C   UNL d   1      16.510  13.687  -0.038  0.00  0.00     0.000 A 
ATOM     33  C   UNL d   1      15.953  14.286  -0.020  0.00  0.00     0.000 A 
ATOM     34  C   UNL d   1      15.173  14.144  -0.242  0.00  0.00     0.002 A 
ENDBRANCH  28  29
ENDBRANCH   2  28
TORSDOF 6
ENDMDL
