MODEL 1
REMARK VINA RESULT:      -2.4      0.000      0.000
REMARK  4 active torsions:
REMARK  status: ('A' for Active; 'I' for Inactive)
REMARK    1  A    between atoms: N_2  and  S_1 
REMARK    2  A    between atoms: C_4  and  S_1 
REMARK    3  A    between atoms: C_3  and  N_2 
REMARK    4  A    between atoms: N_5  and  C_6 
REMARK       I    between atoms: C_9  and  N_5 
ROOT
ATOM      1  N   UNL d   1      31.031  17.388 -24.629  0.00  0.00    -0.157 NA
ENDROOT
BRANCH   1   2
ATOM      2  S   UNL d   1      30.297  16.987 -24.470  0.00  0.00     0.285 S 
ATOM      3  O   UNL d   1      30.513  16.377 -25.005  0.00  0.00    -0.198 OA
ATOM      4  O   UNL d   1      30.080  17.597 -23.935  0.00  0.00    -0.198 OA
BRANCH   2   5
ATOM      5  C   UNL d   1      29.574  16.598 -24.310  0.00  0.00     0.105 A 
ATOM      6  C   UNL d   1      29.096  16.854 -23.684  0.00  0.00     0.013 A 
ATOM      7  C   UNL d   1      28.391  16.476 -23.527  0.00  0.00     0.001 A 
ATOM      8  C   UNL d   1      28.152  15.838 -23.990  0.00  0.00     0.000 A 
ATOM      9  C   UNL d   1      28.630  15.582 -24.616  0.00  0.00     0.001 A 
ATOM     10  C   UNL d   1      27.424  15.453 -23.822  0.00  0.00     0.000 C 
ATOM     11  C   UNL d   1      29.341  15.967 -24.771  0.00  0.00     0.013 A 
ENDBRANCH   2   5
ENDBRANCH   1   2
BRANCH   1  12
ATOM     12  C   UNL d   1      31.729  17.142 -24.241  0.00  0.00     0.112 A 
ATOM     13  C   UNL d   1      32.429  17.570 -24.340  0.00  0.00     0.103 A 
ATOM     14  C   UNL d   1      33.117  17.326 -23.956  0.00  0.00     0.021 A 
ATOM     15  C   UNL d   1      33.105  16.656 -23.475  0.00  0.00     0.002 A 
ATOM     16  C   UNL d   1      32.396  16.227 -23.378  0.00  0.00     0.002 A 
ATOM     17  C   UNL d   1      31.717  16.462 -23.753  0.00  0.00     0.021 A 
BRANCH  13  18
ATOM     18  N   UNL d   1      32.450  18.241 -24.818  0.00  0.00    -0.206 NA
ATOM     19  C   UNL d   1      32.862  18.908 -24.559  0.00  0.00     0.280 C 
ATOM     20  O   UNL d   1      33.241  18.895 -23.836  0.00  0.00    -0.265 OA
ATOM     21  C   UNL d   1      32.889  19.583 -25.030  0.00  0.00     0.068 C 
ENDBRANCH  13  18
ENDBRANCH   1  12
TORSDOF 4
ENDMDL
MODEL 2
REMARK VINA RESULT:      -2.1      1.695      2.630
REMARK  4 active torsions:
REMARK  status: ('A' for Active; 'I' for Inactive)
REMARK    1  A    between atoms: N_2  and  S_1 
REMARK    2  A    between atoms: C_4  and  S_1 
REMARK    3  A    between atoms: C_3  and  N_2 
REMARK    4  A    between atoms: N_5  and  C_6 
REMARK       I    between atoms: C_9  and  N_5 
ROOT
ATOM      1  N   UNL d   1      32.812  18.715 -24.219  0.00  0.00    -0.157 NA
ENDROOT
BRANCH   1   2
ATOM      2  S   UNL d   1      32.268  18.059 -24.209  0.00  0.00     0.285 S 
ATOM      3  O   UNL d   1      32.903  17.534 -24.053  0.00  0.00    -0.198 OA
ATOM      4  O   UNL d   1      31.632  18.586 -24.366  0.00  0.00    -0.198 OA
BRANCH   2   5
ATOM      5  C   UNL d   1      31.729  17.420 -24.202  0.00  0.00     0.105 A 
ATOM      6  C   UNL d   1      31.912  16.729 -23.784  0.00  0.00     0.013 A 
ATOM      7  C   UNL d   1      31.388  16.105 -23.776  0.00  0.00     0.001 A 
ATOM      8  C   UNL d   1      30.674  16.160 -24.183  0.00  0.00     0.000 A 
ATOM      9  C   UNL d   1      30.490  16.851 -24.600  0.00  0.00     0.001 A 
ATOM     10  C   UNL d   1      30.137  15.513 -24.170  0.00  0.00     0.000 C 
ATOM     11  C   UNL d   1      31.024  17.479 -24.606  0.00  0.00     0.013 A 
ENDBRANCH   2   5
ENDBRANCH   1   2
BRANCH   1  12
ATOM     12  C   UNL d   1      32.948  19.150 -23.518  0.00  0.00     0.112 A 
ATOM     13  C   UNL d   1      33.107  19.959 -23.559  0.00  0.00     0.103 A 
ATOM     14  C   UNL d   1      33.241  20.387 -22.866  0.00  0.00     0.021 A 
ATOM     15  C   UNL d   1      33.216  20.006 -22.135  0.00  0.00     0.002 A 
ATOM     16  C   UNL d   1      33.054  19.188 -22.099  0.00  0.00     0.002 A 
ATOM     17  C   UNL d   1      32.922  18.763 -22.776  0.00  0.00     0.021 A 
BRANCH  13  18
ATOM     18  N   UNL d   1      33.134  20.349 -24.285  0.00  0.00    -0.206 NA
ATOM     19  C   UNL d   1      33.202  21.171 -24.298  0.00  0.00     0.280 C 
ATOM     20  O   UNL d   1      33.241  21.587 -23.596  0.00  0.00    -0.265 OA
ATOM     21  C   UNL d   1      33.230  21.570 -25.019  0.00  0.00     0.068 C 
ENDBRANCH  13  18
ENDBRANCH   1  12
TORSDOF 4
ENDMDL
MODEL 3
REMARK VINA RESULT:      -1.8      2.205      4.607
REMARK  4 active torsions:
REMARK  status: ('A' for Active; 'I' for Inactive)
REMARK    1  A    between atoms: N_2  and  S_1 
REMARK    2  A    between atoms: C_4  and  S_1 
REMARK    3  A    between atoms: C_3  and  N_2 
REMARK    4  A    between atoms: N_5  and  C_6 
REMARK       I    between atoms: C_9  and  N_5 
ROOT
ATOM      1  N   UNL d   1      33.050  18.376 -23.667  0.00  0.00    -0.157 NA
ENDROOT
BRANCH   1   2
ATOM      2  S   UNL d   1      33.051  19.126 -23.265  0.00  0.00     0.285 S 
ATOM      3  O   UNL d   1      33.238  19.514 -23.986  0.00  0.00    -0.198 OA
ATOM      4  O   UNL d   1      32.863  18.738 -22.544  0.00  0.00    -0.198 OA
BRANCH   2   5
ATOM      5  C   UNL d   1      33.050  19.860 -22.864  0.00  0.00     0.105 A 
ATOM      6  C   UNL d   1      33.240  20.555 -23.272  0.00  0.00     0.013 A 
ATOM      7  C   UNL d   1      33.240  21.271 -22.882  0.00  0.00     0.001 A 
ATOM      8  C   UNL d   1      33.049  21.305 -22.081  0.00  0.00     0.000 A 
ATOM      9  C   UNL d   1      32.859  20.610 -21.674  0.00  0.00     0.001 A 
ATOM     10  C   UNL d   1      33.051  22.047 -21.685  0.00  0.00     0.000 C 
ATOM     11  C   UNL d   1      32.861  19.889 -22.072  0.00  0.00     0.013 A 
ENDBRANCH   2   5
ENDBRANCH   1   2
BRANCH   1  12
ATOM     12  C   UNL d   1      32.375  18.138 -24.099  0.00  0.00     0.112 A 
ATOM     13  C   UNL d   1      32.214  17.334 -24.203  0.00  0.00     0.103 A 
ATOM     14  C   UNL d   1      31.547  17.100 -24.629  0.00  0.00     0.021 A 
ATOM     15  C   UNL d   1      31.043  17.669 -24.949  0.00  0.00     0.002 A 
ATOM     16  C   UNL d   1      31.210  18.480 -24.841  0.00  0.00     0.002 A 
ATOM     17  C   UNL d   1      31.863  18.715 -24.423  0.00  0.00     0.021 A 
BRANCH  13  18
ATOM     18  N   UNL d   1      32.712  16.758 -23.887  0.00  0.00    -0.206 NA
ATOM     19  C   UNL d   1      32.386  16.056 -23.602  0.00  0.00     0.280 C 
ATOM     20  O   UNL d   1      31.579  15.940 -23.636  0.00  0.00    -0.265 OA
ATOM     21  C   UNL d   1      32.876  15.474 -23.284  0.00  0.00     0.068 C 
ENDBRANCH  13  18
ENDBRANCH   1  12
TORSDOF 4
ENDMDL
MODEL 4
REMARK VINA RESULT:      -1.8      3.876      5.839
REMARK  4 active torsions:
REMARK  status: ('A' for Active; 'I' for Inactive)
REMARK    1  A    between atoms: N_2  and  S_1 
REMARK    2  A    between atoms: C_4  and  S_1 
REMARK    3  A    between atoms: C_3  and  N_2 
REMARK    4  A    between atoms: N_5  and  C_6 
REMARK       I    between atoms: C_9  and  N_5 
ROOT
ATOM      1  N   UNL d   1      32.618  20.123 -21.804  0.00  0.00    -0.157 NA
ENDROOT
BRANCH   1   2
ATOM      2  S   UNL d   1      32.624  20.807 -21.296  0.00  0.00     0.285 S 
ATOM      3  O   UNL d   1      33.241  20.465 -20.841  0.00  0.00    -0.198 OA
ATOM      4  O   UNL d   1      32.006  21.149 -21.752  0.00  0.00    -0.198 OA
BRANCH   2   5
ATOM      5  C   UNL d   1      32.624  21.481 -20.801  0.00  0.00     0.105 A 
ATOM      6  C   UNL d   1      32.021  22.044 -20.868  0.00  0.00     0.013 A 
ATOM      7  C   UNL d   1      32.020  22.701 -20.386  0.00  0.00     0.001 A 
ATOM      8  C   UNL d   1      32.620  22.809 -19.832  0.00  0.00     0.000 A 
ATOM      9  C   UNL d   1      33.223  22.246 -19.765  0.00  0.00     0.001 A 
ATOM     10  C   UNL d   1      32.613  23.489 -19.338  0.00  0.00     0.000 C 
ATOM     11  C   UNL d   1      33.220  21.583 -20.254  0.00  0.00     0.013 A 
ENDBRANCH   2   5
ENDBRANCH   1   2
BRANCH   1  12
ATOM     12  C   UNL d   1      32.823  20.205 -22.610  0.00  0.00     0.112 A 
ATOM     13  C   UNL d   1      32.877  19.535 -23.091  0.00  0.00     0.103 A 
ATOM     14  C   UNL d   1      33.080  19.617 -23.887  0.00  0.00     0.021 A 
ATOM     15  C   UNL d   1      33.226  20.367 -24.200  0.00  0.00     0.002 A 
ATOM     16  C   UNL d   1      33.169  21.039 -23.709  0.00  0.00     0.002 A 
ATOM     17  C   UNL d   1      32.971  20.965 -22.927  0.00  0.00     0.021 A 
BRANCH  13  18
ATOM     18  N   UNL d   1      32.733  18.783 -22.788  0.00  0.00    -0.206 NA
ATOM     19  C   UNL d   1      32.739  18.134 -23.298  0.00  0.00     0.280 C 
ATOM     20  O   UNL d   1      32.888  18.246 -24.093  0.00  0.00    -0.265 OA
ATOM     21  C   UNL d   1      32.596  17.378 -23.004  0.00  0.00     0.068 C 
ENDBRANCH  13  18
ENDBRANCH   1  12
TORSDOF 4
ENDMDL
MODEL 5
REMARK VINA RESULT:      -1.6      2.061      3.419
REMARK  4 active torsions:
REMARK  status: ('A' for Active; 'I' for Inactive)
REMARK    1  A    between atoms: N_2  and  S_1 
REMARK    2  A    between atoms: C_4  and  S_1 
REMARK    3  A    between atoms: C_3  and  N_2 
REMARK    4  A    between atoms: N_5  and  C_6 
REMARK       I    between atoms: C_9  and  N_5 
ROOT
ATOM      1  N   UNL d   1      33.082  18.699 -23.044  0.00  0.00    -0.157 NA
ENDROOT
BRANCH   1   2
ATOM      2  S   UNL d   1      32.667  18.087 -23.466  0.00  0.00     0.285 S 
ATOM      3  O   UNL d   1      33.222  18.142 -24.094  0.00  0.00    -0.198 OA
ATOM      4  O   UNL d   1      32.112  18.032 -22.838  0.00  0.00    -0.198 OA
BRANCH   2   5
ATOM      5  C   UNL d   1      32.256  17.485 -23.876  0.00  0.00     0.105 A 
ATOM      6  C   UNL d   1      32.676  16.900 -24.284  0.00  0.00     0.013 A 
ATOM      7  C   UNL d   1      32.277  16.313 -24.684  0.00  0.00     0.001 A 
ATOM      8  C   UNL d   1      31.453  16.299 -24.682  0.00  0.00     0.000 A 
ATOM      9  C   UNL d   1      31.032  16.884 -24.274  0.00  0.00     0.001 A 
ATOM     10  C   UNL d   1      31.047  15.690 -25.097  0.00  0.00     0.000 C 
ATOM     11  C   UNL d   1      31.441  17.475 -23.872  0.00  0.00     0.013 A 
ENDBRANCH   2   5
ENDBRANCH   1   2
BRANCH   1  12
ATOM     12  C   UNL d   1      33.134  19.466 -23.373  0.00  0.00     0.112 A 
ATOM     13  C   UNL d   1      33.179  20.125 -22.877  0.00  0.00     0.103 A 
ATOM     14  C   UNL d   1      33.231  20.882 -23.203  0.00  0.00     0.021 A 
ATOM     15  C   UNL d   1      33.237  20.977 -24.022  0.00  0.00     0.002 A 
ATOM     16  C   UNL d   1      33.191  20.308 -24.519  0.00  0.00     0.002 A 
ATOM     17  C   UNL d   1      33.140  19.563 -24.204  0.00  0.00     0.021 A 
BRANCH  13  18
ATOM     18  N   UNL d   1      33.174  20.040 -22.057  0.00  0.00    -0.206 NA
ATOM     19  C   UNL d   1      33.121  20.712 -21.582  0.00  0.00     0.280 C 
ATOM     20  O   UNL d   1      33.076  21.450 -21.928  0.00  0.00    -0.265 OA
ATOM     21  C   UNL d   1      33.115  20.636 -20.761  0.00  0.00     0.068 C 
ENDBRANCH  13  18
ENDBRANCH   1  12
TORSDOF 4
ENDMDL
MODEL 6
REMARK VINA RESULT:      -0.2      1.582      4.188
REMARK  4 active torsions:
REMARK  status: ('A' for Active; 'I' for Inactive)
REMARK    1  A    between atoms: N_2  and  S_1 
REMARK    2  A    between atoms: C_4  and  S_1 
REMARK    3  A    between atoms: C_3  and  N_2 
REMARK    4  A    between atoms: N_5  and  C_6 
REMARK       I    between atoms: C_9  and  N_5 
ROOT
ATOM      1  N   UNL d   1      32.122  17.222 -23.232  0.00  0.00    -0.157 NA
ENDROOT
BRANCH   1   2
ATOM      2  S   UNL d   1      32.356  18.026 -23.390  0.00  0.00     0.285 S 
ATOM      3  O   UNL d   1      33.163  17.797 -23.367  0.00  0.00    -0.198 OA
ATOM      4  O   UNL d   1      31.547  18.255 -23.413  0.00  0.00    -0.198 OA
BRANCH   2   5
ATOM      5  C   UNL d   1      32.578  18.817 -23.546  0.00  0.00     0.105 A 
ATOM      6  C   UNL d   1      32.791  19.044 -24.313  0.00  0.00     0.013 A 
ATOM      7  C   UNL d   1      33.008  19.814 -24.466  0.00  0.00     0.001 A 
ATOM      8  C   UNL d   1      33.016  20.370 -23.858  0.00  0.00     0.000 A 
ATOM      9  C   UNL d   1      32.803  20.143 -23.091  0.00  0.00     0.001 A 
ATOM     10  C   UNL d   1      33.241  21.164 -24.023  0.00  0.00     0.000 C 
ATOM     11  C   UNL d   1      32.584  19.363 -22.941  0.00  0.00     0.013 A 
ENDBRANCH   2   5
ENDBRANCH   1   2
BRANCH   1  12
ATOM     12  C   UNL d   1      32.129  16.660 -23.850  0.00  0.00     0.112 A 
ATOM     13  C   UNL d   1      31.622  16.008 -23.820  0.00  0.00     0.103 A 
ATOM     14  C   UNL d   1      31.629  15.454 -24.432  0.00  0.00     0.021 A 
ATOM     15  C   UNL d   1      32.142  15.552 -25.070  0.00  0.00     0.002 A 
ATOM     16  C   UNL d   1      32.651  16.213 -25.096  0.00  0.00     0.002 A 
ATOM     17  C   UNL d   1      32.649  16.760 -24.499  0.00  0.00     0.021 A 
BRANCH  13  18
ATOM     18  N   UNL d   1      31.106  15.902 -23.186  0.00  0.00    -0.206 NA
ATOM     19  C   UNL d   1      30.344  15.621 -23.329  0.00  0.00     0.280 C 
ATOM     20  O   UNL d   1      30.110  15.454 -24.094  0.00  0.00    -0.265 OA
ATOM     21  C   UNL d   1      29.821  15.512 -22.702  0.00  0.00     0.068 C 
ENDBRANCH  13  18
ENDBRANCH   1  12
TORSDOF 4
ENDMDL
MODEL 7
REMARK VINA RESULT:       0.6      6.631      8.181
REMARK  4 active torsions:
REMARK  status: ('A' for Active; 'I' for Inactive)
REMARK    1  A    between atoms: N_2  and  S_1 
REMARK    2  A    between atoms: C_4  and  S_1 
REMARK    3  A    between atoms: C_3  and  N_2 
REMARK    4  A    between atoms: N_5  and  C_6 
REMARK       I    between atoms: C_9  and  N_5 
ROOT
ATOM      1  N   UNL d   1      32.896  22.395 -19.921  0.00  0.00    -0.157 NA
ENDROOT
BRANCH   1   2
ATOM      2  S   UNL d   1      32.855  22.623 -19.102  0.00  0.00     0.285 S 
ATOM      3  O   UNL d   1      33.238  23.347 -19.283  0.00  0.00    -0.198 OA
ATOM      4  O   UNL d   1      32.472  21.897 -18.920  0.00  0.00    -0.198 OA
BRANCH   2   5
ATOM      5  C   UNL d   1      32.812  22.841 -18.296  0.00  0.00     0.105 A 
ATOM      6  C   UNL d   1      32.334  23.476 -18.063  0.00  0.00     0.013 A 
ATOM      7  C   UNL d   1      32.291  23.689 -17.278  0.00  0.00     0.001 A 
ATOM      8  C   UNL d   1      32.723  23.274 -16.713  0.00  0.00     0.000 A 
ATOM      9  C   UNL d   1      33.201  22.639 -16.945  0.00  0.00     0.001 A 
ATOM     10  C   UNL d   1      32.674  23.499 -15.904  0.00  0.00     0.000 C 
ATOM     11  C   UNL d   1      33.241  22.427 -17.740  0.00  0.00     0.013 A 
ENDBRANCH   2   5
ENDBRANCH   1   2
BRANCH   1  12
ATOM     12  C   UNL d   1      32.396  22.765 -20.479  0.00  0.00     0.112 A 
ATOM     13  C   UNL d   1      32.444  22.558 -21.278  0.00  0.00     0.103 A 
ATOM     14  C   UNL d   1      31.949  22.925 -21.827  0.00  0.00     0.021 A 
ATOM     15  C   UNL d   1      31.409  23.496 -21.579  0.00  0.00     0.002 A 
ATOM     16  C   UNL d   1      31.365  23.702 -20.771  0.00  0.00     0.002 A 
ATOM     17  C   UNL d   1      31.848  23.346 -20.227  0.00  0.00     0.021 A 
BRANCH  13  18
ATOM     18  N   UNL d   1      32.980  21.988 -21.536  0.00  0.00    -0.206 NA
ATOM     19  C   UNL d   1      32.707  21.352 -21.985  0.00  0.00     0.280 C 
ATOM     20  O   UNL d   1      31.913  21.296 -22.168  0.00  0.00    -0.265 OA
ATOM     21  C   UNL d   1      33.236  20.777 -22.248  0.00  0.00     0.068 C 
ENDBRANCH  13  18
ENDBRANCH   1  12
TORSDOF 4
ENDMDL
