MODEL 1
REMARK VINA RESULT:      -7.3      0.000      0.000
REMARK  5 active torsions:
REMARK  status: ('A' for Active; 'I' for Inactive)
REMARK    1  A    between atoms: N_5  and  C_1 
REMARK    2  A    between atoms: N_8  and  C_2 
REMARK    3  A    between atoms: C_26  and  N_4 
REMARK    4  A    between atoms: C_22  and  N_9 
REMARK    5  A    between atoms: C_21  and  C_22 
ROOT
ATOM      1  C   UNL d   1     -48.731  14.569  22.595  0.00  0.00     0.199 A 
ATOM      2  C   UNL d   1     -48.521  13.792  22.813  0.00  0.00     0.092 A 
ATOM      3  C   UNL d   1     -49.513  14.824  22.652  0.00  0.00     0.288 A 
ATOM      4  N   UNL d   1     -50.094  14.300  22.931  0.00  0.00    -0.272 N 
ATOM      5  C   UNL d   1     -49.110  13.275  23.090  0.00  0.00     0.034 A 
ATOM      6  C   UNL d   1     -49.894  13.530  23.148  0.00  0.00     0.068 A 
ATOM      7  O   UNL d   1     -49.713  15.593  22.435  0.00  0.00    -0.265 OA
ATOM      8  C   UNL d   1     -48.909  12.505  23.308  0.00  0.00     0.003 A 
ATOM      9  C   UNL d   1     -50.474  13.014  23.424  0.00  0.00     0.018 A 
ATOM     10  C   UNL d   1     -49.493  11.990  23.584  0.00  0.00     0.000 A 
ATOM     11  C   UNL d   1     -50.274  12.244  23.642  0.00  0.00     0.002 A 
ENDROOT
BRANCH   2  12
ATOM     12  N   UNL d   1     -47.748  13.536  22.758  0.00  0.00    -0.300 N 
ATOM     13  C   UNL d   1     -47.206  13.753  23.339  0.00  0.00     0.100 A 
ATOM     14  C   UNL d   1     -46.418  13.496  23.290  0.00  0.00     0.100 A 
ATOM     15  N   UNL d   1     -46.175  13.021  22.660  0.00  0.00    -0.300 N 
ATOM     16  C   UNL d   1     -46.721  12.802  22.076  0.00  0.00     0.100 A 
ATOM     17  C   UNL d   1     -47.503  13.061  22.130  0.00  0.00     0.100 A 
BRANCH  15  18
ATOM     18  C   UNL d   1     -45.396  12.765  22.609  0.00  0.00     0.080 C 
BRANCH  18  19
ATOM     19  C   UNL d   1     -45.187  12.022  22.898  0.00  0.00     0.020 A 
ATOM     20  C   UNL d   1     -44.442  11.714  22.737  0.00  0.00     0.028 A 
ATOM     21  C   UNL d   1     -44.234  10.971  23.026  0.00  0.00     0.119 A 
ATOM     22  O   UNL d   1     -43.544  10.527  22.958  0.00  0.00    -0.300 OA
ATOM     23  C   UNL d   1     -44.773  10.538  23.477  0.00  0.00     0.119 A 
ATOM     24  C   UNL d   1     -43.653   9.817  23.366  0.00  0.00     0.304 A 
ATOM     25  O   UNL d   1     -44.414   9.822  23.689  0.00  0.00    -0.300 OA
ATOM     26  C   UNL d   1     -45.522  10.850  23.638  0.00  0.00     0.026 A 
ATOM     27  C   UNL d   1     -45.729  11.593  23.348  0.00  0.00     0.004 A 
ENDBRANCH  18  19
ENDBRANCH  15  18
ENDBRANCH   2  12
BRANCH   1  28
ATOM     28  N   UNL d   1     -48.144  15.086  22.318  0.00  0.00    -0.107 N 
ATOM     29  O   UNL d   1     -47.679  15.504  22.855  0.00  0.00    -0.531 OA
ATOM     30  O   UNL d   1     -48.023  15.182  21.505  0.00  0.00    -0.531 OA
ENDBRANCH   1  28
BRANCH   4  31
ATOM     31  C   UNL d   1     -50.875  14.554  22.988  0.00  0.00     0.083 C 
ATOM     32  C   UNL d   1     -51.057  15.259  23.387  0.00  0.00     0.021 C 
ENDBRANCH   4  31
TORSDOF 5
ENDMDL
MODEL 2
REMARK VINA RESULT:      -6.7      0.994      1.547
REMARK  5 active torsions:
REMARK  status: ('A' for Active; 'I' for Inactive)
REMARK    1  A    between atoms: N_5  and  C_1 
REMARK    2  A    between atoms: N_8  and  C_2 
REMARK    3  A    between atoms: C_26  and  N_4 
REMARK    4  A    between atoms: C_22  and  N_9 
REMARK    5  A    between atoms: C_21  and  C_22 
ROOT
ATOM      1  C   UNL d   1     -48.928  14.558  22.842  0.00  0.00     0.199 A 
ATOM      2  C   UNL d   1     -48.933  13.745  23.024  0.00  0.00     0.092 A 
ATOM      3  C   UNL d   1     -49.621  15.003  22.885  0.00  0.00     0.288 A 
ATOM      4  N   UNL d   1     -50.330  14.634  23.111  0.00  0.00    -0.272 N 
ATOM      5  C   UNL d   1     -49.647  13.384  23.249  0.00  0.00     0.034 A 
ATOM      6  C   UNL d   1     -50.343  13.829  23.292  0.00  0.00     0.068 A 
ATOM      7  O   UNL d   1     -49.608  15.806  22.704  0.00  0.00    -0.265 OA
ATOM      8  C   UNL d   1     -49.660  12.580  23.431  0.00  0.00     0.003 A 
ATOM      9  C   UNL d   1     -51.048  13.467  23.517  0.00  0.00     0.018 A 
ATOM     10  C   UNL d   1     -50.369  12.219  23.655  0.00  0.00     0.000 A 
ATOM     11  C   UNL d   1     -51.061  12.663  23.698  0.00  0.00     0.002 A 
ENDROOT
BRANCH   2  12
ATOM     12  N   UNL d   1     -48.250  13.302  22.983  0.00  0.00    -0.300 N 
ATOM     13  C   UNL d   1     -48.054  12.922  22.279  0.00  0.00     0.100 A 
ATOM     14  C   UNL d   1     -47.360  12.469  22.229  0.00  0.00     0.100 A 
ATOM     15  N   UNL d   1     -46.864  12.397  22.885  0.00  0.00    -0.300 N 
ATOM     16  C   UNL d   1     -47.061  12.779  23.594  0.00  0.00     0.100 A 
ATOM     17  C   UNL d   1     -47.752  13.228  23.637  0.00  0.00     0.100 A 
BRANCH  15  18
ATOM     18  C   UNL d   1     -46.176  11.949  22.839  0.00  0.00     0.080 C 
BRANCH  18  19
ATOM     19  C   UNL d   1     -45.499  12.269  22.495  0.00  0.00     0.020 A 
ATOM     20  C   UNL d   1     -44.787  11.859  22.532  0.00  0.00     0.028 A 
ATOM     21  C   UNL d   1     -44.111  12.178  22.188  0.00  0.00     0.119 A 
ATOM     22  O   UNL d   1     -43.336  11.904  22.137  0.00  0.00    -0.300 OA
ATOM     23  C   UNL d   1     -44.147  12.909  21.807  0.00  0.00     0.119 A 
ATOM     24  C   UNL d   1     -42.890  12.464  21.724  0.00  0.00     0.304 A 
ATOM     25  O   UNL d   1     -43.392  13.088  21.519  0.00  0.00    -0.300 OA
ATOM     26  C   UNL d   1     -44.864  13.321  21.771  0.00  0.00     0.026 A 
ATOM     27  C   UNL d   1     -45.541  13.000  22.115  0.00  0.00     0.004 A 
ENDBRANCH  18  19
ENDBRANCH  15  18
ENDBRANCH   2  12
BRANCH   1  28
ATOM     28  N   UNL d   1     -48.215  14.920  22.617  0.00  0.00    -0.107 N 
ATOM     29  O   UNL d   1     -48.030  14.997  21.818  0.00  0.00    -0.531 OA
ATOM     30  O   UNL d   1     -47.692  15.202  23.192  0.00  0.00    -0.531 OA
ENDBRANCH   1  28
BRANCH   4  31
ATOM     31  C   UNL d   1     -51.022  15.077  23.154  0.00  0.00     0.083 C 
ATOM     32  C   UNL d   1     -51.063  15.742  23.649  0.00  0.00     0.021 C 
ENDBRANCH   4  31
TORSDOF 5
ENDMDL
MODEL 3
REMARK VINA RESULT:      -5.4      8.303     10.227
REMARK  5 active torsions:
REMARK  status: ('A' for Active; 'I' for Inactive)
REMARK    1  A    between atoms: N_5  and  C_1 
REMARK    2  A    between atoms: N_8  and  C_2 
REMARK    3  A    between atoms: C_26  and  N_4 
REMARK    4  A    between atoms: C_22  and  N_9 
REMARK    5  A    between atoms: C_21  and  C_22 
ROOT
ATOM      1  C   UNL d   1     -38.983  14.672  17.320  0.00  0.00     0.199 A 
ATOM      2  C   UNL d   1     -38.981  14.043  17.866  0.00  0.00     0.092 A 
ATOM      3  C   UNL d   1     -38.643  14.582  16.575  0.00  0.00     0.288 A 
ATOM      4  N   UNL d   1     -38.297  13.856  16.368  0.00  0.00    -0.272 N 
ATOM      5  C   UNL d   1     -38.633  13.320  17.651  0.00  0.00     0.034 A 
ATOM      6  C   UNL d   1     -38.292  13.228  16.904  0.00  0.00     0.068 A 
ATOM      7  O   UNL d   1     -38.649  15.209  16.040  0.00  0.00    -0.265 OA
ATOM      8  C   UNL d   1     -38.627  12.692  18.187  0.00  0.00     0.003 A 
ATOM      9  C   UNL d   1     -37.947  12.510  16.695  0.00  0.00     0.018 A 
ATOM     10  C   UNL d   1     -38.281  11.973  17.975  0.00  0.00     0.000 A 
ATOM     11  C   UNL d   1     -37.941  11.882  17.230  0.00  0.00     0.002 A 
ENDROOT
BRANCH   2  12
ATOM     12  N   UNL d   1     -39.317  14.128  18.605  0.00  0.00    -0.300 N 
ATOM     13  C   UNL d   1     -40.137  14.167  18.677  0.00  0.00     0.100 A 
ATOM     14  C   UNL d   1     -40.485  14.254  19.426  0.00  0.00     0.100 A 
ATOM     15  N   UNL d   1     -40.012  14.300  20.100  0.00  0.00    -0.300 N 
ATOM     16  C   UNL d   1     -39.187  14.261  20.028  0.00  0.00     0.100 A 
ATOM     17  C   UNL d   1     -38.846  14.175  19.281  0.00  0.00     0.100 A 
BRANCH  15  18
ATOM     18  C   UNL d   1     -40.355  14.386  20.843  0.00  0.00     0.080 C 
BRANCH  18  19
ATOM     19  C   UNL d   1     -39.877  14.452  21.511  0.00  0.00     0.020 A 
ATOM     20  C   UNL d   1     -39.719  15.193  21.830  0.00  0.00     0.028 A 
ATOM     21  C   UNL d   1     -39.241  15.259  22.498  0.00  0.00     0.119 A 
ATOM     22  O   UNL d   1     -38.990  15.911  22.933  0.00  0.00    -0.300 OA
ATOM     23  C   UNL d   1     -38.921  14.583  22.845  0.00  0.00     0.119 A 
ATOM     24  C   UNL d   1     -38.513  15.641  23.552  0.00  0.00     0.304 A 
ATOM     25  O   UNL d   1     -38.470  14.817  23.499  0.00  0.00    -0.300 OA
ATOM     26  C   UNL d   1     -39.081  13.838  22.522  0.00  0.00     0.026 A 
ATOM     27  C   UNL d   1     -39.559  13.773  21.854  0.00  0.00     0.004 A 
ENDBRANCH  18  19
ENDBRANCH  15  18
ENDBRANCH   2  12
BRANCH   1  28
ATOM     28  N   UNL d   1     -39.331  15.394  17.534  0.00  0.00    -0.107 N 
ATOM     29  O   UNL d   1     -40.080  15.588  17.250  0.00  0.00    -0.531 OA
ATOM     30  O   UNL d   1     -38.929  15.920  18.030  0.00  0.00    -0.531 OA
ENDBRANCH   1  28
BRANCH   4  31
ATOM     31  C   UNL d   1     -37.957  13.765  15.624  0.00  0.00     0.083 C 
ATOM     32  C   UNL d   1     -38.418  13.506  14.983  0.00  0.00     0.021 C 
ENDBRANCH   4  31
TORSDOF 5
ENDMDL
