MODEL 1
REMARK VINA RESULT:      39.8      0.000      0.000
REMARK  7 active torsions:
REMARK  status: ('A' for Active; 'I' for Inactive)
REMARK    1  A    between atoms: C_3  and  C_1 
REMARK    2  A    between atoms: N_2  and  C_9 
REMARK    3  A    between atoms: C_14  and  N_2 
REMARK    4  A    between atoms: O_6  and  C_8 
REMARK    5  A    between atoms: C_10  and  O_6 
REMARK    6  A    between atoms: C_7  and  C_10 
REMARK    7  A    between atoms: C_9  and  C_7 
ROOT
ATOM      1  C   UNL d   1     -55.555-102.535 -38.174  0.00  0.00     0.000 A 
ATOM      2  C   UNL d   1     -54.835-102.302 -38.504  0.00  0.00     0.002 A 
ATOM      3  C   UNL d   1     -56.160-102.820 -38.665  0.00  0.00     0.002 A 
ATOM      4  C   UNL d   1     -55.317-102.633 -39.803  0.00  0.00     0.100 A 
ATOM      5  C   UNL d   1     -56.044-102.870 -39.479  0.00  0.00     0.025 A 
ATOM      6  C   UNL d   1     -54.717-102.350 -39.313  0.00  0.00     0.025 A 
ENDROOT
BRANCH   4   7
ATOM      7  O   UNL d   1     -55.201-102.682 -40.616  0.00  0.00    -0.302 OA
BRANCH   7   8
ATOM      8  C   UNL d   1     -55.744-102.346 -41.141  0.00  0.00     0.166 C 
BRANCH   8   9
ATOM      9  C   UNL d   1     -55.541-101.687 -41.591  0.00  0.00     0.239 C 
ATOM     10  O   UNL d   1     -55.458-100.954 -41.222  0.00  0.00    -0.283 OA
BRANCH   9  11
ATOM     11  C   UNL d   1     -55.421-101.759 -42.403  0.00  0.00     0.143 C 
BRANCH  11  12
ATOM     12  N   UNL d   1     -54.763-101.401 -42.755  0.00  0.00    -0.241 NA
BRANCH  12  13
ATOM     13  C   UNL d   1     -54.813-101.163 -43.546  0.00  0.00     0.082 C 
ATOM     14  C   UNL d   1     -54.959-101.725 -44.129  0.00  0.00     0.021 C 
ATOM     15  C   UNL d   1     -54.720-100.369 -43.752  0.00  0.00     0.021 C 
ENDBRANCH  12  13
ENDBRANCH  11  12
ENDBRANCH   9  11
ENDBRANCH   8   9
ENDBRANCH   7   8
ENDBRANCH   4   7
BRANCH   1  16
ATOM     16  C   UNL d   1     -55.674-102.488 -37.369  0.00  0.00     0.000 A 
ATOM     17  C   UNL d   1     -55.023-102.416 -36.857  0.00  0.00     0.000 A 
ATOM     18  C   UNL d   1     -55.147-102.368 -36.040  0.00  0.00     0.000 A 
ATOM     19  C   UNL d   1     -55.910-102.391 -35.730  0.00  0.00     0.000 A 
ATOM     20  C   UNL d   1     -56.559-102.462 -36.234  0.00  0.00     0.000 A 
ATOM     21  C   UNL d   1     -56.445-102.511 -37.055  0.00  0.00     0.000 A 
ENDBRANCH   1  16
TORSDOF 7
ENDMDL
