MODEL 1
REMARK VINA RESULT:      -1.2      0.000      0.000
REMARK  5 active torsions:
REMARK  status: ('A' for Active; 'I' for Inactive)
REMARK    1  A    between atoms: C_16  and  N_3 
REMARK    2  A    between atoms: C_11  and  C_6 
REMARK       I    between atoms: N_20  and  C_11 
REMARK    3  A    between atoms: C_21  and  N_20 
REMARK    4  A    between atoms: C_23  and  C_21 
REMARK    5  A    between atoms: C_22  and  C_23 
ROOT
ATOM      1  C   UNL d   1      59.421  -1.975  29.336  0.00  0.00     0.155 A 
ATOM      2  C   UNL d   1      58.624  -2.093  29.522  0.00  0.00     0.091 A 
ATOM      3  N   UNL d   1      59.770  -1.242  29.462  0.00  0.00    -0.275 N 
ATOM      4  N   UNL d   1      59.863  -2.595  29.024  0.00  0.00    -0.210 NA
ATOM      5  C   UNL d   1      59.330  -0.606  29.779  0.00  0.00     0.175 A 
ATOM      6  C   UNL d   1      58.529  -0.724  29.965  0.00  0.00     0.094 A 
ATOM      7  C   UNL d   1      58.268  -2.827  29.397  0.00  0.00     0.269 A 
ATOM      8  N   UNL d   1      58.714  -3.447  29.084  0.00  0.00    -0.258 N 
ATOM      9  C   UNL d   1      59.516  -3.337  28.894  0.00  0.00     0.152 A 
ATOM     10  C   UNL d   1      58.170  -1.467  29.839  0.00  0.00     0.016 A 
ATOM     11  N   UNL d   1      59.682   0.128  29.904  0.00  0.00    -0.128 N 
ATOM     12  C   UNL d   1      58.363  -4.189  28.955  0.00  0.00     0.084 A 
ATOM     13  O   UNL d   1      57.471  -2.946  29.583  0.00  0.00    -0.266 OA
ATOM     14  C   UNL d   1      59.953  -3.953  28.584  0.00  0.00     0.038 A 
ATOM     15  C   UNL d   1      58.812  -4.796  28.645  0.00  0.00     0.019 A 
ATOM     16  C   UNL d   1      59.613  -4.678  28.458  0.00  0.00     0.005 A 
ENDROOT
BRANCH   6  17
ATOM     17  C   UNL d   1      58.083  -0.105  30.279  0.00  0.00     0.282 C 
ATOM     18  O   UNL d   1      58.225   0.672  30.046  0.00  0.00    -0.265 OA
ATOM     19  N   UNL d   1      57.485  -0.266  30.835  0.00  0.00    -0.206 NA
BRANCH  19  20
ATOM     20  C   UNL d   1      57.038   0.352  31.148  0.00  0.00     0.102 C 
BRANCH  20  21
ATOM     21  C   UNL d   1      56.363   0.188  31.589  0.00  0.00     0.021 C 
BRANCH  21  22
ATOM     22  C   UNL d   1      56.357   0.314  32.403  0.00  0.00     0.002 A 
ATOM     23  C   UNL d   1      57.049   0.545  32.784  0.00  0.00     0.000 A 
ATOM     24  C   UNL d   1      57.051   0.673  33.597  0.00  0.00     0.000 A 
ATOM     25  C   UNL d   1      56.350   0.567  34.025  0.00  0.00     0.000 A 
ATOM     26  C   UNL d   1      55.658   0.334  33.632  0.00  0.00     0.000 A 
ATOM     27  C   UNL d   1      55.668   0.210  32.827  0.00  0.00     0.000 A 
ENDBRANCH  21  22
ENDBRANCH  20  21
ENDBRANCH  19  20
ENDBRANCH   6  17
BRANCH   3  28
ATOM     28  C   UNL d   1      60.571  -1.124  29.275  0.00  0.00     0.067 C 
ATOM     29  C   UNL d   1      60.803  -1.067  28.479  0.00  0.00     0.019 C 
ATOM     30  C   UNL d   1      61.133  -1.063  29.874  0.00  0.00     0.019 C 
ENDBRANCH   3  28
TORSDOF 5
ENDMDL
