MODEL 1
REMARK VINA RESULT:      -3.6      0.000      0.000
REMARK  5 active torsions:
REMARK  status: ('A' for Active; 'I' for Inactive)
REMARK    1  A    between atoms: C_5  and  N_1 
REMARK    2  A    between atoms: C_6  and  C_5 
REMARK       I    between atoms: N_9  and  C_6 
REMARK    3  A    between atoms: C_13  and  N_9 
REMARK    4  A    between atoms: O_19  and  C_14 
REMARK    5  A    between atoms: C_21  and  O_19 
ROOT
ATOM      1  C   UNL d   1      57.922  -0.004  30.404  0.00  0.00     0.297 C 
ATOM      2  N   UNL d   1      57.741   0.668  30.847  0.00  0.00    -0.207 NA
ATOM      3  O   UNL d   1      57.747  -0.753  30.702  0.00  0.00    -0.264 OA
ENDROOT
BRANCH   1   4
ATOM      4  C   UNL d   1      58.276   0.071  29.667  0.00  0.00     0.148 C 
BRANCH   4   5
ATOM      5  N   UNL d   1      58.925  -0.399  29.470  0.00  0.00    -0.235 N 
ATOM      6  C   UNL d   1      59.696  -0.093  29.550  0.00  0.00     0.273 A 
ATOM      7  C   UNL d   1      60.345  -0.563  29.353  0.00  0.00     0.086 A 
ATOM      8  O   UNL d   1      59.805   0.682  29.827  0.00  0.00    -0.266 OA
ATOM      9  C   UNL d   1      61.114  -0.266  29.429  0.00  0.00     0.012 C 
ATOM     10  S   UNL d   1      60.223  -1.340  29.075  0.00  0.00    -0.077 SA
ATOM     11  C   UNL d   1      59.463  -1.632  29.000  0.00  0.00     0.097 A 
ATOM     12  C   UNL d   1      58.814  -1.162  29.197  0.00  0.00     0.274 A 
ATOM     13  O   UNL d   1      58.036  -1.463  29.119  0.00  0.00    -0.266 OA
ENDBRANCH   4   5
ENDBRANCH   1   4
BRANCH   2  14
ATOM     14  C   UNL d   1      57.385   0.590  31.587  0.00  0.00     0.085 A 
ATOM     15  C   UNL d   1      57.831   0.676  32.265  0.00  0.00     0.021 A 
ATOM     16  C   UNL d   1      57.490   0.601  32.996  0.00  0.00     0.026 A 
ATOM     17  C   UNL d   1      56.676   0.435  33.056  0.00  0.00     0.100 A 
ATOM     18  C   UNL d   1      56.229   0.349  32.378  0.00  0.00     0.026 A 
ATOM     19  C   UNL d   1      56.593   0.429  31.633  0.00  0.00     0.021 A 
BRANCH  17  20
ATOM     20  O   UNL d   1      56.324   0.358  33.812  0.00  0.00    -0.305 OA
BRANCH  20  21
ATOM     21  C   UNL d   1      55.520   0.511  33.919  0.00  0.00     0.123 C 
ATOM     22  C   UNL d   1      55.205   0.543  34.677  0.00  0.00     0.029 C 
ENDBRANCH  20  21
ENDBRANCH  17  20
ENDBRANCH   2  14
TORSDOF 5
ENDMDL
MODEL 2
REMARK VINA RESULT:      -2.2      1.703      4.818
REMARK  5 active torsions:
REMARK  status: ('A' for Active; 'I' for Inactive)
REMARK    1  A    between atoms: C_5  and  N_1 
REMARK    2  A    between atoms: C_6  and  C_5 
REMARK       I    between atoms: N_9  and  C_6 
REMARK    3  A    between atoms: C_13  and  N_9 
REMARK    4  A    between atoms: O_19  and  C_14 
REMARK    5  A    between atoms: C_21  and  O_19 
ROOT
ATOM      1  C   UNL d   1      58.043  -0.001  30.747  0.00  0.00     0.297 C 
ATOM      2  N   UNL d   1      58.364   0.050  29.988  0.00  0.00    -0.207 NA
ATOM      3  O   UNL d   1      58.041  -0.723  31.146  0.00  0.00    -0.264 OA
ENDROOT
BRANCH   1   4
ATOM      4  C   UNL d   1      57.725   0.666  31.104  0.00  0.00     0.148 C 
BRANCH   4   5
ATOM      5  N   UNL d   1      57.451   0.629  31.882  0.00  0.00    -0.235 N 
ATOM      6  C   UNL d   1      56.632   0.583  32.030  0.00  0.00     0.273 A 
ATOM      7  C   UNL d   1      56.359   0.545  32.808  0.00  0.00     0.086 A 
ATOM      8  O   UNL d   1      56.098   0.576  31.394  0.00  0.00    -0.266 OA
ATOM      9  C   UNL d   1      55.547   0.500  32.963  0.00  0.00     0.012 C 
ATOM     10  S   UNL d   1      56.905   0.553  33.438  0.00  0.00    -0.077 SA
ATOM     11  C   UNL d   1      57.707   0.598  33.284  0.00  0.00     0.097 A 
ATOM     12  C   UNL d   1      57.980   0.636  32.506  0.00  0.00     0.274 A 
ATOM     13  O   UNL d   1      58.802   0.682  32.349  0.00  0.00    -0.266 OA
ENDBRANCH   4   5
ENDBRANCH   1   4
BRANCH   2  14
ATOM     14  C   UNL d   1      58.683  -0.622  29.631  0.00  0.00     0.085 A 
ATOM     15  C   UNL d   1      58.196  -1.241  29.419  0.00  0.00     0.021 A 
ATOM     16  C   UNL d   1      58.500  -1.905  29.067  0.00  0.00     0.026 A 
ATOM     17  C   UNL d   1      59.319  -1.955  28.921  0.00  0.00     0.100 A 
ATOM     18  C   UNL d   1      59.806  -1.336  29.133  0.00  0.00     0.026 A 
ATOM     19  C   UNL d   1      59.480  -0.660  29.494  0.00  0.00     0.021 A 
BRANCH  17  20
ATOM     20  O   UNL d   1      59.633  -2.641  28.558  0.00  0.00    -0.305 OA
BRANCH  20  21
ATOM     21  C   UNL d   1      60.095  -3.171  28.989  0.00  0.00     0.123 C 
ATOM     22  C   UNL d   1      60.424  -3.826  28.619  0.00  0.00     0.029 C 
ENDBRANCH  20  21
ENDBRANCH  17  20
ENDBRANCH   2  14
TORSDOF 5
ENDMDL
MODEL 3
REMARK VINA RESULT:      -1.3      9.201     10.658
REMARK  5 active torsions:
REMARK  status: ('A' for Active; 'I' for Inactive)
REMARK    1  A    between atoms: C_5  and  N_1 
REMARK    2  A    between atoms: C_6  and  C_5 
REMARK       I    between atoms: N_9  and  C_6 
REMARK    3  A    between atoms: C_13  and  N_9 
REMARK    4  A    between atoms: O_19  and  C_14 
REMARK    5  A    between atoms: C_21  and  O_19 
ROOT
ATOM      1  C   UNL d   1      59.761  -9.585  33.955  0.00  0.00     0.297 C 
ATOM      2  N   UNL d   1      59.266  -9.769  33.321  0.00  0.00    -0.207 NA
ATOM      3  O   UNL d   1      60.557  -9.413  33.820  0.00  0.00    -0.264 OA
ENDROOT
BRANCH   1   4
ATOM      4  C   UNL d   1      59.464  -9.572  34.720  0.00  0.00     0.148 C 
BRANCH   4   5
ATOM      5  N   UNL d   1      59.695  -8.979  35.245  0.00  0.00    -0.235 N 
ATOM      6  C   UNL d   1      59.273  -8.260  35.268  0.00  0.00     0.273 A 
ATOM      7  C   UNL d   1      59.504  -7.667  35.792  0.00  0.00     0.086 A 
ATOM      8  O   UNL d   1      58.624  -8.148  34.763  0.00  0.00    -0.266 OA
ATOM      9  C   UNL d   1      59.090  -6.951  35.821  0.00  0.00     0.012 C 
ATOM     10  S   UNL d   1      60.158  -7.792  36.294  0.00  0.00    -0.077 SA
ATOM     11  C   UNL d   1      60.566  -8.500  36.265  0.00  0.00     0.097 A 
ATOM     12  C   UNL d   1      60.335  -9.093  35.741  0.00  0.00     0.274 A 
ATOM     13  O   UNL d   1      60.754  -9.818  35.712  0.00  0.00    -0.266 OA
ENDBRANCH   4   5
ENDBRANCH   1   4
BRANCH   2  14
ATOM     14  C   UNL d   1      59.568  -9.782  32.553  0.00  0.00     0.085 A 
ATOM     15  C   UNL d   1      59.059  -9.783  31.916  0.00  0.00     0.021 A 
ATOM     16  C   UNL d   1      59.345  -9.795  31.158  0.00  0.00     0.026 A 
ATOM     17  C   UNL d   1      60.169  -9.806  31.029  0.00  0.00     0.100 A 
ATOM     18  C   UNL d   1      60.678  -9.805  31.667  0.00  0.00     0.026 A 
ATOM     19  C   UNL d   1      60.370  -9.792  32.440  0.00  0.00     0.021 A 
BRANCH  17  20
ATOM     20  O   UNL d   1      60.465  -9.818  30.246  0.00  0.00    -0.305 OA
BRANCH  20  21
ATOM     21  C   UNL d   1      59.952  -9.778  29.601  0.00  0.00     0.123 C 
ATOM     22  C   UNL d   1      60.250  -9.684  28.842  0.00  0.00     0.029 C 
ENDBRANCH  20  21
ENDBRANCH  17  20
ENDBRANCH   2  14
TORSDOF 5
ENDMDL
