MODEL 1
REMARK VINA RESULT:      -8.5      0.000      0.000
REMARK  6 active torsions:
REMARK  status: ('A' for Active; 'I' for Inactive)
REMARK    1  A    between atoms: C_3  and  C_1 
REMARK    2  A    between atoms: C_5  and  C_1 
REMARK    3  A    between atoms: C_2  and  C_5 
REMARK    4  A    between atoms: C_4  and  C_2 
REMARK    5  A    between atoms: C_8  and  C_3 
REMARK    6  A    between atoms: C_7  and  C_4 
ROOT
ATOM      1  C   UNL d   1      52.345  32.714  52.881  0.00  0.00     0.196 C 
ATOM      2  O   UNL d   1      52.438  32.003  52.458  0.00  0.00    -0.287 OA
ENDROOT
BRANCH   1   3
ATOM      3  C   UNL d   1      51.617  33.093  52.893  0.00  0.00     0.042 C 
BRANCH   3   4
ATOM      4  C   UNL d   1      51.456  33.725  52.387  0.00  0.00     0.003 C 
BRANCH   4   5
ATOM      5  C   UNL d   1      50.699  34.125  52.388  0.00  0.00     0.000 A 
ATOM      6  C   UNL d   1      50.416  34.494  53.069  0.00  0.00     0.002 A 
ATOM      7  C   UNL d   1      49.693  34.874  53.061  0.00  0.00     0.030 A 
ATOM      8  C   UNL d   1      49.249  34.886  52.372  0.00  0.00     0.140 A 
ATOM      9  C   UNL d   1      49.531  34.517  51.691  0.00  0.00     0.030 A 
ATOM     10  F   UNL d   1      48.508  35.272  52.354  0.00  0.00    -0.204 F 
ATOM     11  C   UNL d   1      50.268  34.124  51.678  0.00  0.00     0.002 A 
ENDBRANCH   4   5
ENDBRANCH   3   4
ENDBRANCH   1   3
BRANCH   1  12
ATOM     12  C   UNL d   1      52.976  33.037  53.287  0.00  0.00     0.042 C 
BRANCH  12  13
ATOM     13  C   UNL d   1      53.483  32.552  53.720  0.00  0.00     0.003 C 
BRANCH  13  14
ATOM     14  C   UNL d   1      54.058  32.901  54.227  0.00  0.00     0.000 A 
ATOM     15  C   UNL d   1      53.914  32.892  55.045  0.00  0.00     0.002 A 
ATOM     16  C   UNL d   1      54.468  33.230  55.549  0.00  0.00     0.030 A 
ATOM     17  C   UNL d   1      55.162  33.576  55.238  0.00  0.00     0.140 A 
ATOM     18  C   UNL d   1      55.288  33.576  54.417  0.00  0.00     0.030 A 
ATOM     19  F   UNL d   1      55.709  33.912  55.758  0.00  0.00    -0.204 F 
ATOM     20  C   UNL d   1      54.735  33.238  53.913  0.00  0.00     0.002 A 
ENDBRANCH  13  14
ENDBRANCH  12  13
ENDBRANCH   1  12
TORSDOF 6
ENDMDL
MODEL 2
REMARK VINA RESULT:      -8.4      0.048      5.073
REMARK  6 active torsions:
REMARK  status: ('A' for Active; 'I' for Inactive)
REMARK    1  A    between atoms: C_3  and  C_1 
REMARK    2  A    between atoms: C_5  and  C_1 
REMARK    3  A    between atoms: C_2  and  C_5 
REMARK    4  A    between atoms: C_4  and  C_2 
REMARK    5  A    between atoms: C_8  and  C_3 
REMARK    6  A    between atoms: C_7  and  C_4 
ROOT
ATOM      1  C   UNL d   1      52.304  32.771  52.871  0.00  0.00     0.196 C 
ATOM      2  O   UNL d   1      52.383  32.054  52.455  0.00  0.00    -0.287 OA
ENDROOT
BRANCH   1   3
ATOM      3  C   UNL d   1      52.949  33.089  53.267  0.00  0.00     0.042 C 
BRANCH   3   4
ATOM      4  C   UNL d   1      53.462  32.612  53.703  0.00  0.00     0.003 C 
BRANCH   4   5
ATOM      5  C   UNL d   1      54.043  32.941  54.239  0.00  0.00     0.000 A 
ATOM      6  C   UNL d   1      53.913  32.944  55.054  0.00  0.00     0.002 A 
ATOM      7  C   UNL d   1      54.472  33.259  55.558  0.00  0.00     0.030 A 
ATOM      8  C   UNL d   1      55.165  33.574  55.251  0.00  0.00     0.140 A 
ATOM      9  C   UNL d   1      55.294  33.571  54.436  0.00  0.00     0.030 A 
ATOM     10  F   UNL d   1      55.743  33.899  55.758  0.00  0.00    -0.204 F 
ATOM     11  C   UNL d   1      54.735  33.253  53.904  0.00  0.00     0.002 A 
ENDBRANCH   4   5
ENDBRANCH   3   4
ENDBRANCH   1   3
BRANCH   1  12
ATOM     12  C   UNL d   1      51.586  33.160  52.888  0.00  0.00     0.042 C 
BRANCH  12  13
ATOM     13  C   UNL d   1      51.437  33.779  52.362  0.00  0.00     0.003 C 
BRANCH  13  14
ATOM     14  C   UNL d   1      50.683  34.155  52.370  0.00  0.00     0.000 A 
ATOM     15  C   UNL d   1      50.239  34.152  51.669  0.00  0.00     0.002 A 
ATOM     16  C   UNL d   1      49.502  34.517  51.664  0.00  0.00     0.030 A 
ATOM     17  C   UNL d   1      49.212  34.883  52.358  0.00  0.00     0.140 A 
ATOM     18  C   UNL d   1      49.671  34.876  53.049  0.00  0.00     0.030 A 
ATOM     19  F   UNL d   1      48.469  35.245  52.337  0.00  0.00    -0.204 F 
ATOM     20  C   UNL d   1      50.408  34.511  53.053  0.00  0.00     0.002 A 
ENDBRANCH  13  14
ENDBRANCH  12  13
ENDBRANCH   1  12
TORSDOF 6
ENDMDL
MODEL 3
REMARK VINA RESULT:      -8.0      1.900      2.386
REMARK  6 active torsions:
REMARK  status: ('A' for Active; 'I' for Inactive)
REMARK    1  A    between atoms: C_3  and  C_1 
REMARK    2  A    between atoms: C_5  and  C_1 
REMARK    3  A    between atoms: C_2  and  C_5 
REMARK    4  A    between atoms: C_4  and  C_2 
REMARK    5  A    between atoms: C_8  and  C_3 
REMARK    6  A    between atoms: C_7  and  C_4 
ROOT
ATOM      1  C   UNL d   1      52.127  33.634  52.989  0.00  0.00     0.196 C 
ATOM      2  O   UNL d   1      52.677  34.215  53.222  0.00  0.00    -0.287 OA
ENDROOT
BRANCH   1   3
ATOM      3  C   UNL d   1      51.452  33.850  52.576  0.00  0.00     0.042 C 
BRANCH   3   4
ATOM      4  C   UNL d   1      50.875  34.331  52.919  0.00  0.00     0.003 C 
BRANCH   4   5
ATOM      5  C   UNL d   1      50.144  34.520  52.516  0.00  0.00     0.000 A 
ATOM      6  C   UNL d   1      50.023  34.298  51.731  0.00  0.00     0.002 A 
ATOM      7  C   UNL d   1      49.324  34.483  51.354  0.00  0.00     0.030 A 
ATOM      8  C   UNL d   1      48.739  34.891  51.760  0.00  0.00     0.140 A 
ATOM      9  C   UNL d   1      48.860  35.114  52.545  0.00  0.00     0.030 A 
ATOM     10  F   UNL d   1      48.019  35.085  51.383  0.00  0.00    -0.204 F 
ATOM     11  C   UNL d   1      49.568  34.934  52.948  0.00  0.00     0.002 A 
ENDBRANCH   4   5
ENDBRANCH   3   4
ENDBRANCH   1   3
BRANCH   1  12
ATOM     12  C   UNL d   1      52.256  32.849  53.172  0.00  0.00     0.042 C 
BRANCH  12  13
ATOM     13  C   UNL d   1      52.980  32.495  52.993  0.00  0.00     0.003 C 
BRANCH  13  14
ATOM     14  C   UNL d   1      53.104  31.685  53.191  0.00  0.00     0.000 A 
ATOM     15  C   UNL d   1      53.657  31.509  53.784  0.00  0.00     0.002 A 
ATOM     16  C   UNL d   1      53.787  30.722  53.985  0.00  0.00     0.030 A 
ATOM     17  C   UNL d   1      53.366  30.116  53.593  0.00  0.00     0.140 A 
ATOM     18  C   UNL d   1      52.817  30.311  53.002  0.00  0.00     0.030 A 
ATOM     19  F   UNL d   1      53.507  29.329  53.806  0.00  0.00    -0.204 F 
ATOM     20  C   UNL d   1      52.687  31.098  52.802  0.00  0.00     0.002 A 
ENDBRANCH  13  14
ENDBRANCH  12  13
ENDBRANCH   1  12
TORSDOF 6
ENDMDL
MODEL 4
REMARK VINA RESULT:      -8.0      2.054      5.024
REMARK  6 active torsions:
REMARK  status: ('A' for Active; 'I' for Inactive)
REMARK    1  A    between atoms: C_3  and  C_1 
REMARK    2  A    between atoms: C_5  and  C_1 
REMARK    3  A    between atoms: C_2  and  C_5 
REMARK    4  A    between atoms: C_4  and  C_2 
REMARK    5  A    between atoms: C_8  and  C_3 
REMARK    6  A    between atoms: C_7  and  C_4 
ROOT
ATOM      1  C   UNL d   1      52.974  33.103  53.205  0.00  0.00     0.196 C 
ATOM      2  O   UNL d   1      53.598  33.654  53.223  0.00  0.00    -0.287 OA
ENDROOT
BRANCH   1   3
ATOM      3  C   UNL d   1      53.065  32.366  53.554  0.00  0.00     0.042 C 
BRANCH   3   4
ATOM      4  C   UNL d   1      53.345  31.720  53.124  0.00  0.00     0.003 C 
BRANCH   4   5
ATOM      5  C   UNL d   1      53.313  30.922  53.430  0.00  0.00     0.000 A 
ATOM      6  C   UNL d   1      53.638  30.738  54.166  0.00  0.00     0.002 A 
ATOM      7  C   UNL d   1      53.603  29.974  54.451  0.00  0.00     0.030 A 
ATOM      8  C   UNL d   1      53.243  29.389  54.003  0.00  0.00     0.140 A 
ATOM      9  C   UNL d   1      52.918  29.573  53.267  0.00  0.00     0.030 A 
ATOM     10  F   UNL d   1      53.202  28.604  54.286  0.00  0.00    -0.204 F 
ATOM     11  C   UNL d   1      52.944  30.348  52.958  0.00  0.00     0.002 A 
ENDBRANCH   4   5
ENDBRANCH   3   4
ENDBRANCH   1   3
BRANCH   1  12
ATOM     12  C   UNL d   1      52.268  33.293  52.841  0.00  0.00     0.042 C 
BRANCH  12  13
ATOM     13  C   UNL d   1      51.969  34.061  52.891  0.00  0.00     0.003 C 
BRANCH  13  14
ATOM     14  C   UNL d   1      51.198  34.225  52.591  0.00  0.00     0.000 A 
ATOM     15  C   UNL d   1      50.600  34.413  53.135  0.00  0.00     0.002 A 
ATOM     16  C   UNL d   1      49.845  34.575  52.854  0.00  0.00     0.030 A 
ATOM     17  C   UNL d   1      49.689  34.549  52.034  0.00  0.00     0.140 A 
ATOM     18  C   UNL d   1      50.300  34.360  51.505  0.00  0.00     0.030 A 
ATOM     19  F   UNL d   1      48.924  34.715  51.766  0.00  0.00    -0.204 F 
ATOM     20  C   UNL d   1      51.055  34.198  51.786  0.00  0.00     0.002 A 
ENDBRANCH  13  14
ENDBRANCH  12  13
ENDBRANCH   1  12
TORSDOF 6
ENDMDL
MODEL 5
REMARK VINA RESULT:      -7.9      2.793      4.615
REMARK  6 active torsions:
REMARK  status: ('A' for Active; 'I' for Inactive)
REMARK    1  A    between atoms: C_3  and  C_1 
REMARK    2  A    between atoms: C_5  and  C_1 
REMARK    3  A    between atoms: C_2  and  C_5 
REMARK    4  A    between atoms: C_4  and  C_2 
REMARK    5  A    between atoms: C_8  and  C_3 
REMARK    6  A    between atoms: C_7  and  C_4 
ROOT
ATOM      1  C   UNL d   1      52.929  31.888  53.022  0.00  0.00     0.196 C 
ATOM      2  O   UNL d   1      52.754  31.809  52.212  0.00  0.00    -0.287 OA
ENDROOT
BRANCH   1   3
ATOM      3  C   UNL d   1      53.226  31.249  53.443  0.00  0.00     0.042 C 
BRANCH   3   4
ATOM      4  C   UNL d   1      52.913  30.492  53.349  0.00  0.00     0.003 C 
BRANCH   4   5
ATOM      5  C   UNL d   1      53.100  29.853  53.887  0.00  0.00     0.000 A 
ATOM      6  C   UNL d   1      52.872  29.886  54.679  0.00  0.00     0.002 A 
ATOM      7  C   UNL d   1      53.054  29.273  55.185  0.00  0.00     0.030 A 
ATOM      8  C   UNL d   1      53.466  28.622  54.903  0.00  0.00     0.140 A 
ATOM      9  C   UNL d   1      53.694  28.588  54.111  0.00  0.00     0.030 A 
ATOM     10  F   UNL d   1      53.658  27.989  55.413  0.00  0.00    -0.204 F 
ATOM     11  C   UNL d   1      53.517  29.205  53.577  0.00  0.00     0.002 A 
ENDBRANCH   4   5
ENDBRANCH   3   4
ENDBRANCH   1   3
BRANCH   1  12
ATOM     12  C   UNL d   1      52.806  32.601  53.402  0.00  0.00     0.042 C 
BRANCH  12  13
ATOM     13  C   UNL d   1      53.320  33.234  53.273  0.00  0.00     0.003 C 
BRANCH  13  14
ATOM     14  C   UNL d   1      53.189  33.962  53.677  0.00  0.00     0.000 A 
ATOM     15  C   UNL d   1      52.746  34.548  53.290  0.00  0.00     0.002 A 
ATOM     16  C   UNL d   1      52.612  35.262  53.675  0.00  0.00     0.030 A 
ATOM     17  C   UNL d   1      52.919  35.389  54.441  0.00  0.00     0.140 A 
ATOM     18  C   UNL d   1      53.359  34.791  54.812  0.00  0.00     0.030 A 
ATOM     19  F   UNL d   1      52.776  36.113  54.815  0.00  0.00    -0.204 F 
ATOM     20  C   UNL d   1      53.493  34.077  54.428  0.00  0.00     0.002 A 
ENDBRANCH  13  14
ENDBRANCH  12  13
ENDBRANCH   1  12
TORSDOF 6
ENDMDL
