MODEL 1
REMARK VINA RESULT:      35.7      0.000      0.000
REMARK  6 active torsions:
REMARK  status: ('A' for Active; 'I' for Inactive)
REMARK    1  A    between atoms: C_7  and  C_4 
REMARK    2  A    between atoms: O_17  and  C_6 
REMARK    3  A    between atoms: C_8  and  C_7 
REMARK    4  A    between atoms: C_12  and  C_8 
REMARK    5  A    between atoms: O_21  and  C_11 
REMARK    6  A    between atoms: O_22  and  C_18 
ROOT
ATOM      1  C   UNL d   1     -57.995 -98.756 -43.914  0.00  0.00     0.090 A 
ATOM      2  C   UNL d   1     -57.811 -98.756 -43.113  0.00  0.00     0.302 A 
ATOM      3  O   UNL d   1     -57.019 -98.756 -43.095  0.00  0.00    -0.273 OA
ATOM      4  C   UNL d   1     -56.722 -98.756 -43.824  0.00  0.00     0.107 A 
ATOM      5  C   UNL d   1     -57.325 -98.757 -44.354  0.00  0.00     0.030 A 
ATOM      6  C   UNL d   1     -58.750 -98.757 -44.295  0.00  0.00     0.121 A 
ATOM      7  C   UNL d   1     -57.359 -98.757 -45.172  0.00  0.00     0.004 A 
ATOM      8  O   UNL d   1     -58.357 -98.755 -42.454  0.00  0.00    -0.259 OA
ATOM      9  C   UNL d   1     -58.774 -98.757 -45.124  0.00  0.00     0.117 A 
ATOM     10  C   UNL d   1     -58.096 -98.757 -45.544  0.00  0.00     0.026 A 
ENDROOT
BRANCH   4  11
ATOM     11  C   UNL d   1     -55.903 -98.756 -44.018  0.00  0.00     0.067 C 
BRANCH  11  12
ATOM     12  C   UNL d   1     -55.540 -99.270 -44.558  0.00  0.00     0.198 C 
ATOM     13  O   UNL d   1     -55.381 -98.924 -45.338  0.00  0.00    -0.286 OA
BRANCH  12  14
ATOM     14  C   UNL d   1     -55.345 -99.995 -44.418  0.00  0.00     0.039 A 
ATOM     15  C   UNL d   1     -55.552-100.551 -44.946  0.00  0.00     0.005 A 
ATOM     16  C   UNL d   1     -55.339-101.346 -44.794  0.00  0.00     0.024 A 
ATOM     17  C   UNL d   1     -54.912-101.619 -44.113  0.00  0.00     0.094 A 
ATOM     18  C   UNL d   1     -54.711-100.997 -43.578  0.00  0.00     0.024 A 
ATOM     19  C   UNL d   1     -54.928-100.262 -43.753  0.00  0.00     0.005 A 
BRANCH  17  20
ATOM     20  O   UNL d   1     -54.713-102.400 -43.984  0.00  0.00    -0.328 OA
ATOM     21  C   UNL d   1     -54.776-102.836 -43.125  0.00  0.00     0.181 C 
ENDBRANCH  17  20
ENDBRANCH  12  14
ENDBRANCH  11  12
ENDBRANCH   4  11
BRANCH   6  22
ATOM     22  O   UNL d   1     -59.447 -98.756 -43.878  0.00  0.00    -0.326 OA
ATOM     23  C   UNL d   1     -59.953 -99.359 -43.953  0.00  0.00     0.181 C 
ENDBRANCH   6  22
BRANCH   9  24
ATOM     24  O   UNL d   1     -59.482 -98.758 -45.552  0.00  0.00    -0.326 OA
ATOM     25  C   UNL d   1     -59.481 -98.815 -46.356  0.00  0.00     0.181 C 
ENDBRANCH   9  24
TORSDOF 6
ENDMDL
