MODEL 1
REMARK VINA RESULT:      66.0      0.000      0.000
REMARK  5 active torsions:
REMARK  status: ('A' for Active; 'I' for Inactive)
REMARK    1  A    between atoms: C_8  and  C_1 
REMARK    2  A    between atoms: C_6  and  O_10 
REMARK       I    between atoms: N_7  and  C_6 
REMARK    3  A    between atoms: C_15  and  C_8 
REMARK    4  A    between atoms: O_10  and  C_12 
REMARK    5  A    between atoms: C_27  and  C_18 
ROOT
ATOM      1  C   UNL d   1     -47.956  29.200  35.243  0.00  0.00     0.139 A 
ATOM      2  C   UNL d   1     -48.813  28.167  35.215  0.00  0.00     0.064 A 
ATOM      3  C   UNL d   1     -48.368  28.656  35.707  0.00  0.00     0.220 A 
ATOM      4  C   UNL d   1     -48.682  28.403  34.438  0.00  0.00     0.105 A 
ATOM      5  O   UNL d   1     -48.148  29.046  34.447  0.00  0.00    -0.304 OA
ATOM      6  C   UNL d   1     -49.056  28.012  33.821  0.00  0.00     0.050 A 
ATOM      7  C   UNL d   1     -49.319  27.539  35.379  0.00  0.00     0.007 A 
ATOM      8  C   UNL d   1     -49.556  27.392  33.983  0.00  0.00     0.107 A 
ATOM      9  O   UNL d   1     -48.332  28.616  36.541  0.00  0.00    -0.284 OA
ATOM     10  C   UNL d   1     -49.693  27.150  34.757  0.00  0.00     0.025 A 
ENDROOT
BRANCH   1  11
ATOM     11  C   UNL d   1     -47.444  29.792  35.509  0.00  0.00     0.028 C 
BRANCH  11  12
ATOM     12  C   UNL d   1     -47.474  30.544  35.173  0.00  0.00     0.002 A 
ATOM     13  C   UNL d   1     -48.057  30.725  34.623  0.00  0.00     0.000 A 
ATOM     14  C   UNL d   1     -48.097  31.478  34.280  0.00  0.00     0.000 A 
ATOM     15  C   UNL d   1     -47.538  32.051  34.498  0.00  0.00     0.000 A 
ATOM     16  C   UNL d   1     -46.949  31.868  35.054  0.00  0.00     0.000 A 
ATOM     17  C   UNL d   1     -46.920  31.112  35.389  0.00  0.00     0.000 A 
BRANCH  15  18
ATOM     18  C   UNL d   1     -47.570  32.805  34.160  0.00  0.00     0.000 C 
ATOM     19  C   UNL d   1     -48.228  33.034  33.723  0.00  0.00     0.000 C 
ENDBRANCH  15  18
ENDBRANCH  11  12
ENDBRANCH   1  11
BRANCH   8  20
ATOM     20  O   UNL d   1     -49.936  26.995  33.363  0.00  0.00    -0.259 OA
BRANCH  20  21
ATOM     21  C   UNL d   1     -49.968  26.164  33.349  0.00  0.00     0.378 C 
ATOM     22  N   UNL d   1     -50.692  25.778  33.335  0.00  0.00    -0.247 N 
ATOM     23  C   UNL d   1     -51.401  26.218  33.334  0.00  0.00     0.112 A 
ATOM     24  C   UNL d   1     -50.731  24.960  33.320  0.00  0.00     0.112 A 
ATOM     25  C   UNL d   1     -52.133  25.836  33.320  0.00  0.00     0.142 A 
ATOM     26  O   UNL d   1     -52.157  25.001  33.306  0.00  0.00    -0.300 OA
ATOM     27  C   UNL d   1     -51.458  24.567  33.306  0.00  0.00     0.142 A 
ATOM     28  O   UNL d   1     -49.270  25.730  33.349  0.00  0.00    -0.237 OA
ENDBRANCH  20  21
ENDBRANCH   8  20
TORSDOF 5
ENDMDL
