MODEL 1
REMARK VINA RESULT:      -9.6      0.000      0.000
REMARK  2 active torsions:
REMARK  status: ('A' for Active; 'I' for Inactive)
REMARK    1  A    between atoms: C_6  and  C_1 
REMARK    2  A    between atoms: C_8  and  C_6 
ROOT
ATOM      1  C   UNL d   1      53.081  32.136  53.156  0.00  0.00     0.141 A 
ATOM      2  C   UNL d   1      52.833  33.407  53.504  0.00  0.00     0.064 A 
ATOM      3  C   UNL d   1      52.667  32.820  52.947  0.00  0.00     0.220 A 
ATOM      4  C   UNL d   1      53.352  33.085  54.060  0.00  0.00     0.106 A 
ATOM      5  O   UNL d   1      53.508  32.301  53.849  0.00  0.00    -0.304 OA
ATOM      6  C   UNL d   1      52.578  34.194  53.575  0.00  0.00     0.008 A 
ATOM      7  C   UNL d   1      53.620  33.546  54.691  0.00  0.00     0.067 A 
ATOM      8  C   UNL d   1      52.845  34.653  54.205  0.00  0.00     0.042 A 
ATOM      9  C   UNL d   1      53.363  34.331  54.760  0.00  0.00     0.198 A 
ATOM     10  O   UNL d   1      52.170  32.899  52.288  0.00  0.00    -0.284 OA
ATOM     11  O   UNL d   1      53.631  34.788  55.389  0.00  0.00    -0.286 OA
ATOM     12  C   UNL d   1      52.059  34.513  53.018  0.00  0.00     0.000 C 
ENDROOT
BRANCH   1  13
ATOM     13  C   UNL d   1      53.076  31.415  52.754  0.00  0.00     0.053 C 
BRANCH  13  14
ATOM     14  C   UNL d   1      53.018  30.708  53.168  0.00  0.00     0.102 A 
ATOM     15  O   UNL d   1      52.312  30.334  53.380  0.00  0.00    -0.305 OA
ATOM     16  C   UNL d   1      52.511  29.644  53.788  0.00  0.00     0.123 A 
ATOM     17  C   UNL d   1      53.328  29.594  53.826  0.00  0.00     0.029 A 
ATOM     18  C   UNL d   1      53.646  30.256  53.440  0.00  0.00     0.027 A 
ENDBRANCH  13  14
ENDBRANCH   1  13
TORSDOF 2
ENDMDL
MODEL 2
REMARK VINA RESULT:      -9.6      1.230      3.532
REMARK  2 active torsions:
REMARK  status: ('A' for Active; 'I' for Inactive)
REMARK    1  A    between atoms: C_6  and  C_1 
REMARK    2  A    between atoms: C_8  and  C_6 
ROOT
ATOM      1  C   UNL d   1      52.474  33.531  52.918  0.00  0.00     0.141 A 
ATOM      2  C   UNL d   1      53.241  32.638  53.561  0.00  0.00     0.064 A 
ATOM      3  C   UNL d   1      53.057  33.442  53.496  0.00  0.00     0.220 A 
ATOM      4  C   UNL d   1      52.771  32.230  53.021  0.00  0.00     0.106 A 
ATOM      5  O   UNL d   1      52.295  32.775  52.621  0.00  0.00    -0.304 OA
ATOM      6  C   UNL d   1      53.778  32.229  54.044  0.00  0.00     0.008 A 
ATOM      7  C   UNL d   1      52.832  31.408  52.958  0.00  0.00     0.067 A 
ATOM      8  C   UNL d   1      53.839  31.410  53.981  0.00  0.00     0.042 A 
ATOM      9  C   UNL d   1      53.369  31.002  53.441  0.00  0.00     0.198 A 
ATOM     10  O   UNL d   1      53.397  34.057  53.936  0.00  0.00    -0.284 OA
ATOM     11  O   UNL d   1      53.429  30.183  53.377  0.00  0.00    -0.286 OA
ATOM     12  C   UNL d   1      54.248  32.642  54.584  0.00  0.00     0.000 C 
ENDROOT
BRANCH   1  13
ATOM     13  C   UNL d   1      52.127  34.238  52.673  0.00  0.00     0.053 C 
BRANCH  13  14
ATOM     14  C   UNL d   1      51.314  34.284  52.557  0.00  0.00     0.102 A 
ATOM     15  O   UNL d   1      50.749  34.356  53.155  0.00  0.00    -0.305 OA
ATOM     16  C   UNL d   1      50.008  34.383  52.792  0.00  0.00     0.123 A 
ATOM     17  C   UNL d   1      50.116  34.329  51.982  0.00  0.00     0.029 A 
ATOM     18  C   UNL d   1      50.929  34.267  51.833  0.00  0.00     0.027 A 
ENDBRANCH  13  14
ENDBRANCH   1  13
TORSDOF 2
ENDMDL
MODEL 3
REMARK VINA RESULT:      -9.5      0.960      1.740
REMARK  2 active torsions:
REMARK  status: ('A' for Active; 'I' for Inactive)
REMARK    1  A    between atoms: C_6  and  C_1 
REMARK    2  A    between atoms: C_8  and  C_6 
ROOT
ATOM      1  C   UNL d   1      53.170  32.351  53.254  0.00  0.00     0.141 A 
ATOM      2  C   UNL d   1      52.618  33.571  53.341  0.00  0.00     0.064 A 
ATOM      3  C   UNL d   1      53.311  33.137  53.466  0.00  0.00     0.220 A 
ATOM      4  C   UNL d   1      52.046  33.051  53.052  0.00  0.00     0.106 A 
ATOM      5  O   UNL d   1      52.381  32.297  52.997  0.00  0.00    -0.304 OA
ATOM      6  C   UNL d   1      52.437  34.373  53.455  0.00  0.00     0.008 A 
ATOM      7  C   UNL d   1      51.288  33.328  52.875  0.00  0.00     0.067 A 
ATOM      8  C   UNL d   1      51.681  34.648  53.278  0.00  0.00     0.042 A 
ATOM      9  C   UNL d   1      51.110  34.128  52.989  0.00  0.00     0.198 A 
ATOM     10  O   UNL d   1      54.028  33.437  53.753  0.00  0.00    -0.284 OA
ATOM     11  O   UNL d   1      50.354  34.402  52.812  0.00  0.00    -0.286 OA
ATOM     12  C   UNL d   1      53.011  34.891  53.745  0.00  0.00     0.000 C 
ENDROOT
BRANCH   1  13
ATOM     13  C   UNL d   1      53.708  31.727  53.290  0.00  0.00     0.053 C 
BRANCH  13  14
ATOM     14  C   UNL d   1      53.452  30.967  53.469  0.00  0.00     0.102 A 
ATOM     15  O   UNL d   1      53.403  30.645  54.228  0.00  0.00    -0.305 OA
ATOM     16  C   UNL d   1      53.121  29.873  54.151  0.00  0.00     0.123 A 
ATOM     17  C   UNL d   1      52.998  29.722  53.355  0.00  0.00     0.029 A 
ATOM     18  C   UNL d   1      53.204  30.402  52.928  0.00  0.00     0.027 A 
ENDBRANCH  13  14
ENDBRANCH   1  13
TORSDOF 2
ENDMDL
MODEL 4
REMARK VINA RESULT:      -9.3      1.604      2.934
REMARK  2 active torsions:
REMARK  status: ('A' for Active; 'I' for Inactive)
REMARK    1  A    between atoms: C_6  and  C_1 
REMARK    2  A    between atoms: C_8  and  C_6 
ROOT
ATOM      1  C   UNL d   1      52.266  33.061  53.482  0.00  0.00     0.141 A 
ATOM      2  C   UNL d   1      53.569  32.996  53.793  0.00  0.00     0.064 A 
ATOM      3  C   UNL d   1      52.984  32.701  53.289  0.00  0.00     0.220 A 
ATOM      4  C   UNL d   1      53.212  33.540  54.300  0.00  0.00     0.106 A 
ATOM      5  O   UNL d   1      52.407  33.584  54.113  0.00  0.00    -0.304 OA
ATOM      6  C   UNL d   1      54.382  32.837  53.853  0.00  0.00     0.008 A 
ATOM      7  C   UNL d   1      53.663  33.930  54.872  0.00  0.00     0.067 A 
ATOM      8  C   UNL d   1      54.831  33.226  54.423  0.00  0.00     0.042 A 
ATOM      9  C   UNL d   1      54.473  33.770  54.930  0.00  0.00     0.198 A 
ATOM     10  O   UNL d   1      53.094  32.139  52.689  0.00  0.00    -0.284 OA
ATOM     11  O   UNL d   1      54.921  34.160  55.500  0.00  0.00    -0.286 OA
ATOM     12  C   UNL d   1      54.736  32.292  53.344  0.00  0.00     0.000 C 
ENDROOT
BRANCH   1  13
ATOM     13  C   UNL d   1      51.536  32.930  53.121  0.00  0.00     0.053 C 
BRANCH  13  14
ATOM     14  C   UNL d   1      51.040  33.561  52.945  0.00  0.00     0.102 A 
ATOM     15  O   UNL d   1      50.447  33.856  53.438  0.00  0.00    -0.305 OA
ATOM     16  C   UNL d   1      50.089  34.486  53.044  0.00  0.00     0.123 A 
ATOM     17  C   UNL d   1      50.457  34.579  52.317  0.00  0.00     0.029 A 
ATOM     18  C   UNL d   1      51.050  34.003  52.253  0.00  0.00     0.027 A 
ENDBRANCH  13  14
ENDBRANCH   1  13
TORSDOF 2
ENDMDL
MODEL 5
REMARK VINA RESULT:      -8.9      1.302      3.714
REMARK  2 active torsions:
REMARK  status: ('A' for Active; 'I' for Inactive)
REMARK    1  A    between atoms: C_6  and  C_1 
REMARK    2  A    between atoms: C_8  and  C_6 
ROOT
ATOM      1  C   UNL d   1      53.534  32.080  53.858  0.00  0.00     0.141 A 
ATOM      2  C   UNL d   1      53.212  30.830  53.492  0.00  0.00     0.064 A 
ATOM      3  C   UNL d   1      53.245  31.617  53.239  0.00  0.00     0.220 A 
ATOM      4  C   UNL d   1      53.482  30.807  54.271  0.00  0.00     0.106 A 
ATOM      5  O   UNL d   1      53.683  31.575  54.503  0.00  0.00    -0.304 OA
ATOM      6  C   UNL d   1      52.970  30.134  53.110  0.00  0.00     0.008 A 
ATOM      7  C   UNL d   1      53.514  30.088  54.676  0.00  0.00     0.067 A 
ATOM      8  C   UNL d   1      53.002  29.417  53.514  0.00  0.00     0.042 A 
ATOM      9  C   UNL d   1      53.272  29.394  54.293  0.00  0.00     0.198 A 
ATOM     10  O   UNL d   1      53.025  31.898  52.490  0.00  0.00    -0.284 OA
ATOM     11  O   UNL d   1      53.304  28.678  54.698  0.00  0.00    -0.286 OA
ATOM     12  C   UNL d   1      52.700  30.161  52.330  0.00  0.00     0.000 C 
ENDROOT
BRANCH   1  13
ATOM     13  C   UNL d   1      53.657  32.896  53.849  0.00  0.00     0.053 C 
BRANCH  13  14
ATOM     14  C   UNL d   1      54.214  33.239  54.346  0.00  0.00     0.102 A 
ATOM     15  O   UNL d   1      55.030  33.247  54.218  0.00  0.00    -0.305 OA
ATOM     16  C   UNL d   1      55.375  33.647  54.852  0.00  0.00     0.123 A 
ATOM     17  C   UNL d   1      54.780  33.882  55.364  0.00  0.00     0.029 A 
ATOM     18  C   UNL d   1      54.055  33.628  55.051  0.00  0.00     0.027 A 
ENDBRANCH  13  14
ENDBRANCH   1  13
TORSDOF 2
ENDMDL
MODEL 6
REMARK VINA RESULT:      -8.2      1.653      2.884
REMARK  2 active torsions:
REMARK  status: ('A' for Active; 'I' for Inactive)
REMARK    1  A    between atoms: C_6  and  C_1 
REMARK    2  A    between atoms: C_8  and  C_6 
ROOT
ATOM      1  C   UNL d   1      53.350  33.158  53.593  0.00  0.00     0.141 A 
ATOM      2  C   UNL d   1      52.048  33.180  53.271  0.00  0.00     0.064 A 
ATOM      3  C   UNL d   1      52.696  32.687  53.414  0.00  0.00     0.220 A 
ATOM      4  C   UNL d   1      52.303  33.959  53.361  0.00  0.00     0.106 A 
ATOM      5  O   UNL d   1      53.106  33.952  53.560  0.00  0.00    -0.304 OA
ATOM      6  C   UNL d   1      51.260  33.016  53.070  0.00  0.00     0.008 A 
ATOM      7  C   UNL d   1      51.772  34.583  53.251  0.00  0.00     0.067 A 
ATOM      8  C   UNL d   1      50.731  33.638  52.960  0.00  0.00     0.042 A 
ATOM      9  C   UNL d   1      50.986  34.418  53.051  0.00  0.00     0.198 A 
ATOM     10  O   UNL d   1      52.694  31.858  53.385  0.00  0.00    -0.284 OA
ATOM     11  O   UNL d   1      50.458  35.040  52.941  0.00  0.00    -0.286 OA
ATOM     12  C   UNL d   1      51.008  32.235  52.981  0.00  0.00     0.000 C 
ENDROOT
BRANCH   1  13
ATOM     13  C   UNL d   1      54.112  32.897  53.772  0.00  0.00     0.053 C 
BRANCH  13  14
ATOM     14  C   UNL d   1      54.509  33.191  54.429  0.00  0.00     0.102 A 
ATOM     15  O   UNL d   1      54.315  33.032  55.216  0.00  0.00    -0.305 OA
ATOM     16  C   UNL d   1      54.855  33.439  55.690  0.00  0.00     0.123 A 
ATOM     17  C   UNL d   1      55.374  33.842  55.201  0.00  0.00     0.029 A 
ATOM     18  C   UNL d   1      55.161  33.689  54.415  0.00  0.00     0.027 A 
ENDBRANCH  13  14
ENDBRANCH   1  13
TORSDOF 2
ENDMDL
MODEL 7
REMARK VINA RESULT:      -7.6      0.831      3.778
REMARK  2 active torsions:
REMARK  status: ('A' for Active; 'I' for Inactive)
REMARK    1  A    between atoms: C_6  and  C_1 
REMARK    2  A    between atoms: C_8  and  C_6 
ROOT
ATOM      1  C   UNL d   1      53.405  32.714  53.242  0.00  0.00     0.141 A 
ATOM      2  C   UNL d   1      53.387  31.377  53.346  0.00  0.00     0.064 A 
ATOM      3  C   UNL d   1      53.877  32.042  53.331  0.00  0.00     0.220 A 
ATOM      4  C   UNL d   1      52.609  31.638  53.266  0.00  0.00     0.106 A 
ATOM      5  O   UNL d   1      52.613  32.462  53.201  0.00  0.00    -0.304 OA
ATOM      6  C   UNL d   1      53.553  30.567  53.423  0.00  0.00     0.008 A 
ATOM      7  C   UNL d   1      51.988  31.091  53.261  0.00  0.00     0.067 A 
ATOM      8  C   UNL d   1      52.934  30.023  53.418  0.00  0.00     0.042 A 
ATOM      9  C   UNL d   1      52.156  30.284  53.338  0.00  0.00     0.198 A 
ATOM     10  O   UNL d   1      54.704  32.041  53.394  0.00  0.00    -0.284 OA
ATOM     11  O   UNL d   1      51.537  29.742  53.333  0.00  0.00    -0.286 OA
ATOM     12  C   UNL d   1      54.334  30.309  53.503  0.00  0.00     0.000 C 
ENDROOT
BRANCH   1  13
ATOM     13  C   UNL d   1      53.663  33.496  53.200  0.00  0.00     0.053 C 
BRANCH  13  14
ATOM     14  C   UNL d   1      53.290  34.082  53.640  0.00  0.00     0.102 A 
ATOM     15  O   UNL d   1      53.374  34.196  54.454  0.00  0.00    -0.305 OA
ATOM     16  C   UNL d   1      52.903  34.841  54.663  0.00  0.00     0.123 A 
ATOM     17  C   UNL d   1      52.534  35.120  53.987  0.00  0.00     0.029 A 
ATOM     18  C   UNL d   1      52.773  34.648  53.348  0.00  0.00     0.027 A 
ENDBRANCH  13  14
ENDBRANCH   1  13
TORSDOF 2
ENDMDL
