MODEL 1
REMARK VINA RESULT:      81.2      0.000      0.000
REMARK  6 active torsions:
REMARK  status: ('A' for Active; 'I' for Inactive)
REMARK    1  A    between atoms: N_8  and  C_1 
REMARK    2  A    between atoms: C_6  and  N_2 
REMARK       I    between atoms: C_12  and  N_8 
REMARK    3  A    between atoms: C_20  and  C_12 
REMARK    4  A    between atoms: O_24  and  C_13 
REMARK    5  A    between atoms: O_25  and  C_15 
REMARK    6  A    between atoms: C_19  and  C_20 
ROOT
ATOM      1  C   UNL d   1     -58.227 -98.784 -42.819  0.00  0.00     0.169 A 
ATOM      2  N   UNL d   1     -58.750 -98.787 -43.460  0.00  0.00    -0.212 N 
ATOM      3  C   UNL d   1     -58.672 -98.781 -42.116  0.00  0.00     0.065 A 
ATOM      4  N   UNL d   1     -59.520 -98.786 -43.154  0.00  0.00    -0.163 NA
ATOM      5  C   UNL d   1     -59.470 -98.782 -42.326  0.00  0.00     0.114 A 
ATOM      6  S   UNL d   1     -59.401 -98.776 -40.992  0.00  0.00     0.091 S 
ATOM      7  C   UNL d   1     -59.924 -98.779 -41.633  0.00  0.00     0.090 A 
ATOM      8  C   UNL d   1     -58.627 -98.778 -41.294  0.00  0.00     0.073 A 
ATOM      9  O   UNL d   1     -59.610 -98.773 -40.190  0.00  0.00    -0.247 OA
ENDROOT
BRANCH   1  10
ATOM     10  N   UNL d   1     -57.399 -98.785 -42.863  0.00  0.00    -0.189 NA
ATOM     11  C   UNL d   1     -56.989 -99.482 -42.991  0.00  0.00     0.281 C 
ATOM     12  O   UNL d   1     -57.404-100.203 -43.079  0.00  0.00    -0.265 OA
BRANCH  11  13
ATOM     13  C   UNL d   1     -56.165 -99.485 -43.036  0.00  0.00     0.063 C 
BRANCH  13  14
ATOM     14  C   UNL d   1     -55.809 -99.820 -43.681  0.00  0.00     0.007 A 
ATOM     15  C   UNL d   1     -55.726-100.645 -43.740  0.00  0.00     0.026 A 
ATOM     16  C   UNL d   1     -55.362-100.981 -44.400  0.00  0.00     0.116 A 
ATOM     17  C   UNL d   1     -55.081-100.489 -45.002  0.00  0.00     0.116 A 
ATOM     18  C   UNL d   1     -55.158 -99.675 -44.953  0.00  0.00     0.026 A 
ATOM     19  C   UNL d   1     -55.524 -99.341 -44.289  0.00  0.00     0.002 A 
BRANCH  16  20
ATOM     20  O   UNL d   1     -55.281-101.794 -44.457  0.00  0.00    -0.326 OA
ATOM     21  C   UNL d   1     -55.214-102.251 -43.774  0.00  0.00     0.181 C 
ENDBRANCH  16  20
BRANCH  17  22
ATOM     22  O   UNL d   1     -54.717-100.824 -45.662  0.00  0.00    -0.326 OA
ATOM     23  C   UNL d   1     -54.781-100.465 -46.401  0.00  0.00     0.181 C 
ENDBRANCH  17  22
ENDBRANCH  13  14
ENDBRANCH  11  13
ENDBRANCH   1  10
BRANCH   2  24
ATOM     24  C   UNL d   1     -58.545 -98.790 -44.259  0.00  0.00     0.085 A 
ATOM     25  C   UNL d   1     -59.135 -98.816 -44.829  0.00  0.00     0.018 A 
ATOM     26  C   UNL d   1     -58.929 -98.820 -45.629  0.00  0.00     0.002 A 
ATOM     27  C   UNL d   1     -59.923 -98.839 -44.606  0.00  0.00     0.002 C 
ATOM     28  C   UNL d   1     -59.513 -98.845 -46.198  0.00  0.00     0.000 C 
ATOM     29  C   UNL d   1     -58.132 -98.797 -45.842  0.00  0.00     0.000 A 
ATOM     30  C   UNL d   1     -57.555 -98.771 -45.261  0.00  0.00     0.002 A 
ATOM     31  C   UNL d   1     -57.748 -98.768 -44.473  0.00  0.00     0.019 A 
ENDBRANCH   2  24
TORSDOF 6
ENDMDL
MODEL 2
REMARK VINA RESULT:      84.2      2.246      4.989
REMARK  6 active torsions:
REMARK  status: ('A' for Active; 'I' for Inactive)
REMARK    1  A    between atoms: N_8  and  C_1 
REMARK    2  A    between atoms: C_6  and  N_2 
REMARK       I    between atoms: C_12  and  N_8 
REMARK    3  A    between atoms: C_20  and  C_12 
REMARK    4  A    between atoms: O_24  and  C_13 
REMARK    5  A    between atoms: O_25  and  C_15 
REMARK    6  A    between atoms: C_19  and  C_20 
ROOT
ATOM      1  C   UNL d   1     -55.672-101.145 -44.737  0.00  0.00     0.169 A 
ATOM      2  N   UNL d   1     -55.199-101.475 -44.143  0.00  0.00    -0.212 N 
ATOM      3  C   UNL d   1     -55.684-101.668 -45.385  0.00  0.00     0.065 A 
ATOM      4  N   UNL d   1     -54.919-102.203 -44.423  0.00  0.00    -0.163 NA
ATOM      5  C   UNL d   1     -55.218-102.320 -45.187  0.00  0.00     0.114 A 
ATOM      6  S   UNL d   1     -55.696-102.518 -46.419  0.00  0.00     0.091 S 
ATOM      7  C   UNL d   1     -55.223-102.848 -45.825  0.00  0.00     0.090 A 
ATOM      8  C   UNL d   1     -55.980-101.788 -46.143  0.00  0.00     0.073 A 
ATOM      9  O   UNL d   1     -55.859-102.855 -47.159  0.00  0.00    -0.247 OA
ENDROOT
BRANCH   1  10
ATOM     10  N   UNL d   1     -56.068-100.418 -44.699  0.00  0.00    -0.189 NA
ATOM     11  C   UNL d   1     -55.652 -99.714 -44.741  0.00  0.00     0.281 C 
ATOM     12  O   UNL d   1     -54.820 -99.723 -44.823  0.00  0.00    -0.265 OA
BRANCH  11  13
ATOM     13  C   UNL d   1     -56.044 -98.989 -44.704  0.00  0.00     0.063 C 
BRANCH  13  14
ATOM     14  C   UNL d   1     -56.853 -98.980 -44.725  0.00  0.00     0.007 A 
ATOM     15  C   UNL d   1     -57.300 -99.174 -44.051  0.00  0.00     0.026 A 
ATOM     16  C   UNL d   1     -58.124 -99.163 -44.080  0.00  0.00     0.116 A 
ATOM     17  C   UNL d   1     -58.502 -98.958 -44.784  0.00  0.00     0.116 A 
ATOM     18  C   UNL d   1     -58.073 -98.766 -45.455  0.00  0.00     0.026 A 
ATOM     19  C   UNL d   1     -57.244 -98.778 -45.423  0.00  0.00     0.002 A 
BRANCH  16  20
ATOM     20  O   UNL d   1     -58.562 -99.354 -43.414  0.00  0.00    -0.326 OA
ATOM     21  C   UNL d   1     -58.771 -98.766 -42.875  0.00  0.00     0.181 C 
ENDBRANCH  16  20
BRANCH  17  22
ATOM     22  O   UNL d   1     -59.326 -98.947 -44.814  0.00  0.00    -0.326 OA
ATOM     23  C   UNL d   1     -59.731 -99.396 -45.374  0.00  0.00     0.181 C 
ENDBRANCH  17  22
ENDBRANCH  13  14
ENDBRANCH  11  13
ENDBRANCH   1  10
BRANCH   2  24
ATOM     24  C   UNL d   1     -55.036-101.142 -43.406  0.00  0.00     0.085 A 
ATOM     25  C   UNL d   1     -55.029-101.619 -42.738  0.00  0.00     0.018 A 
ATOM     26  C   UNL d   1     -54.865-101.285 -42.001  0.00  0.00     0.002 A 
ATOM     27  C   UNL d   1     -55.183-102.421 -42.803  0.00  0.00     0.002 C 
ATOM     28  C   UNL d   1     -54.857-101.756 -41.335  0.00  0.00     0.000 C 
ATOM     29  C   UNL d   1     -54.711-100.476 -41.948  0.00  0.00     0.000 A 
ATOM     30  C   UNL d   1     -54.722-100.014 -42.623  0.00  0.00     0.002 A 
ATOM     31  C   UNL d   1     -54.882-100.333 -43.352  0.00  0.00     0.019 A 
ENDBRANCH   2  24
TORSDOF 6
ENDMDL
