MODEL 1
REMARK VINA RESULT:      -0.2      0.000      0.000
REMARK  10 active torsions:
REMARK  status: ('A' for Active; 'I' for Inactive)
REMARK    1  A    between atoms: C_18  and  N_1 
REMARK    2  A    between atoms: S_7  and  C_2 
REMARK       I    between atoms: C_6  and  N_14 
REMARK    3  A    between atoms: C_9  and  C_6 
REMARK    4  A    between atoms: C_15  and  S_7 
REMARK    5  A    between atoms: C_8  and  C_15 
REMARK       I    between atoms: N_10  and  C_8 
REMARK    6  A    between atoms: C_19  and  N_10 
REMARK    7  A    between atoms: N_14  and  C_25 
REMARK    8  A    between atoms: C_25  and  C_18 
REMARK    9  A    between atoms: C_23  and  C_19 
REMARK   10  A    between atoms: O_27  and  C_20 
ROOT
ATOM      1  N   UNL d   1      58.618   0.637  31.628  0.00  0.00    -0.302 N 
ATOM      2  C   UNL d   1      59.011   0.601  30.341  0.00  0.00     0.049 A 
ATOM      3  C   UNL d   1      58.349   0.659  30.839  0.00  0.00     0.087 A 
ATOM      4  C   UNL d   1      59.689   0.543  30.821  0.00  0.00     0.024 A 
ATOM      5  C   UNL d   1      59.445   0.566  31.615  0.00  0.00     0.065 A 
ATOM      6  C   UNL d   1      60.495   0.473  30.641  0.00  0.00     0.002 A 
ATOM      7  C   UNL d   1      60.001   0.519  32.223  0.00  0.00     0.018 A 
ATOM      8  C   UNL d   1      61.047   0.427  31.247  0.00  0.00     0.000 A 
ATOM      9  C   UNL d   1      60.803   0.449  32.041  0.00  0.00     0.002 A 
ENDROOT
BRANCH   1  10
ATOM     10  C   UNL d   1      58.144   0.680  32.302  0.00  0.00     0.101 C 
BRANCH  10  11
ATOM     11  C   UNL d   1      57.583   0.095  32.448  0.00  0.00     0.121 C 
BRANCH  11  12
ATOM     12  N   UNL d   1      56.856   0.296  32.781  0.00  0.00    -0.205 NA
ATOM     13  C   UNL d   1      56.482  -0.220  33.305  0.00  0.00     0.279 C 
ATOM     14  O   UNL d   1      56.839  -0.941  33.496  0.00  0.00    -0.265 OA
BRANCH  13  15
ATOM     15  C   UNL d   1      55.755  -0.019  33.639  0.00  0.00     0.058 A 
ATOM     16  C   UNL d   1      55.125   0.234  33.148  0.00  0.00     0.007 A 
ATOM     17  C   UNL d   1      54.399   0.435  33.482  0.00  0.00     0.024 A 
ATOM     18  C   UNL d   1      54.308   0.381  34.303  0.00  0.00     0.094 A 
ATOM     19  C   UNL d   1      54.925   0.132  34.786  0.00  0.00     0.024 A 
ATOM     20  C   UNL d   1      55.647  -0.067  34.450  0.00  0.00     0.007 A 
BRANCH  18  21
ATOM     21  O   UNL d   1      53.574   0.582  34.654  0.00  0.00    -0.328 OA
ATOM     22  C   UNL d   1      52.891   0.674  34.198  0.00  0.00     0.181 C 
ENDBRANCH  18  21
ENDBRANCH  13  15
ENDBRANCH  11  12
ENDBRANCH  10  11
ENDBRANCH   1  10
BRANCH   2  23
ATOM     23  S   UNL d   1      59.004   0.600  29.516  0.00  0.00    -0.080 SA
BRANCH  23  24
ATOM     24  C   UNL d   1      59.287  -0.064  29.107  0.00  0.00     0.098 C 
BRANCH  24  25
ATOM     25  C   UNL d   1      58.760  -0.646  28.856  0.00  0.00     0.286 C 
ATOM     26  N   UNL d   1      58.975  -1.441  28.882  0.00  0.00    -0.204 NA
ATOM     27  O   UNL d   1      58.014  -0.433  28.577  0.00  0.00    -0.265 OA
BRANCH  26  28
ATOM     28  C   UNL d   1      58.444  -2.024  28.629  0.00  0.00     0.127 C 
BRANCH  28  29
ATOM     29  C   UNL d   1      58.650  -2.807  28.671  0.00  0.00     0.119 A 
ATOM     30  O   UNL d   1      58.183  -3.430  28.931  0.00  0.00    -0.304 OA
ATOM     31  C   UNL d   1      58.616  -4.132  28.880  0.00  0.00     0.123 A 
ATOM     32  C   UNL d   1      59.364  -3.945  28.584  0.00  0.00     0.029 A 
ATOM     33  C   UNL d   1      59.383  -3.138  28.457  0.00  0.00     0.028 A 
ENDBRANCH  28  29
ENDBRANCH  26  28
ENDBRANCH  24  25
ENDBRANCH  23  24
ENDBRANCH   2  23
TORSDOF 10
ENDMDL
