MODEL 1
REMARK VINA RESULT:      72.6      0.000      0.000
REMARK  5 active torsions:
REMARK  status: ('A' for Active; 'I' for Inactive)
REMARK    1  A    between atoms: C_2  and  C_1 
REMARK    2  A    between atoms: C_16  and  C_8 
REMARK    3  A    between atoms: N_15  and  C_13 
REMARK    4  A    between atoms: C_19  and  N_15 
REMARK    5  A    between atoms: C_20  and  N_15 
ROOT
ATOM      1  C   UNL d   1     -49.781  27.418  34.392  0.00  0.00     0.106 A 
ATOM      2  C   UNL d   1     -49.255  27.119  34.949  0.00  0.00     0.304 A 
ATOM      3  C   UNL d   1     -49.734  28.221  34.177  0.00  0.00     0.011 A 
ATOM      4  O   UNL d   1     -48.663  27.610  35.311  0.00  0.00    -0.273 OA
ATOM      5  C   UNL d   1     -48.644  28.416  35.070  0.00  0.00     0.105 A 
ATOM      6  C   UNL d   1     -49.170  28.716  34.514  0.00  0.00     0.023 A 
ATOM      7  C   UNL d   1     -48.052  28.907  35.433  0.00  0.00     0.042 A 
ATOM      8  C   UNL d   1     -48.031  29.718  35.193  0.00  0.00     0.066 A 
ATOM      9  O   UNL d   1     -49.307  26.289  35.168  0.00  0.00    -0.259 OA
ATOM     10  C   UNL d   1     -49.123  29.518  34.299  0.00  0.00     0.004 A 
ATOM     11  C   UNL d   1     -48.557  30.017  34.636  0.00  0.00     0.018 A 
ENDROOT
BRANCH   1  12
ATOM     12  C   UNL d   1     -50.349  26.914  34.055  0.00  0.00     0.210 A 
ATOM     13  O   UNL d   1     -50.455  26.096  34.164  0.00  0.00    -0.268 OA
ATOM     14  C   UNL d   1     -51.098  25.871  33.700  0.00  0.00     0.204 A 
ATOM     15  N   UNL d   1     -51.388  26.532  33.309  0.00  0.00    -0.121 NA
ATOM     16  N   UNL d   1     -50.931  27.183  33.522  0.00  0.00    -0.121 NA
BRANCH  14  17
ATOM     17  C   UNL d   1     -51.448  25.136  33.593  0.00  0.00     0.043 A 
ATOM     18  C   UNL d   1     -52.263  25.055  33.663  0.00  0.00     0.004 A 
ATOM     19  C   UNL d   1     -52.607  24.317  33.555  0.00  0.00     0.000 A 
ATOM     20  C   UNL d   1     -52.147  23.652  33.378  0.00  0.00     0.000 A 
ATOM     21  C   UNL d   1     -51.338  23.735  33.309  0.00  0.00     0.000 A 
ATOM     22  C   UNL d   1     -50.988  24.482  33.418  0.00  0.00     0.004 A 
ENDBRANCH  14  17
ENDBRANCH   1  12
BRANCH   8  23
ATOM     23  N   UNL d   1     -47.436  30.262  35.541  0.00  0.00    -0.304 N 
BRANCH  23  24
ATOM     24  C   UNL d   1     -47.545  31.087  35.427  0.00  0.00     0.080 C 
ATOM     25  C   UNL d   1     -47.396  31.454  34.707  0.00  0.00     0.021 C 
ENDBRANCH  23  24
BRANCH  23  26
ATOM     26  C   UNL d   1     -46.795  29.967  35.964  0.00  0.00     0.080 C 
ATOM     27  C   UNL d   1     -46.534  30.363  36.652  0.00  0.00     0.021 C 
ENDBRANCH  23  26
ENDBRANCH   8  23
TORSDOF 5
ENDMDL
MODEL 2
REMARK VINA RESULT:      75.0      1.218      1.821
REMARK  5 active torsions:
REMARK  status: ('A' for Active; 'I' for Inactive)
REMARK    1  A    between atoms: C_2  and  C_1 
REMARK    2  A    between atoms: C_16  and  C_8 
REMARK    3  A    between atoms: N_15  and  C_13 
REMARK    4  A    between atoms: C_19  and  N_15 
REMARK    5  A    between atoms: C_20  and  N_15 
ROOT
ATOM      1  C   UNL d   1     -49.205  28.344  34.089  0.00  0.00     0.106 A 
ATOM      2  C   UNL d   1     -49.656  28.963  33.789  0.00  0.00     0.304 A 
ATOM      3  C   UNL d   1     -48.496  28.513  34.490  0.00  0.00     0.011 A 
ATOM      4  O   UNL d   1     -49.415  29.774  33.880  0.00  0.00    -0.273 OA
ATOM      5  C   UNL d   1     -48.692  29.907  34.290  0.00  0.00     0.105 A 
ATOM      6  C   UNL d   1     -48.242  29.289  34.590  0.00  0.00     0.023 A 
ATOM      7  C   UNL d   1     -48.451  30.718  34.381  0.00  0.00     0.042 A 
ATOM      8  C   UNL d   1     -47.726  30.855  34.793  0.00  0.00     0.066 A 
ATOM      9  O   UNL d   1     -50.388  28.785  33.376  0.00  0.00    -0.259 OA
ATOM     10  C   UNL d   1     -47.532  29.457  34.991  0.00  0.00     0.004 A 
ATOM     11  C   UNL d   1     -47.275  30.236  35.092  0.00  0.00     0.018 A 
ENDROOT
BRANCH   1  12
ATOM     12  C   UNL d   1     -49.466  27.561  33.985  0.00  0.00     0.210 A 
ATOM     13  O   UNL d   1     -50.231  27.283  33.813  0.00  0.00    -0.268 OA
ATOM     14  C   UNL d   1     -50.184  26.461  33.769  0.00  0.00     0.204 A 
ATOM     15  N   UNL d   1     -49.410  26.230  33.910  0.00  0.00    -0.121 NA
ATOM     16  N   UNL d   1     -48.956  26.905  34.045  0.00  0.00    -0.121 NA
BRANCH  14  17
ATOM     17  C   UNL d   1     -50.766  25.901  33.615  0.00  0.00     0.043 A 
ATOM     18  C   UNL d   1     -51.545  26.137  33.508  0.00  0.00     0.004 A 
ATOM     19  C   UNL d   1     -52.122  25.573  33.355  0.00  0.00     0.000 A 
ATOM     20  C   UNL d   1     -51.932  24.769  33.306  0.00  0.00     0.000 A 
ATOM     21  C   UNL d   1     -51.156  24.537  33.412  0.00  0.00     0.000 A 
ATOM     22  C   UNL d   1     -50.571  25.108  33.567  0.00  0.00     0.004 A 
ENDBRANCH  14  17
ENDBRANCH   1  12
BRANCH   8  23
ATOM     23  N   UNL d   1     -47.438  31.677  34.910  0.00  0.00    -0.304 N 
BRANCH  23  24
ATOM     24  C   UNL d   1     -46.731  31.786  35.351  0.00  0.00     0.080 C 
ATOM     25  C   UNL d   1     -46.703  32.251  36.027  0.00  0.00     0.021 C 
ENDBRANCH  23  24
BRANCH  23  26
ATOM     26  C   UNL d   1     -47.851  32.315  34.595  0.00  0.00     0.080 C 
ATOM     27  C   UNL d   1     -47.545  32.720  33.931  0.00  0.00     0.021 C 
ENDBRANCH  23  26
ENDBRANCH   8  23
TORSDOF 5
ENDMDL
