MODEL 1
REMARK VINA RESULT:      -2.5      0.000      0.000
REMARK  4 active torsions:
REMARK  status: ('A' for Active; 'I' for Inactive)
REMARK    1  A    between atoms: C_2  and  C_1 
REMARK    2  A    between atoms: C_15  and  C_8 
REMARK    3  A    between atoms: C_9  and  C_15 
REMARK    4  A    between atoms: C_18  and  C_10 
ROOT
ATOM      1  C   UNL d   1     -41.996-122.751 -50.313  0.00  0.00     0.094 A 
ATOM      2  N   UNL d   1     -41.676-123.326 -50.812  0.00  0.00    -0.238 NA
ATOM      3  C   UNL d   1     -41.462-122.931 -51.512  0.00  0.00     0.113 A 
ATOM      4  S   UNL d   1     -41.649-122.114 -51.442  0.00  0.00    -0.066 SA
ATOM      5  C   UNL d   1     -41.979-122.020 -50.694  0.00  0.00     0.056 A 
ENDROOT
BRANCH   3   6
ATOM      6  C   UNL d   1     -41.123-123.275 -52.165  0.00  0.00     0.051 C 
BRANCH   6   7
ATOM      7  C   UNL d   1     -41.459-123.192 -52.903  0.00  0.00     0.113 A 
ATOM      8  N   UNL d   1     -41.381-122.600 -53.484  0.00  0.00    -0.238 NA
ATOM      9  C   UNL d   1     -41.863-122.812 -54.135  0.00  0.00     0.088 A 
ATOM     10  C   UNL d   1     -42.221-123.526 -53.935  0.00  0.00     0.056 A 
ATOM     11  S   UNL d   1     -41.986-123.763 -53.199  0.00  0.00    -0.066 SA
BRANCH   9  12
ATOM     12  C   UNL d   1     -41.945-122.379 -54.823  0.00  0.00     0.018 A 
ATOM     13  C   UNL d   1     -42.615-121.963 -54.980  0.00  0.00     0.002 A 
ATOM     14  C   UNL d   1     -42.694-121.530 -55.673  0.00  0.00     0.000 A 
ATOM     15  C   UNL d   1     -42.078-121.523 -56.209  0.00  0.00     0.000 A 
ATOM     16  C   UNL d   1     -41.399-121.941 -56.056  0.00  0.00     0.000 A 
ATOM     17  C   UNL d   1     -42.162-121.079 -56.916  0.00  0.00     0.000 C 
ATOM     18  C   UNL d   1     -41.330-122.367 -55.367  0.00  0.00     0.002 A 
ENDBRANCH   9  12
ENDBRANCH   6   7
ENDBRANCH   3   6
BRANCH   1  19
ATOM     19  C   UNL d   1     -42.267-122.977 -49.556  0.00  0.00     0.082 A 
ATOM     20  C   UNL d   1     -43.122-123.049 -49.385  0.00  0.00     0.302 A 
ATOM     21  O   UNL d   1     -43.370-123.275 -48.630  0.00  0.00    -0.273 OA
ATOM     22  O   UNL d   1     -43.726-122.893 -49.979  0.00  0.00    -0.259 OA
ATOM     23  C   UNL d   1     -42.808-123.435 -48.028  0.00  0.00     0.103 A 
ATOM     24  C   UNL d   1     -42.002-123.368 -48.188  0.00  0.00     0.023 A 
ATOM     25  C   UNL d   1     -43.095-123.658 -47.285  0.00  0.00     0.025 A 
ATOM     26  C   UNL d   1     -41.729-123.140 -48.948  0.00  0.00     0.009 A 
ATOM     27  C   UNL d   1     -41.446-123.528 -47.585  0.00  0.00     0.002 A 
ATOM     28  C   UNL d   1     -41.695-123.754 -46.829  0.00  0.00     0.000 A 
ATOM     29  C   UNL d   1     -42.537-123.818 -46.686  0.00  0.00     0.002 A 
ENDBRANCH   1  19
TORSDOF 4
ENDMDL
