MODEL 1
REMARK VINA RESULT:      -8.2      0.000      0.000
REMARK  6 active torsions:
REMARK  status: ('A' for Active; 'I' for Inactive)
REMARK    1  A    between atoms: C_6  and  N_2 
REMARK    2  A    between atoms: C_7  and  C_3 
REMARK    3  A    between atoms: C_8  and  C_6 
REMARK    4  A    between atoms: C_14  and  C_8 
REMARK    5  A    between atoms: C_9  and  O_12 
REMARK    6  A    between atoms: O_12  and  C_14 
ROOT
ATOM      1  N   UNL d   1      53.790  31.998  53.966  0.00  0.00    -0.224 NA
ATOM      2  N   UNL d   1      52.924  32.911  53.513  0.00  0.00    -0.286 N 
ATOM      3  C   UNL d   1      53.161  32.113  53.424  0.00  0.00     0.191 A 
ATOM      4  C   UNL d   1      53.388  33.268  54.084  0.00  0.00     0.083 A 
ATOM      5  C   UNL d   1      53.947  32.678  54.378  0.00  0.00     0.099 A 
ATOM      6  C   UNL d   1      53.387  34.027  54.379  0.00  0.00     0.019 A 
ATOM      7  C   UNL d   1      54.473  32.940  54.970  0.00  0.00     0.021 A 
ATOM      8  C   UNL d   1      53.927  34.211  54.954  0.00  0.00     0.002 A 
ATOM      9  C   UNL d   1      54.450  33.659  55.228  0.00  0.00     0.002 A 
ENDROOT
BRANCH   2  10
ATOM     10  C   UNL d   1      52.321  33.124  53.033  0.00  0.00     0.084 C 
BRANCH  10  11
ATOM     11  C   UNL d   1      51.728  33.646  53.268  0.00  0.00     0.046 C 
BRANCH  11  12
ATOM     12  C   UNL d   1      51.143  33.921  52.765  0.00  0.00     0.124 C 
BRANCH  12  13
ATOM     13  O   UNL d   1      50.474  34.309  53.028  0.00  0.00    -0.305 OA
BRANCH  13  14
ATOM     14  C   UNL d   1      49.854  34.530  52.532  0.00  0.00     0.100 A 
ATOM     15  C   UNL d   1      49.788  34.289  51.746  0.00  0.00     0.025 A 
ATOM     16  C   UNL d   1      49.169  34.511  51.251  0.00  0.00     0.002 A 
ATOM     17  C   UNL d   1      48.571  35.008  51.563  0.00  0.00     0.000 A 
ATOM     18  C   UNL d   1      48.615  35.266  52.358  0.00  0.00     0.002 A 
ATOM     19  C   UNL d   1      49.256  35.028  52.844  0.00  0.00     0.025 A 
ENDBRANCH  13  14
ENDBRANCH  12  13
ENDBRANCH  11  12
ENDBRANCH  10  11
ENDBRANCH   2  10
BRANCH   3  20
ATOM     20  C   UNL d   1      52.622  31.930  52.849  0.00  0.00     0.271 C 
ATOM     21  O   UNL d   1      52.658  31.174  52.484  0.00  0.00    -0.280 OA
ENDBRANCH   3  20
TORSDOF 6
ENDMDL
MODEL 2
REMARK VINA RESULT:      -8.1      1.164      2.032
REMARK  6 active torsions:
REMARK  status: ('A' for Active; 'I' for Inactive)
REMARK    1  A    between atoms: C_6  and  N_2 
REMARK    2  A    between atoms: C_7  and  C_3 
REMARK    3  A    between atoms: C_8  and  C_6 
REMARK    4  A    between atoms: C_14  and  C_8 
REMARK    5  A    between atoms: C_9  and  O_12 
REMARK    6  A    between atoms: O_12  and  C_14 
ROOT
ATOM      1  N   UNL d   1      53.898  34.439  55.040  0.00  0.00    -0.224 NA
ATOM      2  N   UNL d   1      52.981  34.334  54.070  0.00  0.00    -0.286 N 
ATOM      3  C   UNL d   1      53.306  34.866  54.629  0.00  0.00     0.191 A 
ATOM      4  C   UNL d   1      53.359  33.611  54.137  0.00  0.00     0.083 A 
ATOM      5  C   UNL d   1      53.951  33.679  54.763  0.00  0.00     0.099 A 
ATOM      6  C   UNL d   1      53.257  32.913  53.730  0.00  0.00     0.019 A 
ATOM      7  C   UNL d   1      54.399  32.991  54.915  0.00  0.00     0.021 A 
ATOM      8  C   UNL d   1      53.728  32.285  53.932  0.00  0.00     0.002 A 
ATOM      9  C   UNL d   1      54.281  32.349  54.517  0.00  0.00     0.002 A 
ENDROOT
BRANCH   2  10
ATOM     10  C   UNL d   1      52.400  34.649  53.622  0.00  0.00     0.084 C 
BRANCH  10  11
ATOM     11  C   UNL d   1      51.775  34.202  53.323  0.00  0.00     0.046 C 
BRANCH  11  12
ATOM     12  C   UNL d   1      51.148  34.525  52.907  0.00  0.00     0.124 C 
BRANCH  12  13
ATOM     13  O   UNL d   1      50.468  34.108  52.730  0.00  0.00    -0.305 OA
BRANCH  13  14
ATOM     14  C   UNL d   1      49.817  34.443  52.351  0.00  0.00     0.100 A 
ATOM     15  C   UNL d   1      49.287  34.956  52.721  0.00  0.00     0.025 A 
ATOM     16  C   UNL d   1      48.637  35.289  52.342  0.00  0.00     0.002 A 
ATOM     17  C   UNL d   1      48.506  35.098  51.537  0.00  0.00     0.000 A 
ATOM     18  C   UNL d   1      49.030  34.580  51.140  0.00  0.00     0.002 A 
ATOM     19  C   UNL d   1      49.686  34.252  51.546  0.00  0.00     0.025 A 
ENDBRANCH  13  14
ENDBRANCH  12  13
ENDBRANCH  11  12
ENDBRANCH  10  11
ENDBRANCH   2  10
BRANCH   3  20
ATOM     20  C   UNL d   1      52.835  35.494  54.428  0.00  0.00     0.271 C 
ATOM     21  O   UNL d   1      52.958  36.232  54.808  0.00  0.00    -0.280 OA
ENDBRANCH   3  20
TORSDOF 6
ENDMDL
MODEL 3
REMARK VINA RESULT:      -7.9      2.162      4.449
REMARK  6 active torsions:
REMARK  status: ('A' for Active; 'I' for Inactive)
REMARK    1  A    between atoms: C_6  and  N_2 
REMARK    2  A    between atoms: C_7  and  C_3 
REMARK    3  A    between atoms: C_8  and  C_6 
REMARK    4  A    between atoms: C_14  and  C_8 
REMARK    5  A    between atoms: C_9  and  O_12 
REMARK    6  A    between atoms: O_12  and  C_14 
ROOT
ATOM      1  N   UNL d   1      53.773  34.992  54.746  0.00  0.00    -0.224 NA
ATOM      2  N   UNL d   1      53.737  33.687  54.452  0.00  0.00    -0.286 N 
ATOM      3  C   UNL d   1      54.168  34.265  54.878  0.00  0.00     0.191 A 
ATOM      4  C   UNL d   1      53.105  34.046  54.075  0.00  0.00     0.083 A 
ATOM      5  C   UNL d   1      53.128  34.889  54.265  0.00  0.00     0.099 A 
ATOM      6  C   UNL d   1      52.522  33.740  53.596  0.00  0.00     0.019 A 
ATOM      7  C   UNL d   1      52.522  35.353  53.928  0.00  0.00     0.021 A 
ATOM      8  C   UNL d   1      51.966  34.251  53.304  0.00  0.00     0.002 A 
ATOM      9  C   UNL d   1      51.987  35.039  53.482  0.00  0.00     0.002 A 
ENDROOT
BRANCH   2  10
ATOM     10  C   UNL d   1      54.037  32.949  54.513  0.00  0.00     0.084 C 
BRANCH  10  11
ATOM     11  C   UNL d   1      53.977  32.391  53.909  0.00  0.00     0.046 C 
BRANCH  11  12
ATOM     12  C   UNL d   1      53.986  31.583  54.038  0.00  0.00     0.124 C 
BRANCH  12  13
ATOM     13  O   UNL d   1      53.879  31.035  53.443  0.00  0.00    -0.305 OA
BRANCH  13  14
ATOM     14  C   UNL d   1      53.470  30.326  53.546  0.00  0.00     0.100 A 
ATOM     15  C   UNL d   1      53.641  29.783  54.142  0.00  0.00     0.025 A 
ATOM     16  C   UNL d   1      53.232  29.076  54.245  0.00  0.00     0.002 A 
ATOM     17  C   UNL d   1      52.608  28.898  53.715  0.00  0.00     0.000 A 
ATOM     18  C   UNL d   1      52.416  29.434  53.101  0.00  0.00     0.002 A 
ATOM     19  C   UNL d   1      52.846  30.149  53.016  0.00  0.00     0.025 A 
ENDBRANCH  13  14
ENDBRANCH  12  13
ENDBRANCH  11  12
ENDBRANCH  10  11
ENDBRANCH   2  10
BRANCH   3  20
ATOM     20  C   UNL d   1      54.724  33.754  55.170  0.00  0.00     0.271 C 
ATOM     21  O   UNL d   1      55.364  34.063  55.618  0.00  0.00    -0.280 OA
ENDBRANCH   3  20
TORSDOF 6
ENDMDL
MODEL 4
REMARK VINA RESULT:      -7.8      1.627      4.124
REMARK  6 active torsions:
REMARK  status: ('A' for Active; 'I' for Inactive)
REMARK    1  A    between atoms: C_6  and  N_2 
REMARK    2  A    between atoms: C_7  and  C_3 
REMARK    3  A    between atoms: C_8  and  C_6 
REMARK    4  A    between atoms: C_14  and  C_8 
REMARK    5  A    between atoms: C_9  and  O_12 
REMARK    6  A    between atoms: O_12  and  C_14 
ROOT
ATOM      1  N   UNL d   1      52.118  35.163  53.291  0.00  0.00    -0.224 NA
ATOM      2  N   UNL d   1      52.243  33.831  53.312  0.00  0.00    -0.286 N 
ATOM      3  C   UNL d   1      51.859  34.461  52.915  0.00  0.00     0.191 A 
ATOM      4  C   UNL d   1      52.717  34.137  53.906  0.00  0.00     0.083 A 
ATOM      5  C   UNL d   1      52.636  34.998  53.892  0.00  0.00     0.099 A 
ATOM      6  C   UNL d   1      53.201  33.770  54.448  0.00  0.00     0.019 A 
ATOM      7  C   UNL d   1      53.082  35.413  54.462  0.00  0.00     0.021 A 
ATOM      8  C   UNL d   1      53.604  34.237  54.972  0.00  0.00     0.002 A 
ATOM      9  C   UNL d   1      53.529  35.042  54.959  0.00  0.00     0.002 A 
ENDROOT
BRANCH   2  10
ATOM     10  C   UNL d   1      52.060  33.108  53.026  0.00  0.00     0.084 C 
BRANCH  10  11
ATOM     11  C   UNL d   1      52.622  32.512  52.930  0.00  0.00     0.046 C 
BRANCH  11  12
ATOM     12  C   UNL d   1      52.435  31.716  52.910  0.00  0.00     0.124 C 
BRANCH  12  13
ATOM     13  O   UNL d   1      52.982  31.132  52.746  0.00  0.00    -0.305 OA
BRANCH  13  14
ATOM     14  C   UNL d   1      53.042  30.432  53.178  0.00  0.00     0.100 A 
ATOM     15  C   UNL d   1      52.463  29.845  53.179  0.00  0.00     0.025 A 
ATOM     16  C   UNL d   1      52.524  29.146  53.610  0.00  0.00     0.002 A 
ATOM     17  C   UNL d   1      53.212  29.025  54.073  0.00  0.00     0.000 A 
ATOM     18  C   UNL d   1      53.814  29.606  54.088  0.00  0.00     0.002 A 
ATOM     19  C   UNL d   1      53.730  30.310  53.640  0.00  0.00     0.025 A 
ENDBRANCH  13  14
ENDBRANCH  12  13
ENDBRANCH  11  12
ENDBRANCH  10  11
ENDBRANCH   2  10
BRANCH   3  20
ATOM     20  C   UNL d   1      51.457  33.994  52.391  0.00  0.00     0.271 C 
ATOM     21  O   UNL d   1      50.920  34.354  51.854  0.00  0.00    -0.280 OA
ENDBRANCH   3  20
TORSDOF 6
ENDMDL
MODEL 5
REMARK VINA RESULT:      -5.6      9.488     10.543
REMARK  6 active torsions:
REMARK  status: ('A' for Active; 'I' for Inactive)
REMARK    1  A    between atoms: C_6  and  N_2 
REMARK    2  A    between atoms: C_7  and  C_3 
REMARK    3  A    between atoms: C_8  and  C_6 
REMARK    4  A    between atoms: C_14  and  C_8 
REMARK    5  A    between atoms: C_9  and  O_12 
REMARK    6  A    between atoms: O_12  and  C_14 
ROOT
ATOM      1  N   UNL d   1      44.852  31.507  58.468  0.00  0.00    -0.224 NA
ATOM      2  N   UNL d   1      44.885  30.178  58.319  0.00  0.00    -0.286 N 
ATOM      3  C   UNL d   1      44.969  30.790  58.885  0.00  0.00     0.191 A 
ATOM      4  C   UNL d   1      44.724  30.507  57.588  0.00  0.00     0.083 A 
ATOM      5  C   UNL d   1      44.703  31.367  57.684  0.00  0.00     0.099 A 
ATOM      6  C   UNL d   1      44.596  30.163  56.861  0.00  0.00     0.019 A 
ATOM      7  C   UNL d   1      44.545  31.804  56.991  0.00  0.00     0.021 A 
ATOM      8  C   UNL d   1      44.448  30.652  56.232  0.00  0.00     0.002 A 
ATOM      9  C   UNL d   1      44.428  31.454  56.322  0.00  0.00     0.002 A 
ENDROOT
BRANCH   2  10
ATOM     10  C   UNL d   1      44.980  29.444  58.621  0.00  0.00     0.084 C 
BRANCH  10  11
ATOM     11  C   UNL d   1      45.170  28.792  58.155  0.00  0.00     0.046 C 
BRANCH  11  12
ATOM     12  C   UNL d   1      45.088  28.017  58.407  0.00  0.00     0.124 C 
BRANCH  12  13
ATOM     13  O   UNL d   1      45.415  27.382  58.011  0.00  0.00    -0.305 OA
BRANCH  13  14
ATOM     14  C   UNL d   1      45.102  26.620  58.041  0.00  0.00     0.100 A 
ATOM     15  C   UNL d   1      45.016  26.187  58.737  0.00  0.00     0.025 A 
ATOM     16  C   UNL d   1      44.704  25.426  58.765  0.00  0.00     0.002 A 
ATOM     17  C   UNL d   1      44.459  25.071  58.046  0.00  0.00     0.000 A 
ATOM     18  C   UNL d   1      44.536  25.490  57.326  0.00  0.00     0.002 A 
ATOM     19  C   UNL d   1      44.858  26.265  57.322  0.00  0.00     0.025 A 
ENDBRANCH  13  14
ENDBRANCH  12  13
ENDBRANCH  11  12
ENDBRANCH  10  11
ENDBRANCH   2  10
BRANCH   3  20
ATOM     20  C   UNL d   1      45.117  30.302  59.514  0.00  0.00     0.271 C 
ATOM     21  O   UNL d   1      45.174  30.636  60.282  0.00  0.00    -0.280 OA
ENDBRANCH   3  20
TORSDOF 6
ENDMDL
MODEL 6
REMARK VINA RESULT:      -5.6     10.654     11.274
REMARK  6 active torsions:
REMARK  status: ('A' for Active; 'I' for Inactive)
REMARK    1  A    between atoms: C_6  and  N_2 
REMARK    2  A    between atoms: C_7  and  C_3 
REMARK    3  A    between atoms: C_8  and  C_6 
REMARK    4  A    between atoms: C_14  and  C_8 
REMARK    5  A    between atoms: C_9  and  O_12 
REMARK    6  A    between atoms: O_12  and  C_14 
ROOT
ATOM      1  N   UNL d   1      44.429  30.347  63.090  0.00  0.00    -0.224 NA
ATOM      2  N   UNL d   1      44.455  30.256  61.755  0.00  0.00    -0.286 N 
ATOM      3  C   UNL d   1      44.400  30.802  62.388  0.00  0.00     0.191 A 
ATOM      4  C   UNL d   1      44.514  29.498  62.059  0.00  0.00     0.083 A 
ATOM      5  C   UNL d   1      44.497  29.557  62.922  0.00  0.00     0.099 A 
ATOM      6  C   UNL d   1      44.580  28.776  61.690  0.00  0.00     0.019 A 
ATOM      7  C   UNL d   1      44.552  28.834  63.335  0.00  0.00     0.021 A 
ATOM      8  C   UNL d   1      44.629  28.115  62.156  0.00  0.00     0.002 A 
ATOM      9  C   UNL d   1      44.613  28.171  62.962  0.00  0.00     0.002 A 
ENDROOT
BRANCH   2  10
ATOM     10  C   UNL d   1      44.436  30.595  61.032  0.00  0.00     0.084 C 
BRANCH  10  11
ATOM     11  C   UNL d   1      44.842  30.285  60.384  0.00  0.00     0.046 C 
BRANCH  11  12
ATOM     12  C   UNL d   1      44.683  30.496  59.610  0.00  0.00     0.124 C 
BRANCH  12  13
ATOM     13  O   UNL d   1      45.234  30.441  59.010  0.00  0.00    -0.305 OA
BRANCH  13  14
ATOM     14  C   UNL d   1      45.033  30.361  58.214  0.00  0.00     0.100 A 
ATOM     15  C   UNL d   1      44.868  30.998  57.717  0.00  0.00     0.025 A 
ATOM     16  C   UNL d   1      44.667  30.917  56.924  0.00  0.00     0.002 A 
ATOM     17  C   UNL d   1      44.627  30.144  56.602  0.00  0.00     0.000 A 
ATOM     18  C   UNL d   1      44.790  29.481  57.086  0.00  0.00     0.002 A 
ATOM     19  C   UNL d   1      44.993  29.588  57.893  0.00  0.00     0.025 A 
ENDBRANCH  13  14
ENDBRANCH  12  13
ENDBRANCH  11  12
ENDBRANCH  10  11
ENDBRANCH   2  10
BRANCH   3  20
ATOM     20  C   UNL d   1      44.352  31.463  61.921  0.00  0.00     0.271 C 
ATOM     21  O   UNL d   1      44.314  32.217  62.289  0.00  0.00    -0.280 OA
ENDBRANCH   3  20
TORSDOF 6
ENDMDL
MODEL 7
REMARK VINA RESULT:      -5.3     10.252     11.060
REMARK  6 active torsions:
REMARK  status: ('A' for Active; 'I' for Inactive)
REMARK    1  A    between atoms: C_6  and  N_2 
REMARK    2  A    between atoms: C_7  and  C_3 
REMARK    3  A    between atoms: C_8  and  C_6 
REMARK    4  A    between atoms: C_14  and  C_8 
REMARK    5  A    between atoms: C_9  and  O_12 
REMARK    6  A    between atoms: O_12  and  C_14 
ROOT
ATOM      1  N   UNL d   1      45.191  28.551  58.521  0.00  0.00    -0.224 NA
ATOM      2  N   UNL d   1      44.890  27.603  57.625  0.00  0.00    -0.286 N 
ATOM      3  C   UNL d   1      45.119  27.722  58.422  0.00  0.00     0.191 A 
ATOM      4  C   UNL d   1      44.825  28.328  57.253  0.00  0.00     0.083 A 
ATOM      5  C   UNL d   1      45.020  28.941  57.832  0.00  0.00     0.099 A 
ATOM      6  C   UNL d   1      44.623  28.523  56.489  0.00  0.00     0.019 A 
ATOM      7  C   UNL d   1      44.984  29.727  57.553  0.00  0.00     0.021 A 
ATOM      8  C   UNL d   1      44.609  29.308  56.289  0.00  0.00     0.002 A 
ATOM      9  C   UNL d   1      44.791  29.880  56.830  0.00  0.00     0.002 A 
ENDROOT
BRANCH   2  10
ATOM     10  C   UNL d   1      44.794  26.835  57.428  0.00  0.00     0.084 C 
BRANCH  10  11
ATOM     11  C   UNL d   1      45.023  26.530  56.697  0.00  0.00     0.046 C 
BRANCH  11  12
ATOM     12  C   UNL d   1      44.833  25.776  56.442  0.00  0.00     0.124 C 
BRANCH  12  13
ATOM     13  O   UNL d   1      45.125  25.450  55.753  0.00  0.00    -0.305 OA
BRANCH  13  14
ATOM     14  C   UNL d   1      44.934  24.692  55.493  0.00  0.00     0.100 A 
ATOM     15  C   UNL d   1      45.127  24.004  55.905  0.00  0.00     0.025 A 
ATOM     16  C   UNL d   1      44.935  23.248  55.645  0.00  0.00     0.002 A 
ATOM     17  C   UNL d   1      44.522  23.171  54.920  0.00  0.00     0.000 A 
ATOM     18  C   UNL d   1      44.316  23.853  54.482  0.00  0.00     0.002 A 
ATOM     19  C   UNL d   1      44.521  24.615  54.767  0.00  0.00     0.025 A 
ENDBRANCH  13  14
ENDBRANCH  12  13
ENDBRANCH  11  12
ENDBRANCH  10  11
ENDBRANCH   2  10
BRANCH   3  20
ATOM     20  C   UNL d   1      45.133  26.937  58.622  0.00  0.00     0.271 C 
ATOM     21  O   UNL d   1      45.236  26.725  59.428  0.00  0.00    -0.280 OA
ENDBRANCH   3  20
TORSDOF 6
ENDMDL
MODEL 8
REMARK VINA RESULT:      -5.2     10.258     10.975
REMARK  6 active torsions:
REMARK  status: ('A' for Active; 'I' for Inactive)
REMARK    1  A    between atoms: C_6  and  N_2 
REMARK    2  A    between atoms: C_7  and  C_3 
REMARK    3  A    between atoms: C_8  and  C_6 
REMARK    4  A    between atoms: C_14  and  C_8 
REMARK    5  A    between atoms: C_9  and  O_12 
REMARK    6  A    between atoms: O_12  and  C_14 
ROOT
ATOM      1  N   UNL d   1      44.636  31.397  60.461  0.00  0.00    -0.224 NA
ATOM      2  N   UNL d   1      44.605  30.199  59.866  0.00  0.00    -0.286 N 
ATOM      3  C   UNL d   1      44.632  31.022  59.712  0.00  0.00     0.191 A 
ATOM      4  C   UNL d   1      44.592  30.076  60.675  0.00  0.00     0.083 A 
ATOM      5  C   UNL d   1      44.612  30.851  61.060  0.00  0.00     0.099 A 
ATOM      6  C   UNL d   1      44.566  29.391  61.113  0.00  0.00     0.019 A 
ATOM      7  C   UNL d   1      44.603  30.840  61.894  0.00  0.00     0.021 A 
ATOM      8  C   UNL d   1      44.559  29.458  61.920  0.00  0.00     0.002 A 
ATOM      9  C   UNL d   1      44.578  30.181  62.280  0.00  0.00     0.002 A 
ENDROOT
BRANCH   2  10
ATOM     10  C   UNL d   1      44.598  29.747  59.207  0.00  0.00     0.084 C 
BRANCH  10  11
ATOM     11  C   UNL d   1      45.056  29.065  59.129  0.00  0.00     0.046 C 
BRANCH  11  12
ATOM     12  C   UNL d   1      44.986  28.544  58.502  0.00  0.00     0.124 C 
BRANCH  12  13
ATOM     13  O   UNL d   1      45.442  27.871  58.428  0.00  0.00    -0.305 OA
BRANCH  13  14
ATOM     14  C   UNL d   1      45.238  27.235  57.944  0.00  0.00     0.100 A 
ATOM     15  C   UNL d   1      44.932  26.524  58.227  0.00  0.00     0.025 A 
ATOM     16  C   UNL d   1      44.729  25.890  57.743  0.00  0.00     0.002 A 
ATOM     17  C   UNL d   1      44.838  25.972  56.917  0.00  0.00     0.000 A 
ATOM     18  C   UNL d   1      45.147  26.684  56.604  0.00  0.00     0.002 A 
ATOM     19  C   UNL d   1      45.347  27.317  57.117  0.00  0.00     0.025 A 
ENDBRANCH  13  14
ENDBRANCH  12  13
ENDBRANCH  11  12
ENDBRANCH  10  11
ENDBRANCH   2  10
BRANCH   3  20
ATOM     20  C   UNL d   1      44.639  30.955  58.905  0.00  0.00     0.271 C 
ATOM     21  O   UNL d   1      44.575  31.651  58.439  0.00  0.00    -0.280 OA
ENDBRANCH   3  20
TORSDOF 6
ENDMDL
