MODEL 1
REMARK VINA RESULT:      42.3      0.000      0.000
REMARK  8 active torsions:
REMARK  status: ('A' for Active; 'I' for Inactive)
REMARK    1  A    between atoms: S_5  and  C_2 
REMARK       I    between atoms: C_3  and  N_9 
REMARK    2  A    between atoms: C_16  and  C_3 
REMARK       I    between atoms: C_4  and  N_8 
REMARK    3  A    between atoms: C_17  and  C_4 
REMARK    4  A    between atoms: C_10  and  S_5 
REMARK    5  A    between atoms: S_11  and  C_6 
REMARK    6  A    between atoms: N_8  and  C_10 
REMARK    7  A    between atoms: N_9  and  C_12 
REMARK    8  A    between atoms: C_12  and  S_11 
ROOT
ATOM      1  N   UNL d   1      14.490  12.259  -1.289  0.00  0.00    -0.214 NA
ATOM      2  C   UNL d   1      13.847  11.978  -1.722  0.00  0.00     0.196 A 
ATOM      3  C   UNL d   1      14.410  12.352  -0.473  0.00  0.00     0.116 A 
ATOM      4  N   UNL d   1      13.124  11.787  -1.356  0.00  0.00    -0.220 NA
ATOM      5  C   UNL d   1      13.711  12.172  -0.092  0.00  0.00     0.047 A 
ATOM      6  C   UNL d   1      13.068  11.891  -0.525  0.00  0.00     0.103 A 
ENDROOT
BRANCH   2   7
ATOM      7  S   UNL d   1      13.878  11.865  -2.552  0.00  0.00    -0.027 SA
BRANCH   7   8
ATOM      8  C   UNL d   1      13.227  12.003  -3.016  0.00  0.00     0.141 C 
BRANCH   8   9
ATOM      9  N   UNL d   1      13.120  12.800  -3.298  0.00  0.00    -0.199 NA
ATOM     10  C   UNL d   1      13.227  12.954  -4.123  0.00  0.00     0.280 C 
ATOM     11  O   UNL d   1      13.431  12.339  -4.633  0.00  0.00    -0.265 OA
BRANCH  10  12
ATOM     12  C   UNL d   1      13.134  13.709  -4.437  0.00  0.00     0.058 A 
ATOM     13  C   UNL d   1      12.855  13.824  -5.205  0.00  0.00     0.005 A 
ATOM     14  C   UNL d   1      12.770  14.594  -5.499  0.00  0.00     0.000 A 
ATOM     15  C   UNL d   1      12.960  15.241  -5.030  0.00  0.00     0.000 A 
ATOM     16  C   UNL d   1      13.234  15.132  -4.276  0.00  0.00     0.000 A 
ATOM     17  C   UNL d   1      13.322  14.355  -3.973  0.00  0.00     0.005 A 
ENDBRANCH  10  12
ENDBRANCH   8   9
ENDBRANCH   7   8
ENDBRANCH   2   7
BRANCH   3  18
ATOM     18  S   UNL d   1      15.052  12.636  -0.030  0.00  0.00    -0.047 SA
BRANCH  18  19
ATOM     19  C   UNL d   1      15.547  13.212  -0.353  0.00  0.00     0.139 C 
BRANCH  19  20
ATOM     20  N   UNL d   1      15.318  14.000  -0.347  0.00  0.00    -0.199 NA
ATOM     21  C   UNL d   1      15.885  14.590  -0.404  0.00  0.00     0.280 C 
ATOM     22  O   UNL d   1      16.691  14.384  -0.468  0.00  0.00    -0.265 OA
BRANCH  21  23
ATOM     23  C   UNL d   1      15.657  15.383  -0.399  0.00  0.00     0.058 A 
ATOM     24  C   UNL d   1      16.171  15.964  -0.673  0.00  0.00     0.005 A 
ATOM     25  C   UNL d   1      15.967  16.762  -0.677  0.00  0.00     0.000 A 
ATOM     26  C   UNL d   1      15.223  16.996  -0.399  0.00  0.00     0.000 A 
ATOM     27  C   UNL d   1      14.677  16.423  -0.113  0.00  0.00     0.000 A 
ATOM     28  C   UNL d   1      14.910  15.619  -0.120  0.00  0.00     0.005 A 
ENDBRANCH  21  23
ENDBRANCH  19  20
ENDBRANCH  18  19
ENDBRANCH   3  18
TORSDOF 8
ENDMDL
MODEL 2
REMARK VINA RESULT:      42.3      1.634      4.376
REMARK  8 active torsions:
REMARK  status: ('A' for Active; 'I' for Inactive)
REMARK    1  A    between atoms: S_5  and  C_2 
REMARK       I    between atoms: C_3  and  N_9 
REMARK    2  A    between atoms: C_16  and  C_3 
REMARK       I    between atoms: C_4  and  N_8 
REMARK    3  A    between atoms: C_17  and  C_4 
REMARK    4  A    between atoms: C_10  and  S_5 
REMARK    5  A    between atoms: S_11  and  C_6 
REMARK    6  A    between atoms: N_8  and  C_10 
REMARK    7  A    between atoms: N_9  and  C_12 
REMARK    8  A    between atoms: C_12  and  S_11 
ROOT
ATOM      1  N   UNL d   1      12.951  13.853  -4.052  0.00  0.00    -0.214 NA
ATOM      2  C   UNL d   1      13.234  14.532  -4.425  0.00  0.00     0.196 A 
ATOM      3  C   UNL d   1      13.052  13.124  -4.424  0.00  0.00     0.116 A 
ATOM      4  N   UNL d   1      13.617  14.497  -5.164  0.00  0.00    -0.220 NA
ATOM      5  C   UNL d   1      13.424  13.064  -5.148  0.00  0.00     0.047 A 
ATOM      6  C   UNL d   1      13.707  13.742  -5.521  0.00  0.00     0.103 A 
ENDROOT
BRANCH   2   7
ATOM      7  S   UNL d   1      13.156  15.295  -4.089  0.00  0.00    -0.027 SA
BRANCH   7   8
ATOM      8  C   UNL d   1      13.808  15.709  -3.837  0.00  0.00     0.141 C 
BRANCH   8   9
ATOM      9  N   UNL d   1      13.966  15.701  -3.001  0.00  0.00    -0.199 NA
ATOM     10  C   UNL d   1      14.708  16.004  -2.727  0.00  0.00     0.280 C 
ATOM     11  O   UNL d   1      15.257  16.298  -3.268  0.00  0.00    -0.265 OA
BRANCH  10  12
ATOM     12  C   UNL d   1      14.901  16.016  -1.927  0.00  0.00     0.058 A 
ATOM     13  C   UNL d   1      14.710  16.661  -1.449  0.00  0.00     0.005 A 
ATOM     14  C   UNL d   1      14.915  16.649  -0.645  0.00  0.00     0.000 A 
ATOM     15  C   UNL d   1      15.305  16.001  -0.326  0.00  0.00     0.000 A 
ATOM     16  C   UNL d   1      15.493  15.367  -0.793  0.00  0.00     0.000 A 
ATOM     17  C   UNL d   1      15.288  15.373  -1.606  0.00  0.00     0.005 A 
ENDBRANCH  10  12
ENDBRANCH   8   9
ENDBRANCH   7   8
ENDBRANCH   2   7
BRANCH   3  18
ATOM     18  S   UNL d   1      12.769  12.435  -4.056  0.00  0.00    -0.047 SA
BRANCH  18  19
ATOM     19  C   UNL d   1      13.303  11.912  -3.706  0.00  0.00     0.139 C 
BRANCH  19  20
ATOM     20  N   UNL d   1      13.337  11.847  -2.888  0.00  0.00    -0.199 NA
ATOM     21  C   UNL d   1      14.045  11.990  -2.497  0.00  0.00     0.280 C 
ATOM     22  O   UNL d   1      14.723  12.201  -2.935  0.00  0.00    -0.265 OA
BRANCH  21  23
ATOM     23  C   UNL d   1      14.082  11.925  -1.676  0.00  0.00     0.058 A 
ATOM     24  C   UNL d   1      14.810  11.939  -1.292  0.00  0.00     0.005 A 
ATOM     25  C   UNL d   1      14.873  11.876  -0.473  0.00  0.00     0.000 A 
ATOM     26  C   UNL d   1      14.189  11.796  -0.014  0.00  0.00     0.000 A 
ATOM     27  C   UNL d   1      13.432  11.779  -0.380  0.00  0.00     0.000 A 
ATOM     28  C   UNL d   1      13.396  11.845  -1.214  0.00  0.00     0.005 A 
ENDBRANCH  21  23
ENDBRANCH  19  20
ENDBRANCH  18  19
ENDBRANCH   3  18
TORSDOF 8
ENDMDL
