MODEL 1
REMARK VINA RESULT:      -8.1      0.000      0.000
REMARK  3 active torsions:
REMARK  status: ('A' for Active; 'I' for Inactive)
REMARK    1  A    between atoms: N_10  and  C_3 
REMARK    2  A    between atoms: C_11  and  C_5 
REMARK    3  A    between atoms: C_15  and  N_10 
ROOT
ATOM      1  N   UNL d   1      52.965  32.359  53.459  0.00  0.00    -0.184 N 
ATOM      2  C   UNL d   1      53.254  31.654  53.818  0.00  0.00     0.168 A 
ATOM      3  C   UNL d   1      53.167  33.098  53.781  0.00  0.00     0.217 A 
ATOM      4  N   UNL d   1      52.287  31.580  52.475  0.00  0.00    -0.162 NA
ATOM      5  C   UNL d   1      53.058  30.933  53.505  0.00  0.00     0.055 A 
ATOM      6  N   UNL d   1      53.735  31.712  54.488  0.00  0.00    -0.227 NA
ATOM      7  C   UNL d   1      53.642  33.139  54.442  0.00  0.00     0.066 A 
ATOM      8  C   UNL d   1      52.572  30.885  52.830  0.00  0.00     0.104 A 
ATOM      9  C   UNL d   1      53.936  32.438  54.808  0.00  0.00     0.087 A 
ATOM     10  C   UNL d   1      53.929  33.767  54.875  0.00  0.00     0.006 A 
ATOM     11  C   UNL d   1      52.378  30.151  52.518  0.00  0.00     0.023 C 
ATOM     12  C   UNL d   1      54.395  32.653  55.456  0.00  0.00     0.019 A 
ATOM     13  C   UNL d   1      54.389  33.486  55.495  0.00  0.00     0.002 A 
ENDROOT
BRANCH   5  14
ATOM     14  C   UNL d   1      53.341  30.243  53.857  0.00  0.00     0.004 A 
ATOM     15  C   UNL d   1      54.050  29.908  53.602  0.00  0.00     0.000 A 
ATOM     16  C   UNL d   1      54.335  29.221  53.951  0.00  0.00     0.000 A 
ATOM     17  C   UNL d   1      53.907  28.861  54.562  0.00  0.00     0.000 A 
ATOM     18  C   UNL d   1      53.205  29.185  54.819  0.00  0.00     0.000 A 
ATOM     19  C   UNL d   1      52.919  29.883  54.463  0.00  0.00     0.000 A 
ENDBRANCH   5  14
BRANCH   3  20
ATOM     20  N   UNL d   1      52.877  33.812  53.420  0.00  0.00    -0.383 NA
BRANCH  20  21
ATOM     21  C   UNL d   1      52.586  34.517  53.061  0.00  0.00     0.134 C 
ATOM     22  C   UNL d   1      53.059  34.916  52.488  0.00  0.00     0.035 C 
ATOM     23  C   UNL d   1      51.819  34.819  53.280  0.00  0.00     0.035 C 
ENDBRANCH  20  21
ENDBRANCH   3  20
TORSDOF 3
ENDMDL
MODEL 2
REMARK VINA RESULT:      -7.6      1.367      4.087
REMARK  3 active torsions:
REMARK  status: ('A' for Active; 'I' for Inactive)
REMARK    1  A    between atoms: N_10  and  C_3 
REMARK    2  A    between atoms: C_11  and  C_5 
REMARK    3  A    between atoms: C_15  and  N_10 
ROOT
ATOM      1  N   UNL d   1      53.117  33.825  53.975  0.00  0.00    -0.184 N 
ATOM      2  C   UNL d   1      52.463  33.702  53.457  0.00  0.00     0.168 A 
ATOM      3  C   UNL d   1      53.648  33.203  54.122  0.00  0.00     0.217 A 
ATOM      4  N   UNL d   1      52.698  35.171  54.184  0.00  0.00    -0.162 NA
ATOM      5  C   UNL d   1      51.944  34.308  53.313  0.00  0.00     0.055 A 
ATOM      6  N   UNL d   1      52.364  32.961  53.104  0.00  0.00    -0.227 NA
ATOM      7  C   UNL d   1      53.536  32.478  53.766  0.00  0.00     0.066 A 
ATOM      8  C   UNL d   1      52.054  35.050  53.674  0.00  0.00     0.104 A 
ATOM      9  C   UNL d   1      52.885  32.346  53.247  0.00  0.00     0.087 A 
ATOM     10  C   UNL d   1      53.952  31.778  53.800  0.00  0.00     0.006 A 
ATOM     11  C   UNL d   1      51.524  35.659  53.523  0.00  0.00     0.023 C 
ATOM     12  C   UNL d   1      52.917  31.570  52.975  0.00  0.00     0.019 A 
ATOM     13  C   UNL d   1      53.588  31.217  53.325  0.00  0.00     0.002 A 
ENDROOT
BRANCH   5  14
ATOM     14  C   UNL d   1      51.305  34.187  52.807  0.00  0.00     0.004 A 
ATOM     15  C   UNL d   1      50.571  33.962  53.110  0.00  0.00     0.000 A 
ATOM     16  C   UNL d   1      49.932  33.841  52.609  0.00  0.00     0.000 A 
ATOM     17  C   UNL d   1      50.024  33.946  51.792  0.00  0.00     0.000 A 
ATOM     18  C   UNL d   1      50.745  34.169  51.484  0.00  0.00     0.000 A 
ATOM     19  C   UNL d   1      51.392  34.291  51.996  0.00  0.00     0.000 A 
ENDBRANCH   5  14
BRANCH   3  20
ATOM     20  N   UNL d   1      54.309  33.323  54.644  0.00  0.00    -0.383 NA
BRANCH  20  21
ATOM     21  C   UNL d   1      54.963  33.447  55.161  0.00  0.00     0.134 C 
ATOM     22  C   UNL d   1      54.864  33.326  55.990  0.00  0.00     0.035 C 
ATOM     23  C   UNL d   1      55.714  33.694  54.843  0.00  0.00     0.035 C 
ENDBRANCH  20  21
ENDBRANCH   3  20
TORSDOF 3
ENDMDL
MODEL 3
REMARK VINA RESULT:      -7.6      1.716      3.669
REMARK  3 active torsions:
REMARK  status: ('A' for Active; 'I' for Inactive)
REMARK    1  A    between atoms: N_10  and  C_3 
REMARK    2  A    between atoms: C_11  and  C_5 
REMARK    3  A    between atoms: C_15  and  N_10 
ROOT
ATOM      1  N   UNL d   1      52.222  34.142  53.515  0.00  0.00    -0.184 N 
ATOM      2  C   UNL d   1      52.925  33.874  53.896  0.00  0.00     0.168 A 
ATOM      3  C   UNL d   1      51.769  33.609  53.066  0.00  0.00     0.217 A 
ATOM      4  N   UNL d   1      52.439  35.452  54.036  0.00  0.00    -0.162 NA
ATOM      5  C   UNL d   1      53.367  34.393  54.335  0.00  0.00     0.055 A 
ATOM      6  N   UNL d   1      53.150  33.083  53.814  0.00  0.00    -0.227 NA
ATOM      7  C   UNL d   1      52.005  32.832  52.995  0.00  0.00     0.066 A 
ATOM      8  C   UNL d   1      53.131  35.188  54.411  0.00  0.00     0.104 A 
ATOM      9  C   UNL d   1      52.706  32.556  53.372  0.00  0.00     0.087 A 
ATOM     10  C   UNL d   1      51.685  32.194  52.602  0.00  0.00     0.006 A 
ATOM     11  C   UNL d   1      53.584  35.707  54.857  0.00  0.00     0.023 C 
ATOM     12  C   UNL d   1      52.800  31.757  53.202  0.00  0.00     0.019 A 
ATOM     13  C   UNL d   1      52.157  31.533  52.718  0.00  0.00     0.002 A 
ENDROOT
BRANCH   5  14
ATOM     14  C   UNL d   1      54.055  34.131  54.707  0.00  0.00     0.004 A 
ATOM     15  C   UNL d   1      54.019  33.812  55.467  0.00  0.00     0.000 A 
ATOM     16  C   UNL d   1      54.701  33.550  55.841  0.00  0.00     0.000 A 
ATOM     17  C   UNL d   1      55.431  33.607  55.453  0.00  0.00     0.000 A 
ATOM     18  C   UNL d   1      55.475  33.921  54.702  0.00  0.00     0.000 A 
ATOM     19  C   UNL d   1      54.780  34.186  54.326  0.00  0.00     0.000 A 
ENDBRANCH   5  14
BRANCH   3  20
ATOM     20  N   UNL d   1      51.059  33.876  52.680  0.00  0.00    -0.383 NA
BRANCH  20  21
ATOM     21  C   UNL d   1      50.357  34.145  52.300  0.00  0.00     0.134 C 
ATOM     22  C   UNL d   1      49.672  34.310  52.763  0.00  0.00     0.035 C 
ATOM     23  C   UNL d   1      50.346  34.247  51.453  0.00  0.00     0.035 C 
ENDBRANCH  20  21
ENDBRANCH   3  20
TORSDOF 3
ENDMDL
MODEL 4
REMARK VINA RESULT:      -7.1      1.261      2.359
REMARK  3 active torsions:
REMARK  status: ('A' for Active; 'I' for Inactive)
REMARK    1  A    between atoms: N_10  and  C_3 
REMARK    2  A    between atoms: C_11  and  C_5 
REMARK    3  A    between atoms: C_15  and  N_10 
ROOT
ATOM      1  N   UNL d   1      53.069  33.344  53.794  0.00  0.00    -0.184 N 
ATOM      2  C   UNL d   1      52.829  32.578  53.535  0.00  0.00     0.168 A 
ATOM      3  C   UNL d   1      52.548  33.987  53.715  0.00  0.00     0.217 A 
ATOM      4  N   UNL d   1      54.327  32.812  54.202  0.00  0.00    -0.162 NA
ATOM      5  C   UNL d   1      53.336  31.951  53.613  0.00  0.00     0.055 A 
ATOM      6  N   UNL d   1      52.077  32.483  53.205  0.00  0.00    -0.227 NA
ATOM      7  C   UNL d   1      51.810  33.876  53.387  0.00  0.00     0.066 A 
ATOM      8  C   UNL d   1      54.091  32.058  53.947  0.00  0.00     0.104 A 
ATOM      9  C   UNL d   1      51.562  33.114  53.125  0.00  0.00     0.087 A 
ATOM     10  C   UNL d   1      51.192  34.386  53.239  0.00  0.00     0.006 A 
ATOM     11  C   UNL d   1      54.599  31.416  54.021  0.00  0.00     0.023 C 
ATOM     12  C   UNL d   1      50.800  33.174  52.823  0.00  0.00     0.019 A 
ATOM     13  C   UNL d   1      50.570  33.974  52.896  0.00  0.00     0.002 A 
ENDROOT
BRANCH   5  14
ATOM     14  C   UNL d   1      53.101  31.201  53.359  0.00  0.00     0.004 A 
ATOM     15  C   UNL d   1      53.202  30.980  52.571  0.00  0.00     0.000 A 
ATOM     16  C   UNL d   1      52.970  30.235  52.314  0.00  0.00     0.000 A 
ATOM     17  C   UNL d   1      52.632  29.702  52.851  0.00  0.00     0.000 A 
ATOM     18  C   UNL d   1      52.529  29.913  53.632  0.00  0.00     0.000 A 
ATOM     19  C   UNL d   1      52.766  30.670  53.888  0.00  0.00     0.000 A 
ENDBRANCH   5  14
BRANCH   3  20
ATOM     20  N   UNL d   1      52.787  34.761  53.975  0.00  0.00    -0.383 NA
BRANCH  20  21
ATOM     21  C   UNL d   1      53.028  35.526  54.234  0.00  0.00     0.134 C 
ATOM     22  C   UNL d   1      53.540  35.986  53.747  0.00  0.00     0.035 C 
ATOM     23  C   UNL d   1      52.753  35.826  54.983  0.00  0.00     0.035 C 
ENDBRANCH  20  21
ENDBRANCH   3  20
TORSDOF 3
ENDMDL
MODEL 5
REMARK VINA RESULT:      -6.9      1.331      4.259
REMARK  3 active torsions:
REMARK  status: ('A' for Active; 'I' for Inactive)
REMARK    1  A    between atoms: N_10  and  C_3 
REMARK    2  A    between atoms: C_11  and  C_5 
REMARK    3  A    between atoms: C_15  and  N_10 
ROOT
ATOM      1  N   UNL d   1      53.321  32.384  53.812  0.00  0.00    -0.184 N 
ATOM      2  C   UNL d   1      53.161  33.196  53.975  0.00  0.00     0.168 A 
ATOM      3  C   UNL d   1      52.731  31.910  53.469  0.00  0.00     0.217 A 
ATOM      4  N   UNL d   1      54.639  32.538  54.333  0.00  0.00    -0.162 NA
ATOM      5  C   UNL d   1      53.736  33.659  54.309  0.00  0.00     0.055 A 
ATOM      6  N   UNL d   1      52.418  33.504  53.788  0.00  0.00    -0.227 NA
ATOM      7  C   UNL d   1      52.002  32.230  53.291  0.00  0.00     0.066 A 
ATOM      8  C   UNL d   1      54.482  33.337  54.493  0.00  0.00     0.104 A 
ATOM      9  C   UNL d   1      51.835  33.040  53.450  0.00  0.00     0.087 A 
ATOM     10  C   UNL d   1      51.329  31.912  52.960  0.00  0.00     0.006 A 
ATOM     11  C   UNL d   1      55.059  33.814  54.832  0.00  0.00     0.023 C 
ATOM     12  C   UNL d   1      51.064  33.201  53.214  0.00  0.00     0.019 A 
ATOM     13  C   UNL d   1      50.749  32.492  52.906  0.00  0.00     0.002 A 
ENDROOT
BRANCH   5  14
ATOM     14  C   UNL d   1      53.581  34.453  54.468  0.00  0.00     0.004 A 
ATOM     15  C   UNL d   1      53.314  34.682  55.215  0.00  0.00     0.000 A 
ATOM     16  C   UNL d   1      53.158  35.472  55.377  0.00  0.00     0.000 A 
ATOM     17  C   UNL d   1      53.269  36.043  54.787  0.00  0.00     0.000 A 
ATOM     18  C   UNL d   1      53.532  35.825  54.047  0.00  0.00     0.000 A 
ATOM     19  C   UNL d   1      53.689  35.022  53.886  0.00  0.00     0.000 A 
ENDBRANCH   5  14
BRANCH   3  20
ATOM     20  N   UNL d   1      52.888  31.090  53.303  0.00  0.00    -0.383 NA
BRANCH  20  21
ATOM     21  C   UNL d   1      53.048  30.278  53.142  0.00  0.00     0.134 C 
ATOM     22  C   UNL d   1      53.314  30.054  52.374  0.00  0.00     0.035 C 
ATOM     23  C   UNL d   1      52.939  29.695  53.754  0.00  0.00     0.035 C 
ENDBRANCH  20  21
ENDBRANCH   3  20
TORSDOF 3
ENDMDL
MODEL 6
REMARK VINA RESULT:      -6.5      2.206      3.836
REMARK  3 active torsions:
REMARK  status: ('A' for Active; 'I' for Inactive)
REMARK    1  A    between atoms: N_10  and  C_3 
REMARK    2  A    between atoms: C_11  and  C_5 
REMARK    3  A    between atoms: C_15  and  N_10 
ROOT
ATOM      1  N   UNL d   1      53.131  33.713  53.998  0.00  0.00    -0.184 N 
ATOM      2  C   UNL d   1      52.440  33.995  53.605  0.00  0.00     0.168 A 
ATOM      3  C   UNL d   1      53.569  34.230  54.480  0.00  0.00     0.217 A 
ATOM      4  N   UNL d   1      52.932  32.423  53.425  0.00  0.00    -0.162 NA
ATOM      5  C   UNL d   1      52.013  33.492  53.135  0.00  0.00     0.055 A 
ATOM      6  N   UNL d   1      52.212  34.782  53.708  0.00  0.00    -0.227 NA
ATOM      7  C   UNL d   1      53.330  35.004  54.571  0.00  0.00     0.066 A 
ATOM      8  C   UNL d   1      52.252  32.700  53.038  0.00  0.00     0.104 A 
ATOM      9  C   UNL d   1      52.641  35.293  54.182  0.00  0.00     0.087 A 
ATOM     10  C   UNL d   1      53.637  35.627  54.997  0.00  0.00     0.006 A 
ATOM     11  C   UNL d   1      51.813  32.197  52.559  0.00  0.00     0.023 C 
ATOM     12  C   UNL d   1      52.541  36.086  54.378  0.00  0.00     0.019 A 
ATOM     13  C   UNL d   1      53.168  36.292  54.889  0.00  0.00     0.002 A 
ENDROOT
BRANCH   5  14
ATOM     14  C   UNL d   1      51.337  33.767  52.750  0.00  0.00     0.004 A 
ATOM     15  C   UNL d   1      51.386  34.055  51.979  0.00  0.00     0.000 A 
ATOM     16  C   UNL d   1      50.716  34.330  51.593  0.00  0.00     0.000 A 
ATOM     17  C   UNL d   1      49.984  34.318  51.981  0.00  0.00     0.000 A 
ATOM     18  C   UNL d   1      49.926  34.034  52.743  0.00  0.00     0.000 A 
ATOM     19  C   UNL d   1      50.609  33.756  53.132  0.00  0.00     0.000 A 
ENDBRANCH   5  14
BRANCH   3  20
ATOM     20  N   UNL d   1      54.267  33.949  54.878  0.00  0.00    -0.383 NA
BRANCH  20  21
ATOM     21  C   UNL d   1      54.957  33.667  55.272  0.00  0.00     0.134 C 
ATOM     22  C   UNL d   1      54.883  33.312  56.033  0.00  0.00     0.035 C 
ATOM     23  C   UNL d   1      55.719  33.743  54.898  0.00  0.00     0.035 C 
ENDBRANCH  20  21
ENDBRANCH   3  20
TORSDOF 3
ENDMDL
MODEL 7
REMARK VINA RESULT:      -5.6      1.169      3.900
REMARK  3 active torsions:
REMARK  status: ('A' for Active; 'I' for Inactive)
REMARK    1  A    between atoms: N_10  and  C_3 
REMARK    2  A    between atoms: C_11  and  C_5 
REMARK    3  A    between atoms: C_15  and  N_10 
ROOT
ATOM      1  N   UNL d   1      52.724  32.525  53.335  0.00  0.00    -0.184 N 
ATOM      2  C   UNL d   1      52.863  33.279  53.684  0.00  0.00     0.168 A 
ATOM      3  C   UNL d   1      53.056  31.845  53.679  0.00  0.00     0.217 A 
ATOM      4  N   UNL d   1      51.933  33.140  52.320  0.00  0.00    -0.162 NA
ATOM      5  C   UNL d   1      52.538  33.943  53.350  0.00  0.00     0.055 A 
ATOM      6  N   UNL d   1      53.329  33.328  54.365  0.00  0.00    -0.227 NA
ATOM      7  C   UNL d   1      53.514  31.910  54.350  0.00  0.00     0.066 A 
ATOM      8  C   UNL d   1      52.070  33.883  52.664  0.00  0.00     0.104 A 
ATOM      9  C   UNL d   1      53.658  32.660  54.705  0.00  0.00     0.087 A 
ATOM     10  C   UNL d   1      53.906  31.357  54.803  0.00  0.00     0.006 A 
ATOM     11  C   UNL d   1      51.745  34.560  52.332  0.00  0.00     0.023 C 
ATOM     12  C   UNL d   1      54.134  32.551  55.368  0.00  0.00     0.019 A 
ATOM     13  C   UNL d   1      54.288  31.733  55.426  0.00  0.00     0.002 A 
ENDROOT
BRANCH   5  14
ATOM     14  C   UNL d   1      52.674  34.681  53.692  0.00  0.00     0.004 A 
ATOM     15  C   UNL d   1      53.330  35.129  53.466  0.00  0.00     0.000 A 
ATOM     16  C   UNL d   1      53.468  35.864  53.804  0.00  0.00     0.000 A 
ATOM     17  C   UNL d   1      52.946  36.159  54.376  0.00  0.00     0.000 A 
ATOM     18  C   UNL d   1      52.296  35.724  54.604  0.00  0.00     0.000 A 
ATOM     19  C   UNL d   1      52.159  34.977  54.259  0.00  0.00     0.000 A 
ENDBRANCH   5  14
BRANCH   3  20
ATOM     20  N   UNL d   1      52.918  31.082  53.329  0.00  0.00    -0.383 NA
BRANCH  20  21
ATOM     21  C   UNL d   1      52.777  30.326  52.983  0.00  0.00     0.134 C 
ATOM     22  C   UNL d   1      53.259  30.068  52.341  0.00  0.00     0.035 C 
ATOM     23  C   UNL d   1      52.150  29.833  53.283  0.00  0.00     0.035 C 
ENDBRANCH  20  21
ENDBRANCH   3  20
TORSDOF 3
ENDMDL
