MODEL 1
REMARK VINA RESULT:      -2.3      0.000      0.000
REMARK  5 active torsions:
REMARK  status: ('A' for Active; 'I' for Inactive)
REMARK    1  A    between atoms: N_5  and  C_1 
REMARK    2  A    between atoms: N_8  and  C_2 
REMARK    3  A    between atoms: C_26  and  N_4 
REMARK    4  A    between atoms: C_22  and  N_9 
REMARK    5  A    between atoms: C_21  and  C_22 
ROOT
ATOM      1  C   UNL d   1      58.847  -1.893  29.458  0.00  0.00     0.199 A 
ATOM      2  C   UNL d   1      58.982  -1.092  29.639  0.00  0.00     0.092 A 
ATOM      3  C   UNL d   1      59.420  -2.337  29.065  0.00  0.00     0.288 A 
ATOM      4  N   UNL d   1      60.138  -1.978  28.850  0.00  0.00    -0.272 N 
ATOM      5  C   UNL d   1      59.702  -0.741  29.420  0.00  0.00     0.034 A 
ATOM      6  C   UNL d   1      60.278  -1.184  29.026  0.00  0.00     0.068 A 
ATOM      7  O   UNL d   1      59.280  -3.129  28.889  0.00  0.00    -0.265 OA
ATOM      8  C   UNL d   1      59.842   0.053  29.596  0.00  0.00     0.003 A 
ATOM      9  C   UNL d   1      60.991  -0.833  28.810  0.00  0.00     0.018 A 
ATOM     10  C   UNL d   1      60.558   0.403  29.379  0.00  0.00     0.000 A 
ATOM     11  C   UNL d   1      61.131  -0.039  28.986  0.00  0.00     0.002 A 
ENDROOT
BRANCH   2  12
ATOM     12  N   UNL d   1      58.417  -0.649  30.028  0.00  0.00    -0.300 N 
ATOM     13  C   UNL d   1      58.095  -0.930  30.733  0.00  0.00     0.100 A 
ATOM     14  C   UNL d   1      57.520  -0.486  31.134  0.00  0.00     0.100 A 
ATOM     15  N   UNL d   1      57.269   0.239  30.830  0.00  0.00    -0.300 N 
ATOM     16  C   UNL d   1      57.592   0.522  30.121  0.00  0.00     0.100 A 
ATOM     17  C   UNL d   1      58.164   0.076  29.726  0.00  0.00     0.100 A 
BRANCH  15  18
ATOM     18  C   UNL d   1      56.699   0.682  31.225  0.00  0.00     0.080 C 
BRANCH  18  19
ATOM     19  C   UNL d   1      56.660   0.659  32.047  0.00  0.00     0.020 A 
ATOM     20  C   UNL d   1      55.928   0.616  32.422  0.00  0.00     0.028 A 
ATOM     21  C   UNL d   1      55.889   0.594  33.244  0.00  0.00     0.119 A 
ATOM     22  O   UNL d   1      55.252   0.552  33.764  0.00  0.00    -0.300 OA
ATOM     23  C   UNL d   1      56.582   0.615  33.692  0.00  0.00     0.119 A 
ATOM     24  C   UNL d   1      55.548   0.547  34.536  0.00  0.00     0.304 A 
ATOM     25  O   UNL d   1      56.373   0.586  34.492  0.00  0.00    -0.300 OA
ATOM     26  C   UNL d   1      57.316   0.658  33.313  0.00  0.00     0.026 A 
ATOM     27  C   UNL d   1      57.355   0.681  32.491  0.00  0.00     0.004 A 
ENDBRANCH  18  19
ENDBRANCH  15  18
ENDBRANCH   2  12
BRANCH   1  28
ATOM     28  N   UNL d   1      58.128  -2.244  29.677  0.00  0.00    -0.107 N 
ATOM     29  O   UNL d   1      57.503  -2.268  29.140  0.00  0.00    -0.531 OA
ATOM     30  O   UNL d   1      58.036  -2.570  30.432  0.00  0.00    -0.531 OA
ENDBRANCH   1  28
BRANCH   4  31
ATOM     31  C   UNL d   1      60.711  -2.420  28.457  0.00  0.00     0.083 C 
ATOM     32  C   UNL d   1      61.019  -3.108  28.805  0.00  0.00     0.021 C 
ENDBRANCH   4  31
TORSDOF 5
ENDMDL
