MODEL 1
REMARK VINA RESULT:      31.6      0.000      0.000
REMARK  3 active torsions:
REMARK  status: ('A' for Active; 'I' for Inactive)
REMARK    1  A    between atoms: C_7  and  N_1 
REMARK    2  A    between atoms: C_2  and  C_5 
REMARK    3  A    between atoms: N_3  and  C_2 
REMARK       I    between atoms: C_6  and  N_4 
ROOT
ATOM      1  C   UNL d   1     -55.702 -99.343 -44.440  0.00  0.00     0.120 C 
ATOM      2  S   UNL d   1     -55.215 -98.756 -44.756  0.00  0.00    -0.059 SA
ENDROOT
BRANCH   1   3
ATOM      3  C   UNL d   1     -55.371-100.064 -44.188  0.00  0.00     0.028 A 
ATOM      4  C   UNL d   1     -55.369-100.716 -44.696  0.00  0.00     0.026 A 
ATOM      5  C   UNL d   1     -55.042-101.432 -44.449  0.00  0.00     0.127 A 
ATOM      6  C   UNL d   1     -54.716-101.496 -43.694  0.00  0.00     0.024 A 
ATOM      7  C   UNL d   1     -54.718-100.844 -43.186  0.00  0.00     0.002 A 
ATOM      8  C   UNL d   1     -55.046-100.128 -43.432  0.00  0.00     0.002 A 
BRANCH   5   9
ATOM      9  N   UNL d   1     -55.038-102.087 -44.955  0.00  0.00    -0.114 N 
ATOM     10  O   UNL d   1     -54.749-102.027 -45.727  0.00  0.00    -0.532 OA
ATOM     11  O   UNL d   1     -55.329-102.806 -44.674  0.00  0.00    -0.532 OA
ENDBRANCH   5   9
ENDBRANCH   1   3
BRANCH   1  12
ATOM     12  N   UNL d   1     -56.515 -99.216 -44.374  0.00  0.00    -0.293 N 
ATOM     13  C   UNL d   1     -56.983 -99.168 -45.056  0.00  0.00     0.100 A 
ATOM     14  C   UNL d   1     -57.795 -99.040 -44.990  0.00  0.00     0.102 A 
ATOM     15  N   UNL d   1     -58.144 -98.961 -44.244  0.00  0.00    -0.269 N 
ATOM     16  C   UNL d   1     -57.676 -99.010 -43.563  0.00  0.00     0.102 A 
ATOM     17  C   UNL d   1     -58.956 -98.834 -44.179  0.00  0.00     0.265 C 
ATOM     18  C   UNL d   1     -56.863 -99.137 -43.628  0.00  0.00     0.100 A 
ATOM     19  O   UNL d   1     -59.304 -98.755 -43.433  0.00  0.00    -0.267 OA
ATOM     20  C   UNL d   1     -59.422 -98.786 -44.856  0.00  0.00     0.066 C 
ENDBRANCH   1  12
TORSDOF 3
ENDMDL
