MODEL 1
REMARK VINA RESULT:      50.6      0.000      0.000
REMARK  7 active torsions:
REMARK  status: ('A' for Active; 'I' for Inactive)
REMARK    1  A    between atoms: S_2  and  C_1 
REMARK    2  A    between atoms: C_7  and  S_2 
REMARK    3  A    between atoms: C_9  and  N_3 
REMARK    4  A    between atoms: C_11  and  C_7 
REMARK    5  A    between atoms: C_8  and  C_9 
REMARK       I    between atoms: N_10  and  C_8 
REMARK       I    between atoms: N_15  and  C_11 
REMARK    6  A    between atoms: C_12  and  C_16 
REMARK    7  A    between atoms: C_23  and  N_15 
ROOT
ATOM      1  C   UNL d   1      46.055 -18.286  42.312  0.00  0.00     0.107 A 
ATOM      2  N   UNL d   1      46.266 -17.617  43.442  0.00  0.00    -0.299 N 
ATOM      3  C   UNL d   1      46.081 -17.528  42.645  0.00  0.00     0.092 A 
ATOM      4  C   UNL d   1      46.224 -18.833  42.904  0.00  0.00     0.028 A 
ATOM      5  C   UNL d   1      46.354 -18.415  43.605  0.00  0.00     0.065 A 
ATOM      6  C   UNL d   1      46.275 -19.653  42.895  0.00  0.00     0.002 A 
ATOM      7  C   UNL d   1      46.536 -18.827  44.295  0.00  0.00     0.018 A 
ATOM      8  C   UNL d   1      46.458 -20.068  43.588  0.00  0.00     0.000 A 
ATOM      9  C   UNL d   1      46.588 -19.648  44.287  0.00  0.00     0.002 A 
ENDROOT
BRANCH   1  10
ATOM     10  S   UNL d   1      45.889 -18.460  41.520  0.00  0.00     0.217 S 
ATOM     11  O   UNL d   1      46.647 -18.730  41.374  0.00  0.00    -0.217 OA
ATOM     12  O   UNL d   1      45.119 -18.186  41.671  0.00  0.00    -0.217 OA
BRANCH  10  13
ATOM     13  C   UNL d   1      45.716 -18.634  40.728  0.00  0.00     0.161 C 
BRANCH  13  14
ATOM     14  C   UNL d   1      45.654 -18.030  40.184  0.00  0.00     0.291 C 
ATOM     15  N   UNL d   1      45.082 -18.059  39.592  0.00  0.00    -0.207 NA
ATOM     16  O   UNL d   1      46.169 -17.384  40.225  0.00  0.00    -0.264 OA
BRANCH  15  17
ATOM     17  C   UNL d   1      45.023 -17.446  39.044  0.00  0.00     0.085 A 
ATOM     18  C   UNL d   1      44.282 -17.204  38.767  0.00  0.00     0.019 A 
ATOM     19  C   UNL d   1      44.215 -16.594  38.221  0.00  0.00     0.006 A 
ATOM     20  C   UNL d   1      44.899 -16.212  37.939  0.00  0.00     0.059 A 
ATOM     21  C   UNL d   1      45.644 -16.446  38.208  0.00  0.00     0.006 A 
ATOM     22  C   UNL d   1      45.708 -17.067  38.765  0.00  0.00     0.019 A 
BRANCH  20  23
ATOM     23  C   UNL d   1      44.843 -15.605  37.395  0.00  0.00     0.297 C 
ATOM     24  O   UNL d   1      44.113 -15.389  37.070  0.00  0.00    -0.264 OA
ATOM     25  N   UNL d   1      45.535 -15.194  37.163  0.00  0.00    -0.102 N 
ENDBRANCH  20  23
ENDBRANCH  15  17
ENDBRANCH  13  14
ENDBRANCH  10  13
ENDBRANCH   1  10
BRANCH   2  26
ATOM     26  C   UNL d   1      46.348 -17.004  43.986  0.00  0.00     0.142 C 
BRANCH  26  27
ATOM     27  C   UNL d   1      45.681 -16.651  44.314  0.00  0.00     0.282 C 
ATOM     28  N   UNL d   1      45.676 -15.842  44.470  0.00  0.00    -0.271 N 
ATOM     29  C   UNL d   1      46.338 -15.377  44.299  0.00  0.00     0.083 A 
ATOM     30  C   UNL d   1      45.010 -15.490  44.797  0.00  0.00     0.083 A 
ATOM     31  C   UNL d   1      46.333 -14.564  44.456  0.00  0.00     0.019 A 
ATOM     32  C   UNL d   1      45.666 -14.217  44.783  0.00  0.00     0.003 A 
ATOM     33  C   UNL d   1      45.005 -14.673  44.954  0.00  0.00     0.019 A 
ATOM     34  O   UNL d   1      45.020 -17.108  44.486  0.00  0.00    -0.265 OA
ENDBRANCH  26  27
ENDBRANCH   2  26
TORSDOF 7
ENDMDL
