MODEL 1
REMARK VINA RESULT:      89.4      0.000      0.000
REMARK  6 active torsions:
REMARK  status: ('A' for Active; 'I' for Inactive)
REMARK    1  A    between atoms: N_7  and  C_1 
REMARK    2  A    between atoms: S_2  and  C_14 
REMARK    3  A    between atoms: N_9  and  S_2 
REMARK       I    between atoms: C_11  and  N_7 
REMARK       I    between atoms: C_10  and  N_8 
REMARK    4  A    between atoms: O_27  and  C_10 
REMARK    5  A    between atoms: C_19  and  C_11 
REMARK    6  A    between atoms: C_30  and  O_27 
ROOT
ATOM      1  C   UNL d   1      14.372  15.786  -3.745  0.00  0.00     0.099 A 
ATOM      2  C   UNL d   1      14.463  15.487  -2.980  0.00  0.00     0.091 A 
ATOM      3  C   UNL d   1      14.051  14.475  -3.751  0.00  0.00     0.049 A 
ATOM      4  C   UNL d   1      14.267  14.684  -2.982  0.00  0.00     0.021 A 
ATOM      5  S   UNL d   1      14.113  15.151  -4.229  0.00  0.00    -0.068 SA
ATOM      6  N   UNL d   1      13.814  13.124  -3.322  0.00  0.00    -0.251 N 
ATOM      7  C   UNL d   1      13.589  12.350  -3.491  0.00  0.00     0.378 C 
ATOM      8  C   UNL d   1      13.823  13.693  -3.925  0.00  0.00     0.091 A 
ATOM      9  C   UNL d   1      14.707  15.910  -2.319  0.00  0.00     0.103 C 
ATOM     10  N   UNL d   1      14.952  16.341  -1.669  0.00  0.00    -0.191 NA
ATOM     11  C   UNL d   1      14.255  14.112  -2.384  0.00  0.00     0.020 A 
ATOM     12  C   UNL d   1      14.029  13.337  -2.557  0.00  0.00     0.085 A 
ATOM     13  O   UNL d   1      13.372  12.133  -4.255  0.00  0.00    -0.237 OA
ENDROOT
BRANCH   1  14
ATOM     14  N   UNL d   1      14.512  16.569  -3.981  0.00  0.00    -0.316 N 
ATOM     15  C   UNL d   1      14.298  16.814  -4.750  0.00  0.00     0.258 C 
ATOM     16  O   UNL d   1      13.949  16.272  -5.269  0.00  0.00    -0.267 OA
ATOM     17  H   UNL d   1      14.701  17.182  -3.951  0.00  0.00     0.169 HD
BRANCH  15  18
ATOM     18  C   UNL d   1      14.438  17.596  -4.986  0.00  0.00     0.056 A 
ATOM     19  C   UNL d   1      15.143  17.964  -4.769  0.00  0.00     0.005 A 
ATOM     20  C   UNL d   1      15.291  18.749  -5.002  0.00  0.00     0.013 A 
ATOM     21  C   UNL d   1      14.723  19.154  -5.454  0.00  0.00     0.104 A 
ATOM     22  C   UNL d   1      14.016  18.774  -5.667  0.00  0.00     0.013 A 
ATOM     23  C   UNL d   1      13.871  17.998  -5.436  0.00  0.00     0.005 A 
BRANCH  21  24
ATOM     24  S   UNL d   1      14.867  19.938  -5.689  0.00  0.00     0.271 S 
ATOM     25  O   UNL d   1      15.642  19.845  -5.396  0.00  0.00    -0.200 OA
ATOM     26  O   UNL d   1      14.100  20.029  -5.978  0.00  0.00    -0.200 OA
BRANCH  24  27
ATOM     27  N   UNL d   1      15.014  20.716  -5.920  0.00  0.00    -0.229 N 
ATOM     28  C   UNL d   1      14.471  21.345  -5.877  0.00  0.00     0.092 A 
ATOM     29  C   UNL d   1      14.844  22.020  -6.164  0.00  0.00     0.021 A 
ATOM     30  C   UNL d   1      15.611  21.819  -6.385  0.00  0.00     0.021 A 
ATOM     31  C   UNL d   1      15.713  21.016  -6.234  0.00  0.00     0.092 A 
ENDBRANCH  24  27
ENDBRANCH  21  24
ENDBRANCH  15  18
ENDBRANCH   1  14
BRANCH   7  32
ATOM     32  O   UNL d   1      13.581  11.782  -2.881  0.00  0.00    -0.257 OA
BRANCH  32  33
ATOM     33  C   UNL d   1      13.018  11.835  -2.293  0.00  0.00     0.128 C 
ATOM     34  C   UNL d   1      13.248  11.788  -1.507  0.00  0.00     0.029 C 
ENDBRANCH  32  33
ENDBRANCH   7  32
TORSDOF 6
ENDMDL
MODEL 2
REMARK VINA RESULT:      90.2      1.635      7.030
REMARK  6 active torsions:
REMARK  status: ('A' for Active; 'I' for Inactive)
REMARK    1  A    between atoms: N_7  and  C_1 
REMARK    2  A    between atoms: S_2  and  C_14 
REMARK    3  A    between atoms: N_9  and  S_2 
REMARK       I    between atoms: C_11  and  N_7 
REMARK       I    between atoms: C_10  and  N_8 
REMARK    4  A    between atoms: O_27  and  C_10 
REMARK    5  A    between atoms: C_19  and  C_11 
REMARK    6  A    between atoms: C_30  and  O_27 
ROOT
ATOM      1  C   UNL d   1      14.614  16.929  -4.290  0.00  0.00     0.099 A 
ATOM      2  C   UNL d   1      14.553  16.961  -5.113  0.00  0.00     0.091 A 
ATOM      3  C   UNL d   1      14.654  18.222  -4.679  0.00  0.00     0.049 A 
ATOM      4  C   UNL d   1      14.577  17.751  -5.353  0.00  0.00     0.021 A 
ATOM      5  S   UNL d   1      14.678  17.720  -4.016  0.00  0.00    -0.068 SA
ATOM      6  N   UNL d   1      14.656  19.403  -5.497  0.00  0.00    -0.251 N 
ATOM      7  C   UNL d   1      14.695  20.223  -5.567  0.00  0.00     0.378 C 
ATOM      8  C   UNL d   1      14.694  19.051  -4.747  0.00  0.00     0.091 A 
ATOM      9  C   UNL d   1      14.479  16.318  -5.620  0.00  0.00     0.103 C 
ATOM     10  N   UNL d   1      14.406  15.671  -6.114  0.00  0.00    -0.191 NA
ATOM     11  C   UNL d   1      14.539  18.109  -6.099  0.00  0.00     0.020 A 
ATOM     12  C   UNL d   1      14.579  18.931  -6.165  0.00  0.00     0.085 A 
ATOM     13  O   UNL d   1      14.772  20.699  -4.899  0.00  0.00    -0.237 OA
ENDROOT
BRANCH   1  14
ATOM     14  N   UNL d   1      14.612  16.241  -3.828  0.00  0.00    -0.316 N 
ATOM     15  C   UNL d   1      14.730  16.295  -3.004  0.00  0.00     0.258 C 
ATOM     16  O   UNL d   1      14.847  17.036  -2.656  0.00  0.00    -0.267 OA
ATOM     17  H   UNL d   1      14.574  15.618  -3.676  0.00  0.00     0.169 HD
BRANCH  15  18
ATOM     18  C   UNL d   1      14.728  15.606  -2.541  0.00  0.00     0.056 A 
ATOM     19  C   UNL d   1      14.507  14.890  -2.884  0.00  0.00     0.005 A 
ATOM     20  C   UNL d   1      14.502  14.194  -2.427  0.00  0.00     0.013 A 
ATOM     21  C   UNL d   1      14.722  14.231  -1.626  0.00  0.00     0.104 A 
ATOM     22  C   UNL d   1      14.943  14.959  -1.291  0.00  0.00     0.013 A 
ATOM     23  C   UNL d   1      14.947  15.645  -1.744  0.00  0.00     0.005 A 
BRANCH  21  24
ATOM     24  S   UNL d   1      14.719  13.539  -1.167  0.00  0.00     0.271 S 
ATOM     25  O   UNL d   1      14.552  13.119  -1.867  0.00  0.00    -0.200 OA
ATOM     26  O   UNL d   1      14.883  13.957  -0.475  0.00  0.00    -0.200 OA
BRANCH  24  27
ATOM     27  N   UNL d   1      14.715  12.850  -0.714  0.00  0.00    -0.229 N 
ATOM     28  C   UNL d   1      14.036  12.451  -0.444  0.00  0.00     0.092 A 
ATOM     29  C   UNL d   1      14.283  11.795  -0.015  0.00  0.00     0.021 A 
ATOM     30  C   UNL d   1      15.107  11.779  -0.014  0.00  0.00     0.021 A 
ATOM     31  C   UNL d   1      15.369  12.430  -0.445  0.00  0.00     0.092 A 
ENDBRANCH  24  27
ENDBRANCH  21  24
ENDBRANCH  15  18
ENDBRANCH   1  14
BRANCH   7  32
ATOM     32  O   UNL d   1      14.656  20.572  -6.324  0.00  0.00    -0.257 OA
BRANCH  32  33
ATOM     33  C   UNL d   1      14.602  21.383  -6.387  0.00  0.00     0.128 C 
ATOM     34  C   UNL d   1      15.175  21.855  -6.038  0.00  0.00     0.029 C 
ENDBRANCH  32  33
ENDBRANCH   7  32
TORSDOF 6
ENDMDL
MODEL 3
REMARK VINA RESULT:      91.5      1.274      7.006
REMARK  6 active torsions:
REMARK  status: ('A' for Active; 'I' for Inactive)
REMARK    1  A    between atoms: N_7  and  C_1 
REMARK    2  A    between atoms: S_2  and  C_14 
REMARK    3  A    between atoms: N_9  and  S_2 
REMARK       I    between atoms: C_11  and  N_7 
REMARK       I    between atoms: C_10  and  N_8 
REMARK    4  A    between atoms: O_27  and  C_10 
REMARK    5  A    between atoms: C_19  and  C_11 
REMARK    6  A    between atoms: C_30  and  O_27 
ROOT
ATOM      1  C   UNL d   1      14.420  17.727  -4.945  0.00  0.00     0.099 A 
ATOM      2  C   UNL d   1      13.981  18.040  -5.571  0.00  0.00     0.091 A 
ATOM      3  C   UNL d   1      14.859  18.978  -5.200  0.00  0.00     0.049 A 
ATOM      4  C   UNL d   1      14.248  18.806  -5.729  0.00  0.00     0.021 A 
ATOM      5  S   UNL d   1      14.971  18.316  -4.711  0.00  0.00    -0.068 SA
ATOM      6  N   UNL d   1      15.004  20.283  -5.786  0.00  0.00    -0.251 N 
ATOM      7  C   UNL d   1      15.380  21.015  -5.814  0.00  0.00     0.378 C 
ATOM      8  C   UNL d   1      15.240  19.718  -5.226  0.00  0.00     0.091 A 
ATOM      9  C   UNL d   1      13.376  17.661  -5.978  0.00  0.00     0.103 C 
ATOM     10  N   UNL d   1      12.776  17.272  -6.375  0.00  0.00    -0.191 NA
ATOM     11  C   UNL d   1      14.017  19.374  -6.286  0.00  0.00     0.020 A 
ATOM     12  C   UNL d   1      14.396  20.106  -6.311  0.00  0.00     0.085 A 
ATOM     13  O   UNL d   1      15.990  21.195  -5.290  0.00  0.00    -0.237 OA
ENDROOT
BRANCH   1  14
ATOM     14  N   UNL d   1      14.327  16.972  -4.615  0.00  0.00    -0.316 N 
ATOM     15  C   UNL d   1      14.680  16.795  -3.880  0.00  0.00     0.258 C 
ATOM     16  O   UNL d   1      15.119  17.376  -3.487  0.00  0.00    -0.267 OA
ATOM     17  H   UNL d   1      14.135  16.363  -4.551  0.00  0.00     0.169 HD
BRANCH  15  18
ATOM     18  C   UNL d   1      14.587  16.040  -3.549  0.00  0.00     0.056 A 
ATOM     19  C   UNL d   1      14.534  15.961  -2.731  0.00  0.00     0.005 A 
ATOM     20  C   UNL d   1      14.440  15.207  -2.391  0.00  0.00     0.013 A 
ATOM     21  C   UNL d   1      14.401  14.540  -2.885  0.00  0.00     0.104 A 
ATOM     22  C   UNL d   1      14.456  14.631  -3.709  0.00  0.00     0.013 A 
ATOM     23  C   UNL d   1      14.548  15.377  -4.043  0.00  0.00     0.005 A 
BRANCH  21  24
ATOM     24  S   UNL d   1      14.308  13.785  -2.550  0.00  0.00     0.271 S 
ATOM     25  O   UNL d   1      14.998  13.936  -2.108  0.00  0.00    -0.200 OA
ATOM     26  O   UNL d   1      13.625  13.638  -2.989  0.00  0.00    -0.200 OA
BRANCH  24  27
ATOM     27  N   UNL d   1      14.218  13.037  -2.215  0.00  0.00    -0.229 N 
ATOM     28  C   UNL d   1      13.687  12.451  -2.473  0.00  0.00     0.092 A 
ATOM     29  C   UNL d   1      13.779  11.795  -1.987  0.00  0.00     0.021 A 
ATOM     30  C   UNL d   1      14.361  11.964  -1.429  0.00  0.00     0.021 A 
ATOM     31  C   UNL d   1      14.630  12.729  -1.572  0.00  0.00     0.092 A 
ENDBRANCH  24  27
ENDBRANCH  21  24
ENDBRANCH  15  18
ENDBRANCH   1  14
BRANCH   7  32
ATOM     32  O   UNL d   1      15.139  21.579  -6.379  0.00  0.00    -0.257 OA
BRANCH  32  33
ATOM     33  C   UNL d   1      14.700  22.223  -6.139  0.00  0.00     0.128 C 
ATOM     34  C   UNL d   1      15.001  22.726  -5.566  0.00  0.00     0.029 C 
ENDBRANCH  32  33
ENDBRANCH   7  32
TORSDOF 6
ENDMDL
