MODEL 1
REMARK VINA RESULT:      30.7      0.000      0.000
REMARK  3 active torsions:
REMARK  status: ('A' for Active; 'I' for Inactive)
REMARK    1  A    between atoms: N_5  and  C_2 
REMARK    2  A    between atoms: C_14  and  C_4 
REMARK       I    between atoms: C_7  and  N_5 
REMARK    3  A    between atoms: C_8  and  C_7 
ROOT
ATOM      1  S   UNL d   1     -50.613  26.288  33.971  0.00  0.00    -0.026 SA
ATOM      2  C   UNL d   1     -50.864  25.589  33.606  0.00  0.00     0.219 A 
ATOM      3  N   UNL d   1     -49.532  25.724  33.492  0.00  0.00    -0.139 NA
ATOM      4  C   UNL d   1     -49.802  26.361  33.897  0.00  0.00     0.135 A 
ATOM      5  N   UNL d   1     -50.185  25.236  33.306  0.00  0.00    -0.121 NA
ENDROOT
BRANCH   2   6
ATOM      6  N   UNL d   1     -51.609  25.234  33.509  0.00  0.00    -0.181 NA
ATOM      7  C   UNL d   1     -51.685  24.438  33.648  0.00  0.00     0.287 C 
ATOM      8  O   UNL d   1     -51.047  23.963  33.884  0.00  0.00    -0.265 OA
BRANCH   7   9
ATOM      9  C   UNL d   1     -52.407  24.097  33.554  0.00  0.00     0.087 A 
ATOM     10  S   UNL d   1     -52.564  23.310  33.674  0.00  0.00    -0.082 SA
ATOM     11  C   UNL d   1     -53.379  23.188  33.515  0.00  0.00     0.036 A 
ATOM     12  C   UNL d   1     -53.692  23.891  33.306  0.00  0.00     0.008 A 
ATOM     13  C   UNL d   1     -53.124  24.463  33.321  0.00  0.00     0.012 A 
ENDBRANCH   7   9
ENDBRANCH   2   6
BRANCH   4  14
ATOM     14  C   UNL d   1     -49.344  27.006  34.201  0.00  0.00     0.026 C 
ATOM     15  C   UNL d   1     -49.214  27.699  33.772  0.00  0.00     0.002 C 
ATOM     16  C   UNL d   1     -49.011  26.937  34.965  0.00  0.00     0.002 C 
ENDBRANCH   4  14
TORSDOF 3
ENDMDL
