MODEL 1
REMARK VINA RESULT:      60.3      0.000      0.000
REMARK  8 active torsions:
REMARK  status: ('A' for Active; 'I' for Inactive)
REMARK    1  A    between atoms: C_2  and  S_1 
REMARK    2  A    between atoms: N_13  and  S_1 
REMARK    3  A    between atoms: C_16  and  C_4 
REMARK    4  A    between atoms: O_17  and  C_5 
REMARK    5  A    between atoms: N_8  and  C_18 
REMARK    6  A    between atoms: C_21  and  N_13 
REMARK    7  A    between atoms: C_18  and  C_19 
REMARK    8  A    between atoms: C_19  and  C_21 
ROOT
ATOM      1  C   UNL d   1      59.555  49.122  50.746  0.00  0.00     0.128 A 
ATOM      2  C   UNL d   1      59.005  49.226  50.133  0.00  0.00     0.015 A 
ATOM      3  C   UNL d   1      58.224  49.422  50.314  0.00  0.00     0.001 A 
ATOM      4  C   UNL d   1      59.325  49.213  51.534  0.00  0.00     0.106 A 
ATOM      5  C   UNL d   1      57.993  49.513  51.107  0.00  0.00     0.002 A 
ATOM      6  C   UNL d   1      58.544  49.408  51.714  0.00  0.00     0.025 A 
ATOM      7  C   UNL d   1      57.212  49.708  51.287  0.00  0.00     0.000 C 
ENDROOT
BRANCH   1   8
ATOM      8  S   UNL d   1      60.336  48.927  50.566  0.00  0.00     0.287 S 
ATOM      9  O   UNL d   1      60.194  48.147  50.795  0.00  0.00    -0.198 OA
ATOM     10  O   UNL d   1      60.479  49.707  50.336  0.00  0.00    -0.198 OA
BRANCH   8  11
ATOM     11  N   UNL d   1      61.122  48.730  50.384  0.00  0.00    -0.157 NA
BRANCH  11  12
ATOM     12  C   UNL d   1      61.286  48.257  49.722  0.00  0.00     0.114 C 
BRANCH  12  13
ATOM     13  C   UNL d   1      61.628  47.513  49.825  0.00  0.00     0.041 C 
BRANCH  13  14
ATOM     14  C   UNL d   1      61.707  46.994  49.185  0.00  0.00     0.083 C 
BRANCH  14  15
ATOM     15  N   UNL d   1      61.998  46.230  49.297  0.00  0.00    -0.285 N 
ATOM     16  C   UNL d   1      61.646  45.647  49.762  0.00  0.00     0.183 A 
ATOM     17  N   UNL d   1      62.124  44.973  49.716  0.00  0.00    -0.222 NA
ATOM     18  C   UNL d   1      62.765  45.145  49.225  0.00  0.00     0.120 A 
ATOM     19  C   UNL d   1      62.685  45.926  48.966  0.00  0.00     0.102 A 
ENDBRANCH  14  15
ENDBRANCH  13  14
ENDBRANCH  12  13
ENDBRANCH  11  12
ENDBRANCH   8  11
ENDBRANCH   1   8
BRANCH   4  20
ATOM     20  O   UNL d   1      59.874  49.109  52.139  0.00  0.00    -0.327 OA
ATOM     21  C   UNL d   1      59.973  49.694  52.709  0.00  0.00     0.181 C 
ENDBRANCH   4  20
BRANCH   3  22
ATOM     22  C   UNL d   1      57.674  49.526  49.709  0.00  0.00     0.000 C 
ATOM     23  C   UNL d   1      57.908  49.457  48.921  0.00  0.00     0.000 C 
ATOM     24  C   UNL d   1      56.891  49.698  49.893  0.00  0.00     0.000 C 
ENDBRANCH   3  22
TORSDOF 8
ENDMDL
