MODEL 1
REMARK VINA RESULT:      -5.7      0.000      0.000
REMARK  6 active torsions:
REMARK  status: ('A' for Active; 'I' for Inactive)
REMARK    1  A    between atoms: C_9  and  S_1 
REMARK    2  A    between atoms: N_10  and  S_1 
REMARK    3  A    between atoms: C_2  and  N_6 
REMARK       I    between atoms: N_6  and  C_8 
REMARK    4  A    between atoms: C_8  and  C_15 
REMARK    5  A    between atoms: O_24  and  C_13 
REMARK    6  A    between atoms: O_23  and  C_14 
ROOT
ATOM      1  N   UNL d   1     -47.765  15.129  22.428  0.00  0.00    -0.183 NA
ATOM      2  C   UNL d   1     -46.995  14.977  22.698  0.00  0.00     0.281 C 
ATOM      3  O   UNL d   1     -46.471  15.603  22.794  0.00  0.00    -0.265 OA
ENDROOT
BRANCH   1   4
ATOM      4  C   UNL d   1     -48.305  14.501  22.327  0.00  0.00     0.197 A 
ATOM      5  N   UNL d   1     -48.878  14.262  22.868  0.00  0.00    -0.218 NA
ATOM      6  C   UNL d   1     -49.283  13.626  22.541  0.00  0.00     0.114 A 
ATOM      7  C   UNL d   1     -49.904  13.162  22.815  0.00  0.00     0.112 A 
ATOM      8  C   UNL d   1     -48.959  13.475  21.799  0.00  0.00     0.074 A 
ATOM      9  C   UNL d   1     -50.204  12.548  22.355  0.00  0.00     0.028 A 
ATOM     10  C   UNL d   1     -49.872  12.401  21.607  0.00  0.00     0.027 A 
ATOM     11  C   UNL d   1     -49.255  12.861  21.331  0.00  0.00     0.102 A 
ATOM     12  S   UNL d   1     -48.351  14.025  21.673  0.00  0.00    -0.045 SA
BRANCH   7  13
ATOM     13  O   UNL d   1     -50.238  13.309  23.567  0.00  0.00    -0.327 OA
ATOM     14  C   UNL d   1     -51.040  13.167  23.697  0.00  0.00     0.181 C 
ENDBRANCH   7  13
BRANCH  11  15
ATOM     15  O   UNL d   1     -48.920  12.714  20.579  0.00  0.00    -0.328 OA
ATOM     16  C   UNL d   1     -48.592  11.978  20.414  0.00  0.00     0.181 C 
ENDBRANCH  11  15
ENDBRANCH   1   4
BRANCH   2  17
ATOM     17  C   UNL d   1     -46.777  14.214  22.861  0.00  0.00     0.058 A 
ATOM     18  C   UNL d   1     -47.055  13.829  23.529  0.00  0.00     0.005 A 
ATOM     19  C   UNL d   1     -46.833  13.055  23.694  0.00  0.00     0.013 A 
ATOM     20  C   UNL d   1     -46.321  12.657  23.179  0.00  0.00     0.104 A 
ATOM     21  C   UNL d   1     -46.036  13.040  22.503  0.00  0.00     0.013 A 
ATOM     22  C   UNL d   1     -46.265  13.816  22.346  0.00  0.00     0.005 A 
BRANCH  20  23
ATOM     23  S   UNL d   1     -46.096  11.880  23.342  0.00  0.00     0.271 S 
ATOM     24  O   UNL d   1     -46.831  11.744  23.698  0.00  0.00    -0.200 OA
ATOM     25  O   UNL d   1     -45.367  12.020  22.986  0.00  0.00    -0.200 OA
BRANCH  23  26
ATOM     26  N   UNL d   1     -45.869  11.106  23.502  0.00  0.00    -0.226 N 
ATOM     27  C   UNL d   1     -45.079  10.893  23.468  0.00  0.00     0.111 C 
ATOM     28  C   UNL d   1     -46.440  10.546  23.698  0.00  0.00     0.111 C 
ENDBRANCH  23  26
ENDBRANCH  20  23
ENDBRANCH   2  17
TORSDOF 6
ENDMDL
MODEL 2
REMARK VINA RESULT:      -5.2      7.685      9.343
REMARK  6 active torsions:
REMARK  status: ('A' for Active; 'I' for Inactive)
REMARK    1  A    between atoms: C_9  and  S_1 
REMARK    2  A    between atoms: N_10  and  S_1 
REMARK    3  A    between atoms: C_2  and  N_6 
REMARK       I    between atoms: N_6  and  C_8 
REMARK    4  A    between atoms: C_8  and  C_15 
REMARK    5  A    between atoms: O_24  and  C_13 
REMARK    6  A    between atoms: O_23  and  C_14 
ROOT
ATOM      1  N   UNL d   1     -41.251  15.877  18.638  0.00  0.00    -0.183 NA
ATOM      2  C   UNL d   1     -41.061  15.603  17.878  0.00  0.00     0.281 C 
ATOM      3  O   UNL d   1     -41.448  15.922  17.226  0.00  0.00    -0.265 OA
ENDROOT
BRANCH   1   4
ATOM      4  C   UNL d   1     -40.864  15.560  19.307  0.00  0.00     0.197 A 
ATOM      5  N   UNL d   1     -40.109  15.758  19.569  0.00  0.00    -0.218 NA
ATOM      6  C   UNL d   1     -39.953  15.314  20.243  0.00  0.00     0.114 A 
ATOM      7  C   UNL d   1     -39.301  15.272  20.742  0.00  0.00     0.112 A 
ATOM      8  C   UNL d   1     -40.612  14.844  20.394  0.00  0.00     0.074 A 
ATOM      9  C   UNL d   1     -39.301  14.764  21.391  0.00  0.00     0.028 A 
ATOM     10  C   UNL d   1     -39.970  14.292  21.538  0.00  0.00     0.027 A 
ATOM     11  C   UNL d   1     -40.620  14.332  21.043  0.00  0.00     0.102 A 
ATOM     12  S   UNL d   1     -41.175  15.003  19.806  0.00  0.00    -0.045 SA
BRANCH   7  13
ATOM     13  O   UNL d   1     -38.628  15.746  20.595  0.00  0.00    -0.327 OA
ATOM     14  C   UNL d   1     -37.993  15.734  21.122  0.00  0.00     0.181 C 
ENDBRANCH   7  13
BRANCH  11  15
ATOM     15  O   UNL d   1     -41.293  13.858  21.189  0.00  0.00    -0.328 OA
ATOM     16  C   UNL d   1     -41.280  13.306  21.798  0.00  0.00     0.181 C 
ENDBRANCH  11  15
ENDBRANCH   1   4
BRANCH   2  17
ATOM     17  C   UNL d   1     -40.498  15.027  17.795  0.00  0.00     0.058 A 
ATOM     18  C   UNL d   1     -39.707  15.220  17.695  0.00  0.00     0.005 A 
ATOM     19  C   UNL d   1     -39.136  14.635  17.611  0.00  0.00     0.013 A 
ATOM     20  C   UNL d   1     -39.361  13.838  17.626  0.00  0.00     0.104 A 
ATOM     21  C   UNL d   1     -40.157  13.636  17.726  0.00  0.00     0.013 A 
ATOM     22  C   UNL d   1     -40.723  14.230  17.810  0.00  0.00     0.005 A 
BRANCH  20  23
ATOM     23  S   UNL d   1     -38.791  13.247  17.541  0.00  0.00     0.271 S 
ATOM     24  O   UNL d   1     -38.646  13.275  18.356  0.00  0.00    -0.200 OA
ATOM     25  O   UNL d   1     -38.939  13.225  16.732  0.00  0.00    -0.200 OA
BRANCH  23  26
ATOM     26  N   UNL d   1     -38.223  12.659  17.453  0.00  0.00    -0.226 N 
ATOM     27  C   UNL d   1     -37.940  12.258  18.108  0.00  0.00     0.111 C 
ATOM     28  C   UNL d   1     -37.940  12.476  16.702  0.00  0.00     0.111 C 
ENDBRANCH  23  26
ENDBRANCH  20  23
ENDBRANCH   2  17
TORSDOF 6
ENDMDL
MODEL 3
REMARK VINA RESULT:      -4.7      7.652      9.311
REMARK  6 active torsions:
REMARK  status: ('A' for Active; 'I' for Inactive)
REMARK    1  A    between atoms: C_9  and  S_1 
REMARK    2  A    between atoms: N_10  and  S_1 
REMARK    3  A    between atoms: C_2  and  N_6 
REMARK       I    between atoms: N_6  and  C_8 
REMARK    4  A    between atoms: C_8  and  C_15 
REMARK    5  A    between atoms: O_24  and  C_13 
REMARK    6  A    between atoms: O_23  and  C_14 
ROOT
ATOM      1  N   UNL d   1     -37.941  15.639  20.049  0.00  0.00    -0.183 NA
ATOM      2  C   UNL d   1     -38.311  15.589  20.789  0.00  0.00     0.281 C 
ATOM      3  O   UNL d   1     -37.944  15.922  21.447  0.00  0.00    -0.265 OA
ENDROOT
BRANCH   1   4
ATOM      4  C   UNL d   1     -38.304  15.304  19.375  0.00  0.00     0.197 A 
ATOM      5  N   UNL d   1     -38.852  15.675  18.885  0.00  0.00    -0.218 NA
ATOM      6  C   UNL d   1     -39.060  15.143  18.294  0.00  0.00     0.114 A 
ATOM      7  C   UNL d   1     -39.575  15.196  17.656  0.00  0.00     0.112 A 
ATOM      8  C   UNL d   1     -38.640  14.446  18.422  0.00  0.00     0.074 A 
ATOM      9  C   UNL d   1     -39.675  14.559  17.142  0.00  0.00     0.028 A 
ATOM     10  C   UNL d   1     -39.248  13.858  17.277  0.00  0.00     0.027 A 
ATOM     11  C   UNL d   1     -38.734  13.802  17.912  0.00  0.00     0.102 A 
ATOM     12  S   UNL d   1     -38.171  14.555  19.097  0.00  0.00    -0.045 SA
BRANCH   7  13
ATOM     13  O   UNL d   1     -40.005  15.900  17.519  0.00  0.00    -0.327 OA
ATOM     14  C   UNL d   1     -40.613  15.910  16.962  0.00  0.00     0.181 C 
ENDBRANCH   7  13
BRANCH  11  15
ATOM     15  O   UNL d   1     -38.305  13.099  18.049  0.00  0.00    -0.328 OA
ATOM     16  C   UNL d   1     -38.240  12.537  17.452  0.00  0.00     0.181 C 
ENDBRANCH  11  15
ENDBRANCH   1   4
BRANCH   2  17
ATOM     17  C   UNL d   1     -39.025  15.212  20.850  0.00  0.00     0.058 A 
ATOM     18  C   UNL d   1     -39.728  15.626  20.767  0.00  0.00     0.005 A 
ATOM     19  C   UNL d   1     -40.453  15.243  20.829  0.00  0.00     0.013 A 
ATOM     20  C   UNL d   1     -40.476  14.428  20.977  0.00  0.00     0.104 A 
ATOM     21  C   UNL d   1     -39.770  14.005  21.061  0.00  0.00     0.013 A 
ATOM     22  C   UNL d   1     -39.047  14.397  20.998  0.00  0.00     0.005 A 
BRANCH  20  23
ATOM     23  S   UNL d   1     -41.202  14.040  21.039  0.00  0.00     0.271 S 
ATOM     24  O   UNL d   1     -41.585  14.721  20.766  0.00  0.00    -0.200 OA
ATOM     25  O   UNL d   1     -40.814  13.366  21.310  0.00  0.00    -0.200 OA
BRANCH  23  26
ATOM     26  N   UNL d   1     -41.923  13.651  21.102  0.00  0.00    -0.226 N 
ATOM     27  C   UNL d   1     -42.443  13.640  20.470  0.00  0.00     0.111 C 
ATOM     28  C   UNL d   1     -42.120  13.272  21.807  0.00  0.00     0.111 C 
ENDBRANCH  23  26
ENDBRANCH  20  23
ENDBRANCH   2  17
TORSDOF 6
ENDMDL
MODEL 4
REMARK VINA RESULT:      -4.0      7.249      8.988
REMARK  6 active torsions:
REMARK  status: ('A' for Active; 'I' for Inactive)
REMARK    1  A    between atoms: C_9  and  S_1 
REMARK    2  A    between atoms: N_10  and  S_1 
REMARK    3  A    between atoms: C_2  and  N_6 
REMARK       I    between atoms: N_6  and  C_8 
REMARK    4  A    between atoms: C_8  and  C_15 
REMARK    5  A    between atoms: O_24  and  C_13 
REMARK    6  A    between atoms: O_23  and  C_14 
ROOT
ATOM      1  N   UNL d   1     -41.763  13.539  19.542  0.00  0.00    -0.183 NA
ATOM      2  C   UNL d   1     -41.744  13.656  20.363  0.00  0.00     0.281 C 
ATOM      3  O   UNL d   1     -42.353  13.354  20.827  0.00  0.00    -0.265 OA
ENDROOT
BRANCH   1   4
ATOM      4  C   UNL d   1     -41.150  13.841  19.062  0.00  0.00     0.197 A 
ATOM      5  N   UNL d   1     -40.405  13.506  18.958  0.00  0.00    -0.218 NA
ATOM      6  C   UNL d   1     -39.983  13.986  18.441  0.00  0.00     0.114 A 
ATOM      7  C   UNL d   1     -39.223  13.937  18.134  0.00  0.00     0.112 A 
ATOM      8  C   UNL d   1     -40.470  14.615  18.228  0.00  0.00     0.074 A 
ATOM      9  C   UNL d   1     -38.942  14.513  17.615  0.00  0.00     0.028 A 
ATOM     10  C   UNL d   1     -39.438  15.146  17.403  0.00  0.00     0.027 A 
ATOM     11  C   UNL d   1     -40.196  15.196  17.707  0.00  0.00     0.102 A 
ATOM     12  S   UNL d   1     -41.195  14.517  18.618  0.00  0.00    -0.045 SA
BRANCH   7  13
ATOM     13  O   UNL d   1     -38.723  13.301  18.346  0.00  0.00    -0.327 OA
ATOM     14  C   UNL d   1     -37.960  13.255  18.036  0.00  0.00     0.181 C 
ENDBRANCH   7  13
BRANCH  11  15
ATOM     15  O   UNL d   1     -40.696  15.832  17.495  0.00  0.00    -0.328 OA
ATOM     16  C   UNL d   1     -40.991  15.882  16.729  0.00  0.00     0.181 C 
ENDBRANCH  11  15
ENDBRANCH   1   4
BRANCH   2  17
ATOM     17  C   UNL d   1     -41.127  14.064  20.691  0.00  0.00     0.058 A 
ATOM     18  C   UNL d   1     -41.117  14.884  20.693  0.00  0.00     0.005 A 
ATOM     19  C   UNL d   1     -40.489  15.298  21.026  0.00  0.00     0.013 A 
ATOM     20  C   UNL d   1     -39.857  14.882  21.364  0.00  0.00     0.104 A 
ATOM     21  C   UNL d   1     -39.861  14.055  21.364  0.00  0.00     0.013 A 
ATOM     22  C   UNL d   1     -40.494  13.648  21.028  0.00  0.00     0.005 A 
BRANCH  20  23
ATOM     23  S   UNL d   1     -39.225  15.295  21.699  0.00  0.00     0.271 S 
ATOM     24  O   UNL d   1     -39.724  15.561  22.304  0.00  0.00    -0.200 OA
ATOM     25  O   UNL d   1     -38.735  15.027  21.094  0.00  0.00    -0.200 OA
BRANCH  23  26
ATOM     26  N   UNL d   1     -38.594  15.704  22.030  0.00  0.00    -0.226 N 
ATOM     27  C   UNL d   1     -38.612  15.922  22.819  0.00  0.00     0.111 C 
ATOM     28  C   UNL d   1     -37.943  15.894  21.562  0.00  0.00     0.111 C 
ENDBRANCH  23  26
ENDBRANCH  20  23
ENDBRANCH   2  17
TORSDOF 6
ENDMDL
MODEL 5
REMARK VINA RESULT:      -3.1      7.822      9.774
REMARK  6 active torsions:
REMARK  status: ('A' for Active; 'I' for Inactive)
REMARK    1  A    between atoms: C_9  and  S_1 
REMARK    2  A    between atoms: N_10  and  S_1 
REMARK    3  A    between atoms: C_2  and  N_6 
REMARK       I    between atoms: N_6  and  C_8 
REMARK    4  A    between atoms: C_8  and  C_15 
REMARK    5  A    between atoms: O_24  and  C_13 
REMARK    6  A    between atoms: O_23  and  C_14 
ROOT
ATOM      1  N   UNL d   1     -41.212  15.152  20.772  0.00  0.00    -0.183 NA
ATOM      2  C   UNL d   1     -41.355  15.333  19.975  0.00  0.00     0.281 C 
ATOM      3  O   UNL d   1     -42.118  15.531  19.738  0.00  0.00    -0.265 OA
ENDROOT
BRANCH   1   4
ATOM      4  C   UNL d   1     -40.441  14.950  21.024  0.00  0.00     0.197 A 
ATOM      5  N   UNL d   1     -40.035  14.259  20.835  0.00  0.00    -0.218 NA
ATOM      6  C   UNL d   1     -39.299  14.293  21.200  0.00  0.00     0.114 A 
ATOM      7  C   UNL d   1     -38.662  13.773  21.214  0.00  0.00     0.112 A 
ATOM      8  C   UNL d   1     -39.254  15.004  21.612  0.00  0.00     0.074 A 
ATOM      9  C   UNL d   1     -37.979  13.958  21.637  0.00  0.00     0.028 A 
ATOM     10  C   UNL d   1     -37.940  14.679  22.051  0.00  0.00     0.027 A 
ATOM     11  C   UNL d   1     -38.573  15.198  22.039  0.00  0.00     0.102 A 
ATOM     12  S   UNL d   1     -39.970  15.408  21.497  0.00  0.00    -0.045 SA
BRANCH   7  13
ATOM     13  O   UNL d   1     -38.700  13.050  20.798  0.00  0.00    -0.327 OA
ATOM     14  C   UNL d   1     -38.020  12.592  20.704  0.00  0.00     0.181 C 
ENDBRANCH   7  13
BRANCH  11  15
ATOM     15  O   UNL d   1     -38.535  15.921  22.454  0.00  0.00    -0.328 OA
ATOM     16  C   UNL d   1     -38.403  15.921  23.266  0.00  0.00     0.181 C 
ENDBRANCH  11  15
ENDBRANCH   1   4
BRANCH   2  17
ATOM     17  C   UNL d   1     -40.742  15.312  19.448  0.00  0.00     0.058 A 
ATOM     18  C   UNL d   1     -40.193  15.919  19.413  0.00  0.00     0.005 A 
ATOM     19  C   UNL d   1     -39.570  15.897  18.877  0.00  0.00     0.013 A 
ATOM     20  C   UNL d   1     -39.494  15.251  18.364  0.00  0.00     0.104 A 
ATOM     21  C   UNL d   1     -40.045  14.634  18.393  0.00  0.00     0.013 A 
ATOM     22  C   UNL d   1     -40.666  14.666  18.934  0.00  0.00     0.005 A 
BRANCH  20  23
ATOM     23  S   UNL d   1     -38.870  15.225  17.824  0.00  0.00     0.271 S 
ATOM     24  O   UNL d   1     -38.391  15.632  18.363  0.00  0.00    -0.200 OA
ATOM     25  O   UNL d   1     -39.351  14.820  17.293  0.00  0.00    -0.200 OA
BRANCH  23  26
ATOM     26  N   UNL d   1     -38.250  15.197  17.285  0.00  0.00    -0.226 N 
ATOM     27  C   UNL d   1     -37.940  14.477  17.050  0.00  0.00     0.111 C 
ATOM     28  C   UNL d   1     -37.943  15.898  16.981  0.00  0.00     0.111 C 
ENDBRANCH  23  26
ENDBRANCH  20  23
ENDBRANCH   2  17
TORSDOF 6
ENDMDL
