MODEL 1
REMARK VINA RESULT:     111.1      0.000      0.000
REMARK  3 active torsions:
REMARK  status: ('A' for Active; 'I' for Inactive)
REMARK    1  A    between atoms: C_6  and  C_1 
REMARK    2  A    between atoms: N_7  and  C_2 
REMARK       I    between atoms: C_8  and  N_9 
REMARK    3  A    between atoms: C_11  and  C_8 
ROOT
ATOM      1  C   UNL d   1      58.239  48.814  51.079  0.00  0.00     0.186 A 
ATOM      2  C   UNL d   1      59.404  48.342  50.657  0.00  0.00     0.197 A 
ATOM      3  C   UNL d   1      59.546  48.870  51.266  0.00  0.00     0.191 A 
ATOM      4  O   UNL d   1      58.572  48.312  50.544  0.00  0.00    -0.270 OA
ATOM      5  N   UNL d   1      58.803  49.172  51.536  0.00  0.00    -0.208 NA
ATOM      6  C   UNL d   1      60.313  49.081  51.577  0.00  0.00     0.124 C 
ATOM      7  N   UNL d   1      61.067  49.298  51.894  0.00  0.00    -0.190 NA
ENDROOT
BRANCH   2   8
ATOM      8  N   UNL d   1      60.148  48.043  50.391  0.00  0.00    -0.280 N 
ATOM      9  C   UNL d   1      60.792  48.557  50.275  0.00  0.00     0.101 A 
ATOM     10  C   UNL d   1      61.510  48.282  50.020  0.00  0.00     0.102 A 
ATOM     11  N   UNL d   1      61.627  47.451  49.861  0.00  0.00    -0.267 N 
ATOM     12  C   UNL d   1      62.402  47.195  49.592  0.00  0.00     0.288 C 
ATOM     13  C   UNL d   1      60.954  46.909  49.982  0.00  0.00     0.102 A 
ATOM     14  O   UNL d   1      63.031  47.742  49.485  0.00  0.00    -0.264 OA
ATOM     15  C   UNL d   1      60.224  47.238  50.249  0.00  0.00     0.101 A 
BRANCH  12  16
ATOM     16  C   UNL d   1      62.520  46.364  49.434  0.00  0.00     0.156 A 
ATOM     17  O   UNL d   1      62.132  45.682  49.659  0.00  0.00    -0.300 OA
ATOM     18  C   UNL d   1      62.525  45.028  49.315  0.00  0.00     0.123 A 
ATOM     19  C   UNL d   1      63.151  45.318  48.880  0.00  0.00     0.029 A 
ATOM     20  C   UNL d   1      63.158  46.137  48.946  0.00  0.00     0.032 A 
ENDBRANCH  12  16
ENDBRANCH   2   8
BRANCH   1  21
ATOM     21  C   UNL d   1      57.498  49.120  51.353  0.00  0.00     0.052 A 
ATOM     22  C   UNL d   1      56.848  49.138  50.828  0.00  0.00     0.061 A 
ATOM     23 CL   UNL d   1      56.991  48.850  50.069  0.00  0.00    -0.082 Cl
ATOM     24  C   UNL d   1      56.122  49.431  51.076  0.00  0.00     0.011 A 
ATOM     25  C   UNL d   1      56.034  49.705  51.840  0.00  0.00     0.001 A 
ATOM     26  C   UNL d   1      56.669  49.691  52.366  0.00  0.00     0.000 A 
ATOM     27  C   UNL d   1      57.385  49.402  52.120  0.00  0.00     0.004 A 
ENDBRANCH   1  21
TORSDOF 3
ENDMDL
MODEL 2
REMARK VINA RESULT:     112.9      2.309      5.533
REMARK  3 active torsions:
REMARK  status: ('A' for Active; 'I' for Inactive)
REMARK    1  A    between atoms: C_6  and  C_1 
REMARK    2  A    between atoms: N_7  and  C_2 
REMARK       I    between atoms: C_8  and  N_9 
REMARK    3  A    between atoms: C_11  and  C_8 
ROOT
ATOM      1  C   UNL d   1      61.738  44.466  50.934  0.00  0.00     0.186 A 
ATOM      2  C   UNL d   1      61.393  45.743  50.842  0.00  0.00     0.197 A 
ATOM      3  C   UNL d   1      61.789  45.533  50.157  0.00  0.00     0.191 A 
ATOM      4  O   UNL d   1      61.365  45.060  51.330  0.00  0.00    -0.270 OA
ATOM      5  N   UNL d   1      62.010  44.718  50.214  0.00  0.00    -0.208 NA
ATOM      6  C   UNL d   1      61.953  46.049  49.495  0.00  0.00     0.124 C 
ATOM      7  N   UNL d   1      62.120  46.550  48.834  0.00  0.00    -0.190 NA
ENDROOT
BRANCH   2   8
ATOM      8  N   UNL d   1      61.175  46.557  50.780  0.00  0.00    -0.280 N 
ATOM      9  C   UNL d   1      61.710  47.115  50.473  0.00  0.00     0.101 A 
ATOM     10  C   UNL d   1      61.512  47.897  50.409  0.00  0.00     0.102 A 
ATOM     11  N   UNL d   1      60.744  48.175  50.656  0.00  0.00    -0.267 N 
ATOM     12  C   UNL d   1      60.568  49.011  50.574  0.00  0.00     0.288 C 
ATOM     13  C   UNL d   1      60.180  47.592  50.979  0.00  0.00     0.102 A 
ATOM     14  O   UNL d   1      61.132  49.548  50.259  0.00  0.00    -0.264 OA
ATOM     15  C   UNL d   1      60.427  46.787  51.028  0.00  0.00     0.101 A 
BRANCH  12  16
ATOM     16  C   UNL d   1      59.799  49.289  50.822  0.00  0.00     0.156 A 
ATOM     17  O   UNL d   1      59.458  49.446  51.546  0.00  0.00    -0.300 OA
ATOM     18  C   UNL d   1      58.673  49.708  51.419  0.00  0.00     0.123 A 
ATOM     19  C   UNL d   1      58.542  49.708  50.613  0.00  0.00     0.029 A 
ATOM     20  C   UNL d   1      59.227  49.452  50.237  0.00  0.00     0.032 A 
ENDBRANCH  12  16
ENDBRANCH   2   8
BRANCH   1  21
ATOM     21  C   UNL d   1      61.962  43.650  50.987  0.00  0.00     0.052 A 
ATOM     22  C   UNL d   1      61.760  43.218  51.673  0.00  0.00     0.061 A 
ATOM     23 CL   UNL d   1      61.350  43.637  52.253  0.00  0.00    -0.082 Cl
ATOM     24  C   UNL d   1      61.968  42.427  51.742  0.00  0.00     0.011 A 
ATOM     25  C   UNL d   1      62.375  42.060  51.136  0.00  0.00     0.001 A 
ATOM     26  C   UNL d   1      62.579  42.477  50.454  0.00  0.00     0.000 A 
ATOM     27  C   UNL d   1      62.372  43.258  50.388  0.00  0.00     0.004 A 
ENDBRANCH   1  21
TORSDOF 3
ENDMDL
