MODEL 1
REMARK VINA RESULT:      65.7      0.000      0.000
REMARK  2 active torsions:
REMARK  status: ('A' for Active; 'I' for Inactive)
REMARK    1  A    between atoms: C_10  and  N_3 
REMARK    2  A    between atoms: C_11  and  C_4 
ROOT
ATOM      1  C   UNL d   1      58.283  49.618  51.726  0.00  0.00     0.154 A 
ATOM      2  C   UNL d   1      58.300  49.621  52.545  0.00  0.00     0.094 A 
ATOM      3  N   UNL d   1      57.492  49.654  51.485  0.00  0.00    -0.290 N 
ATOM      4  C   UNL d   1      57.520  49.660  52.818  0.00  0.00     0.025 A 
ATOM      5  C   UNL d   1      57.027  49.679  52.164  0.00  0.00     0.082 A 
ATOM      6  N   UNL d   1      58.985  49.583  51.294  0.00  0.00    -0.206 NA
ATOM      7  C   UNL d   1      59.019  49.590  52.947  0.00  0.00     0.284 A 
ATOM      8  N   UNL d   1      59.723  49.554  52.515  0.00  0.00    -0.186 NA
ATOM      9  C   UNL d   1      59.706  49.551  51.697  0.00  0.00     0.203 A 
ATOM     10  O   UNL d   1      59.036  49.593  53.766  0.00  0.00    -0.265 OA
ENDROOT
BRANCH   3  11
ATOM     11  C   UNL d   1      57.186  49.665  50.730  0.00  0.00     0.065 A 
ATOM     12  C   UNL d   1      56.370  49.644  50.615  0.00  0.00     0.018 A 
ATOM     13  C   UNL d   1      56.058  49.655  49.850  0.00  0.00     0.002 A 
ATOM     14  C   UNL d   1      56.569  49.686  49.190  0.00  0.00     0.000 A 
ATOM     15  C   UNL d   1      57.385  49.706  49.315  0.00  0.00     0.002 A 
ATOM     16  C   UNL d   1      57.692  49.696  50.080  0.00  0.00     0.018 A 
ENDBRANCH   3  11
BRANCH   4  17
ATOM     17  C   UNL d   1      57.406  49.669  53.635  0.00  0.00     0.002 A 
ATOM     18  C   UNL d   1      58.057  49.667  54.145  0.00  0.00     0.000 A 
ATOM     19  C   UNL d   1      57.943  49.676  54.962  0.00  0.00     0.000 A 
ATOM     20  C   UNL d   1      57.179  49.688  55.269  0.00  0.00     0.000 A 
ATOM     21  C   UNL d   1      56.528  49.690  54.759  0.00  0.00     0.000 A 
ATOM     22  C   UNL d   1      56.641  49.681  53.946  0.00  0.00     0.000 A 
ENDBRANCH   4  17
TORSDOF 2
ENDMDL
