MODEL 1
REMARK VINA RESULT:      66.6      0.000      0.000
REMARK  7 active torsions:
REMARK  status: ('A' for Active; 'I' for Inactive)
REMARK    1  A    between atoms: C_13  and  N_2 
REMARK    2  A    between atoms: C_7  and  C_4 
REMARK    3  A    between atoms: O_19  and  C_7 
REMARK    4  A    between atoms: C_9  and  C_18 
REMARK    5  A    between atoms: C_20  and  C_13 
REMARK    6  A    between atoms: O_16  and  C_15 
REMARK    7  A    between atoms: C_18  and  O_16 
ROOT
ATOM      1  C   UNL d   1     -47.229  30.854  35.769  0.00  0.00     0.265 A 
ATOM      2  N   UNL d   1     -47.573  31.309  35.172  0.00  0.00    -0.272 N 
ATOM      3  C   UNL d   1     -47.405  30.055  35.827  0.00  0.00     0.059 A 
ATOM      4  C   UNL d   1     -47.926  29.705  35.291  0.00  0.00     0.029 A 
ATOM      5  C   UNL d   1     -48.270  30.155  34.696  0.00  0.00     0.021 A 
ATOM      6  C   UNL d   1     -48.093  30.959  34.636  0.00  0.00     0.083 A 
ATOM      7  O   UNL d   1     -46.709  31.204  36.305  0.00  0.00    -0.267 OA
ATOM      8  C   UNL d   1     -48.102  28.900  35.351  0.00  0.00     0.100 A 
ATOM      9  C   UNL d   1     -47.061  29.600  36.424  0.00  0.00     0.005 A 
ATOM     10  C   UNL d   1     -47.237  28.796  36.485  0.00  0.00     0.002 A 
ATOM     11  C   UNL d   1     -47.757  28.446  35.949  0.00  0.00     0.025 A 
ENDROOT
BRANCH   8  12
ATOM     12  O   UNL d   1     -48.622  28.551  34.815  0.00  0.00    -0.303 OA
BRANCH  12  13
ATOM     13  C   UNL d   1     -49.178  28.000  35.079  0.00  0.00     0.147 C 
BRANCH  13  14
ATOM     14  C   UNL d   1     -49.636  27.584  34.534  0.00  0.00     0.125 A 
ATOM     15  O   UNL d   1     -50.325  27.127  34.622  0.00  0.00    -0.300 OA
ATOM     16  C   UNL d   1     -50.532  26.847  33.872  0.00  0.00     0.163 A 
ATOM     17  C   UNL d   1     -49.989  27.122  33.331  0.00  0.00     0.032 A 
ATOM     18  C   UNL d   1     -49.431  27.580  33.739  0.00  0.00     0.029 A 
BRANCH  16  19
ATOM     19  C   UNL d   1     -51.191  26.361  33.695  0.00  0.00     0.319 C 
ATOM     20  O   UNL d   1     -51.848  26.680  33.327  0.00  0.00    -0.257 OA
BRANCH  19  21
ATOM     21  O   UNL d   1     -51.176  25.548  33.895  0.00  0.00    -0.294 OA
ATOM     22  C   UNL d   1     -51.620  25.003  33.462  0.00  0.00     0.185 C 
ENDBRANCH  19  21
ENDBRANCH  16  19
ENDBRANCH  13  14
ENDBRANCH  12  13
ENDBRANCH   8  12
BRANCH   2  23
ATOM     23  C   UNL d   1     -47.392  32.121  35.115  0.00  0.00     0.083 C 
BRANCH  23  24
ATOM     24  C   UNL d   1     -47.724  32.580  34.515  0.00  0.00     0.018 A 
ATOM     25  C   UNL d   1     -48.535  32.722  34.512  0.00  0.00     0.002 A 
ATOM     26  C   UNL d   1     -48.868  33.182  33.913  0.00  0.00     0.000 A 
ATOM     27  C   UNL d   1     -48.387  33.497  33.319  0.00  0.00     0.000 A 
ATOM     28  C   UNL d   1     -47.579  33.351  33.328  0.00  0.00     0.000 A 
ATOM     29  C   UNL d   1     -47.247  32.892  33.928  0.00  0.00     0.002 A 
ENDBRANCH  23  24
ENDBRANCH   2  23
TORSDOF 7
ENDMDL
MODEL 2
REMARK VINA RESULT:      66.7      2.504      7.089
REMARK  7 active torsions:
REMARK  status: ('A' for Active; 'I' for Inactive)
REMARK    1  A    between atoms: C_13  and  N_2 
REMARK    2  A    between atoms: C_7  and  C_4 
REMARK    3  A    between atoms: O_19  and  C_7 
REMARK    4  A    between atoms: C_9  and  C_18 
REMARK    5  A    between atoms: C_20  and  C_13 
REMARK    6  A    between atoms: O_16  and  C_15 
REMARK    7  A    between atoms: C_18  and  O_16 
ROOT
ATOM      1  C   UNL d   1     -52.252  25.296  33.370  0.00  0.00     0.265 A 
ATOM      2  N   UNL d   1     -51.767  24.629  33.370  0.00  0.00    -0.272 N 
ATOM      3  C   UNL d   1     -51.920  26.044  33.432  0.00  0.00     0.059 A 
ATOM      4  C   UNL d   1     -51.102  26.130  33.496  0.00  0.00     0.029 A 
ATOM      5  C   UNL d   1     -50.616  25.468  33.497  0.00  0.00     0.021 A 
ATOM      6  C   UNL d   1     -50.949  24.715  33.433  0.00  0.00     0.083 A 
ATOM      7  O   UNL d   1     -53.071  25.211  33.306  0.00  0.00    -0.267 OA
ATOM      8  C   UNL d   1     -50.769  26.883  33.559  0.00  0.00     0.100 A 
ATOM      9  C   UNL d   1     -52.405  26.712  33.432  0.00  0.00     0.005 A 
ATOM     10  C   UNL d   1     -52.074  27.465  33.495  0.00  0.00     0.002 A 
ATOM     11  C   UNL d   1     -51.256  27.550  33.559  0.00  0.00     0.025 A 
ENDROOT
BRANCH   8  12
ATOM     12  O   UNL d   1     -49.951  26.969  33.623  0.00  0.00    -0.303 OA
BRANCH  12  13
ATOM     13  C   UNL d   1     -49.581  27.636  33.308  0.00  0.00     0.147 C 
BRANCH  13  14
ATOM     14  C   UNL d   1     -49.170  28.151  33.804  0.00  0.00     0.125 A 
ATOM     15  O   UNL d   1     -48.633  28.014  34.424  0.00  0.00    -0.300 OA
ATOM     16  C   UNL d   1     -48.403  28.753  34.716  0.00  0.00     0.163 A 
ATOM     17  C   UNL d   1     -48.784  29.334  34.291  0.00  0.00     0.032 A 
ATOM     18  C   UNL d   1     -49.262  28.963  33.723  0.00  0.00     0.029 A 
BRANCH  16  19
ATOM     19  C   UNL d   1     -47.866  28.885  35.345  0.00  0.00     0.319 C 
ATOM     20  O   UNL d   1     -47.764  28.316  35.923  0.00  0.00    -0.257 OA
BRANCH  19  21
ATOM     21  O   UNL d   1     -47.434  29.602  35.382  0.00  0.00    -0.294 OA
ATOM     22  C   UNL d   1     -47.336  29.994  36.102  0.00  0.00     0.185 C 
ENDBRANCH  19  21
ENDBRANCH  16  19
ENDBRANCH  13  14
ENDBRANCH  12  13
ENDBRANCH   8  12
BRANCH   2  23
ATOM     23  C   UNL d   1     -52.107  23.870  33.306  0.00  0.00     0.083 C 
BRANCH  23  24
ATOM     24  C   UNL d   1     -52.716  23.643  33.814  0.00  0.00     0.018 A 
ATOM     25  C   UNL d   1     -53.465  23.487  33.509  0.00  0.00     0.002 A 
ATOM     26  C   UNL d   1     -54.074  23.259  34.016  0.00  0.00     0.000 A 
ATOM     27  C   UNL d   1     -53.932  23.189  34.826  0.00  0.00     0.000 A 
ATOM     28  C   UNL d   1     -53.183  23.346  35.125  0.00  0.00     0.000 A 
ATOM     29  C   UNL d   1     -52.574  23.573  34.617  0.00  0.00     0.002 A 
ENDBRANCH  23  24
ENDBRANCH   2  23
TORSDOF 7
ENDMDL
