MODEL 1
REMARK VINA RESULT:      -2.2      0.000      0.000
REMARK  6 active torsions:
REMARK  status: ('A' for Active; 'I' for Inactive)
REMARK    1  A    between atoms: C_10  and  C_3 
REMARK    2  A    between atoms: N_12  and  C_4 
REMARK    3  A    between atoms: N_11  and  C_20 
REMARK    4  A    between atoms: C_25  and  N_12 
REMARK    5  A    between atoms: C_20  and  C_21 
REMARK    6  A    between atoms: C_21  and  C_25 
ROOT
ATOM      1  C   UNL d   1      32.857  21.563 -22.015  0.00  0.00     0.168 A 
ATOM      2  N   UNL d   1      32.926  20.963 -22.614  0.00  0.00    -0.184 N 
ATOM      3  C   UNL d   1      32.688  21.354 -21.251  0.00  0.00     0.057 A 
ATOM      4  C   UNL d   1      33.094  21.187 -23.369  0.00  0.00     0.218 A 
ATOM      5  N   UNL d   1      32.651  19.971 -21.633  0.00  0.00    -0.160 NA
ATOM      6  N   UNL d   1      32.960  22.346 -22.212  0.00  0.00    -0.227 NA
ATOM      7  C   UNL d   1      33.200  21.976 -23.578  0.00  0.00     0.071 A 
ATOM      8  C   UNL d   1      32.583  20.552 -21.053  0.00  0.00     0.124 A 
ATOM      9  C   UNL d   1      33.132  22.567 -22.989  0.00  0.00     0.087 A 
ATOM     10  C   UNL d   1      33.241  23.393 -23.198  0.00  0.00     0.021 C 
ENDROOT
BRANCH   4  11
ATOM     11  N   UNL d   1      33.165  20.584 -23.977  0.00  0.00    -0.380 NA
BRANCH  11  12
ATOM     12  C   UNL d   1      33.239  19.901 -24.493  0.00  0.00     0.164 C 
BRANCH  12  13
ATOM     13  C   UNL d   1      33.228  19.112 -24.174  0.00  0.00     0.054 C 
BRANCH  13  14
ATOM     14  C   UNL d   1      33.204  18.429 -24.693  0.00  0.00     0.083 C 
BRANCH  14  15
ATOM     15  N   UNL d   1      32.837  17.696 -24.414  0.00  0.00    -0.299 N 
ATOM     16  C   UNL d   1      32.274  17.277 -24.924  0.00  0.00     0.107 A 
ATOM     17  C   UNL d   1      31.912  16.551 -24.643  0.00  0.00     0.142 A 
ATOM     18  O   UNL d   1      32.102  16.242 -23.867  0.00  0.00    -0.300 OA
ATOM     19  C   UNL d   1      32.661  16.660 -23.362  0.00  0.00     0.142 A 
ATOM     20  C   UNL d   1      33.032  17.393 -23.636  0.00  0.00     0.107 A 
ENDBRANCH  14  15
ENDBRANCH  13  14
ENDBRANCH  12  13
ENDBRANCH  11  12
ENDBRANCH   4  11
BRANCH   3  21
ATOM     21  C   UNL d   1      32.621  21.936 -20.670  0.00  0.00     0.005 A 
ATOM     22  C   UNL d   1      31.935  22.371 -20.610  0.00  0.00     0.001 A 
ATOM     23  C   UNL d   1      31.869  22.943 -20.038  0.00  0.00     0.011 A 
ATOM     24  C   UNL d   1      32.487  23.089 -19.518  0.00  0.00     0.058 A 
ATOM     25  C   UNL d   1      33.173  22.653 -19.579  0.00  0.00     0.011 A 
ATOM     26 CL   UNL d   1      32.416  23.698 -18.911  0.00  0.00    -0.082 Cl
ATOM     27  C   UNL d   1      33.241  22.072 -20.159  0.00  0.00     0.001 A 
ENDBRANCH   3  21
TORSDOF 6
ENDMDL
MODEL 2
REMARK VINA RESULT:       0.6      3.242      6.184
REMARK  6 active torsions:
REMARK  status: ('A' for Active; 'I' for Inactive)
REMARK    1  A    between atoms: C_10  and  C_3 
REMARK    2  A    between atoms: N_12  and  C_4 
REMARK    3  A    between atoms: N_11  and  C_20 
REMARK    4  A    between atoms: C_25  and  N_12 
REMARK    5  A    between atoms: C_20  and  C_21 
REMARK    6  A    between atoms: C_21  and  C_25 
ROOT
ATOM      1  C   UNL d   1      30.481  17.168 -23.955  0.00  0.00     0.168 A 
ATOM      2  N   UNL d   1      31.168  17.667 -23.990  0.00  0.00    -0.184 N 
ATOM      3  C   UNL d   1      29.791  17.403 -24.310  0.00  0.00     0.057 A 
ATOM      4  C   UNL d   1      31.846  17.418 -23.633  0.00  0.00     0.218 A 
ATOM      5  N   UNL d   1      30.424  18.618 -24.741  0.00  0.00    -0.160 NA
ATOM      6  N   UNL d   1      30.518  16.454 -23.566  0.00  0.00    -0.227 NA
ATOM      7  C   UNL d   1      31.893  16.698 -23.237  0.00  0.00     0.071 A 
ATOM      8  C   UNL d   1      29.758  18.134 -24.707  0.00  0.00     0.124 A 
ATOM      9  C   UNL d   1      31.216  16.207 -23.203  0.00  0.00     0.087 A 
ATOM     10  C   UNL d   1      31.256  15.453 -22.791  0.00  0.00     0.021 C 
ENDROOT
BRANCH   4  11
ATOM     11  N   UNL d   1      32.543  17.920 -23.666  0.00  0.00    -0.380 NA
BRANCH  11  12
ATOM     12  C   UNL d   1      33.241  18.413 -23.578  0.00  0.00     0.164 C 
BRANCH  12  13
ATOM     13  C   UNL d   1      33.173  19.220 -23.315  0.00  0.00     0.054 C 
BRANCH  13  14
ATOM     14  C   UNL d   1      33.195  19.413 -22.479  0.00  0.00     0.083 C 
BRANCH  14  15
ATOM     15  N   UNL d   1      33.005  20.219 -22.224  0.00  0.00    -0.299 N 
ATOM     16  C   UNL d   1      33.241  20.892 -22.718  0.00  0.00     0.107 A 
ATOM     17  C   UNL d   1      33.051  21.688 -22.462  0.00  0.00     0.142 A 
ATOM     18  O   UNL d   1      32.633  21.820 -21.726  0.00  0.00    -0.300 OA
ATOM     19  C   UNL d   1      32.399  21.151 -21.237  0.00  0.00     0.142 A 
ATOM     20  C   UNL d   1      32.586  20.343 -21.486  0.00  0.00     0.107 A 
ENDBRANCH  14  15
ENDBRANCH  13  14
ENDBRANCH  12  13
ENDBRANCH  11  12
ENDBRANCH   4  11
BRANCH   3  21
ATOM     21  C   UNL d   1      29.124  16.919 -24.276  0.00  0.00     0.005 A 
ATOM     22  C   UNL d   1      28.612  16.978 -23.646  0.00  0.00     0.001 A 
ATOM     23  C   UNL d   1      27.956  16.502 -23.613  0.00  0.00     0.011 A 
ATOM     24  C   UNL d   1      27.802  15.959 -24.210  0.00  0.00     0.058 A 
ATOM     25  C   UNL d   1      28.315  15.900 -24.841  0.00  0.00     0.011 A 
ATOM     26 CL   UNL d   1      27.104  15.453 -24.175  0.00  0.00    -0.082 Cl
ATOM     27  C   UNL d   1      28.982  16.384 -24.874  0.00  0.00     0.001 A 
ENDBRANCH   3  21
TORSDOF 6
ENDMDL
