MODEL 1
REMARK VINA RESULT:      97.6      0.000      0.000
REMARK  4 active torsions:
REMARK  status: ('A' for Active; 'I' for Inactive)
REMARK    1  A    between atoms: C_9  and  C_3 
REMARK    2  A    between atoms: N_10  and  C_9 
REMARK    3  A    between atoms: C_19  and  C_9 
REMARK    4  A    between atoms: C_12  and  N_11 
ROOT
ATOM      1  C   UNL d   1      60.608  48.282  51.000  0.00  0.00     0.075 C 
ENDROOT
BRANCH   1   2
ATOM      2  C   UNL d   1      60.945  47.629  50.619  0.00  0.00     0.106 A 
ATOM      3  C   UNL d   1      60.878  46.833  50.860  0.00  0.00     0.289 A 
ATOM      4  N   UNL d   1      61.297  46.368  50.324  0.00  0.00    -0.169 N 
ATOM      5  O   UNL d   1      60.463  46.561  51.523  0.00  0.00    -0.265 OA
ATOM      6  C   UNL d   1      61.624  46.869  49.752  0.00  0.00     0.200 A 
ATOM      7  N   UNL d   1      61.517  45.598  50.137  0.00  0.00    -0.141 NA
ATOM      8  S   UNL d   1      61.408  47.644  49.932  0.00  0.00    -0.042 SA
ATOM      9  N   UNL d   1      62.043  46.404  49.216  0.00  0.00    -0.200 NA
ATOM     10  C   UNL d   1      61.978  45.617  49.452  0.00  0.00     0.184 A 
ATOM     11  C   UNL d   1      62.312  44.959  49.077  0.00  0.00     0.044 C 
ENDBRANCH   1   2
BRANCH   1  12
ATOM     12  N   UNL d   1      59.845  48.519  50.796  0.00  0.00    -0.301 N 
ATOM     13  C   UNL d   1      59.206  48.019  50.916  0.00  0.00     0.100 A 
ATOM     14  C   UNL d   1      58.442  48.263  50.709  0.00  0.00     0.100 A 
ATOM     15  N   UNL d   1      58.310  49.011  50.380  0.00  0.00    -0.299 N 
ATOM     16  C   UNL d   1      58.958  49.506  50.263  0.00  0.00     0.100 A 
ATOM     17  C   UNL d   1      59.725  49.269  50.467  0.00  0.00     0.100 A 
BRANCH  15  18
ATOM     18  C   UNL d   1      57.556  49.242  50.180  0.00  0.00     0.092 A 
ATOM     19  C   UNL d   1      57.013  49.462  50.750  0.00  0.00     0.156 A 
ATOM     20  F   UNL d   1      57.241  49.449  51.554  0.00  0.00    -0.203 F 
ATOM     21  C   UNL d   1      56.252  49.694  50.538  0.00  0.00     0.031 A 
ATOM     22  C   UNL d   1      56.036  49.704  49.744  0.00  0.00     0.002 A 
ATOM     23  C   UNL d   1      56.578  49.483  49.174  0.00  0.00     0.002 A 
ATOM     24  C   UNL d   1      57.333  49.253  49.383  0.00  0.00     0.020 A 
ENDBRANCH  15  18
ENDBRANCH   1  12
BRANCH   1  25
ATOM     25  C   UNL d   1      61.033  48.687  51.574  0.00  0.00     0.017 A 
ATOM     26  C   UNL d   1      61.508  49.315  51.363  0.00  0.00     0.002 A 
ATOM     27  C   UNL d   1      61.921  49.708  51.934  0.00  0.00     0.000 A 
ATOM     28  C   UNL d   1      61.869  49.479  52.740  0.00  0.00     0.000 A 
ATOM     29  C   UNL d   1      61.398  48.858  52.941  0.00  0.00     0.000 A 
ATOM     30  C   UNL d   1      60.968  48.447  52.365  0.00  0.00     0.002 A 
ENDBRANCH   1  25
TORSDOF 4
ENDMDL
