MODEL 1
REMARK VINA RESULT:      -6.7      0.000      0.000
REMARK  4 active torsions:
REMARK  status: ('A' for Active; 'I' for Inactive)
REMARK    1  A    between atoms: C_8  and  C_1 
REMARK    2  A    between atoms: C_10  and  C_7 
REMARK    3  A    between atoms: N_9  and  C_10 
REMARK    4  A    between atoms: O_23  and  C_15 
ROOT
ATOM      1  C   UNL d   1     -39.162  14.562  18.138  0.00  0.00     0.064 A 
ATOM      2  C   UNL d   1     -39.711  15.084  19.610  0.00  0.00     0.107 A 
ATOM      3  C   UNL d   1     -39.899  14.319  18.415  0.00  0.00     0.199 A 
ATOM      4  C   UNL d   1     -40.178  14.578  19.152  0.00  0.00     0.062 A 
ATOM      5  C   UNL d   1     -38.689  15.074  18.601  0.00  0.00     0.103 A 
ATOM      6  O   UNL d   1     -38.966  15.336  19.341  0.00  0.00    -0.307 OA
ATOM      7  C   UNL d   1     -39.982  15.346  20.344  0.00  0.00     0.079 A 
ATOM      8  C   UNL d   1     -40.915  14.337  19.432  0.00  0.00     0.009 A 
ATOM      9  C   UNL d   1     -40.714  15.103  20.615  0.00  0.00     0.199 A 
ATOM     10  O   UNL d   1     -40.362  13.818  17.963  0.00  0.00    -0.286 OA
ATOM     11  C   UNL d   1     -41.181  14.597  20.157  0.00  0.00     0.042 A 
ATOM     12  C   UNL d   1     -37.951  15.318  18.324  0.00  0.00     0.027 C 
ATOM     13  O   UNL d   1     -40.990  15.365  21.354  0.00  0.00    -0.286 OA
ENDROOT
BRANCH   1  14
ATOM     14  C   UNL d   1     -38.891  14.301  17.405  0.00  0.00     0.027 A 
ATOM     15  C   UNL d   1     -38.481  13.584  17.346  0.00  0.00     0.094 A 
ATOM     16  C   UNL d   1     -38.214  13.330  16.609  0.00  0.00     0.024 A 
ATOM     17  C   UNL d   1     -38.352  13.784  15.934  0.00  0.00     0.002 A 
ATOM     18  C   UNL d   1     -38.762  14.499  15.996  0.00  0.00     0.000 A 
ATOM     19  C   UNL d   1     -39.033  14.762  16.730  0.00  0.00     0.002 A 
BRANCH  15  20
ATOM     20  O   UNL d   1     -38.343  13.131  18.021  0.00  0.00    -0.328 OA
ATOM     21  C   UNL d   1     -37.940  12.412  17.957  0.00  0.00     0.181 C 
ENDBRANCH  15  20
ENDBRANCH   1  14
BRANCH   7  22
ATOM     22  C   UNL d   1     -39.515  15.852  20.802  0.00  0.00     0.086 C 
BRANCH  22  23
ATOM     23  N   UNL d   1     -39.182  15.583  21.506  0.00  0.00    -0.300 N 
ATOM     24  C   UNL d   1     -38.628  14.972  21.492  0.00  0.00     0.100 A 
ATOM     25  C   UNL d   1     -38.287  14.695  22.203  0.00  0.00     0.100 A 
ATOM     26  N   UNL d   1     -38.506  15.033  22.916  0.00  0.00    -0.299 N 
ATOM     27  C   UNL d   1     -39.068  15.652  22.924  0.00  0.00     0.100 A 
ATOM     28  C   UNL d   1     -38.179  14.772  23.623  0.00  0.00     0.100 C 
ATOM     29  C   UNL d   1     -39.401  15.922  22.219  0.00  0.00     0.100 A 
ENDBRANCH  22  23
ENDBRANCH   7  22
TORSDOF 4
ENDMDL
MODEL 2
REMARK VINA RESULT:      -6.5      7.692      9.937
REMARK  4 active torsions:
REMARK  status: ('A' for Active; 'I' for Inactive)
REMARK    1  A    between atoms: C_8  and  C_1 
REMARK    2  A    between atoms: C_10  and  C_7 
REMARK    3  A    between atoms: N_9  and  C_10 
REMARK    4  A    between atoms: O_23  and  C_15 
ROOT
ATOM      1  C   UNL d   1     -48.923  13.533  23.014  0.00  0.00     0.064 A 
ATOM      2  C   UNL d   1     -47.495  12.754  23.316  0.00  0.00     0.107 A 
ATOM      3  C   UNL d   1     -48.908  12.712  23.095  0.00  0.00     0.199 A 
ATOM      4  C   UNL d   1     -48.194  12.318  23.246  0.00  0.00     0.062 A 
ATOM      5  C   UNL d   1     -48.216  13.974  23.085  0.00  0.00     0.103 A 
ATOM      6  O   UNL d   1     -47.498  13.581  23.237  0.00  0.00    -0.307 OA
ATOM      7  C   UNL d   1     -46.781  12.368  23.467  0.00  0.00     0.079 A 
ATOM      8  C   UNL d   1     -48.175  11.499  23.327  0.00  0.00     0.009 A 
ATOM      9  C   UNL d   1     -46.770  11.555  23.546  0.00  0.00     0.199 A 
ATOM     10  O   UNL d   1     -49.600  12.281  23.025  0.00  0.00    -0.286 OA
ATOM     11  C   UNL d   1     -47.470  11.119  23.476  0.00  0.00     0.042 A 
ATOM     12  C   UNL d   1     -48.231  14.795  23.005  0.00  0.00     0.027 C 
ATOM     13  O   UNL d   1     -46.053  11.162  23.698  0.00  0.00    -0.286 OA
ENDROOT
BRANCH   1  14
ATOM     14  C   UNL d   1     -49.637  13.919  22.864  0.00  0.00     0.027 A 
ATOM     15  C   UNL d   1     -49.915  13.987  22.088  0.00  0.00     0.094 A 
ATOM     16  C   UNL d   1     -50.629  14.373  21.946  0.00  0.00     0.024 A 
ATOM     17  C   UNL d   1     -51.064  14.691  22.571  0.00  0.00     0.002 A 
ATOM     18  C   UNL d   1     -50.783  14.621  23.345  0.00  0.00     0.000 A 
ATOM     19  C   UNL d   1     -50.069  14.236  23.496  0.00  0.00     0.002 A 
BRANCH  15  20
ATOM     20  O   UNL d   1     -49.480  13.669  21.464  0.00  0.00    -0.328 OA
ATOM     21  C   UNL d   1     -49.797  13.668  20.700  0.00  0.00     0.181 C 
ENDBRANCH  15  20
ENDBRANCH   1  14
BRANCH   7  22
ATOM     22  C   UNL d   1     -46.081  12.804  23.537  0.00  0.00     0.086 C 
BRANCH  22  23
ATOM     23  N   UNL d   1     -45.507  12.760  22.948  0.00  0.00    -0.300 N 
ATOM     24  C   UNL d   1     -45.471  13.342  22.365  0.00  0.00     0.100 A 
ATOM     25  C   UNL d   1     -44.890  13.303  21.765  0.00  0.00     0.100 A 
ATOM     26  N   UNL d   1     -44.355  12.683  21.758  0.00  0.00    -0.299 N 
ATOM     27  C   UNL d   1     -44.397  12.096  22.352  0.00  0.00     0.100 A 
ATOM     28  C   UNL d   1     -43.778  12.630  21.175  0.00  0.00     0.100 C 
ATOM     29  C   UNL d   1     -44.972  12.139  22.942  0.00  0.00     0.100 A 
ENDBRANCH  22  23
ENDBRANCH   7  22
TORSDOF 4
ENDMDL
MODEL 3
REMARK VINA RESULT:      -5.8      7.487      9.755
REMARK  4 active torsions:
REMARK  status: ('A' for Active; 'I' for Inactive)
REMARK    1  A    between atoms: C_8  and  C_1 
REMARK    2  A    between atoms: C_10  and  C_7 
REMARK    3  A    between atoms: N_9  and  C_10 
REMARK    4  A    between atoms: O_23  and  C_15 
ROOT
ATOM      1  C   UNL d   1     -48.732  12.811  22.750  0.00  0.00     0.064 A 
ATOM      2  C   UNL d   1     -47.170  13.251  22.423  0.00  0.00     0.107 A 
ATOM      3  C   UNL d   1     -48.413  13.491  23.091  0.00  0.00     0.199 A 
ATOM      4  C   UNL d   1     -47.631  13.715  22.929  0.00  0.00     0.062 A 
ATOM      5  C   UNL d   1     -48.266  12.342  22.238  0.00  0.00     0.103 A 
ATOM      6  O   UNL d   1     -47.480  12.564  22.075  0.00  0.00    -0.307 OA
ATOM      7  C   UNL d   1     -46.391  13.468  22.259  0.00  0.00     0.079 A 
ATOM      8  C   UNL d   1     -47.309  14.394  23.268  0.00  0.00     0.009 A 
ATOM      9  C   UNL d   1     -46.079  14.143  22.598  0.00  0.00     0.199 A 
ATOM     10  O   UNL d   1     -48.869  13.951  23.591  0.00  0.00    -0.286 OA
ATOM     11  C   UNL d   1     -46.540  14.607  23.104  0.00  0.00     0.042 A 
ATOM     12  C   UNL d   1     -48.584  11.661  21.898  0.00  0.00     0.027 C 
ATOM     13  O   UNL d   1     -45.294  14.365  22.435  0.00  0.00    -0.286 OA
ENDROOT
BRANCH   1  14
ATOM     14  C   UNL d   1     -49.510  12.594  22.915  0.00  0.00     0.027 A 
ATOM     15  C   UNL d   1     -50.131  12.905  22.464  0.00  0.00     0.094 A 
ATOM     16  C   UNL d   1     -50.906  12.683  22.635  0.00  0.00     0.024 A 
ATOM     17  C   UNL d   1     -51.064  12.156  23.250  0.00  0.00     0.002 A 
ATOM     18  C   UNL d   1     -50.442  11.848  23.698  0.00  0.00     0.000 A 
ATOM     19  C   UNL d   1     -49.663  12.064  23.534  0.00  0.00     0.002 A 
BRANCH  15  20
ATOM     20  O   UNL d   1     -49.972  13.432  21.850  0.00  0.00    -0.328 OA
ATOM     21  C   UNL d   1     -50.567  13.624  21.309  0.00  0.00     0.181 C 
ENDBRANCH  15  20
ENDBRANCH   1  14
BRANCH   7  22
ATOM     22  C   UNL d   1     -45.930  13.004  21.753  0.00  0.00     0.086 C 
BRANCH  22  23
ATOM     23  N   UNL d   1     -45.296  12.571  22.052  0.00  0.00    -0.300 N 
ATOM     24  C   UNL d   1     -44.537  12.692  21.752  0.00  0.00     0.100 A 
ATOM     25  C   UNL d   1     -43.890  12.257  22.051  0.00  0.00     0.100 A 
ATOM     26  N   UNL d   1     -44.012  11.707  22.646  0.00  0.00    -0.299 N 
ATOM     27  C   UNL d   1     -44.783  11.589  22.947  0.00  0.00     0.100 A 
ATOM     28  C   UNL d   1     -43.386  11.270  22.952  0.00  0.00     0.100 C 
ATOM     29  C   UNL d   1     -45.418  12.022  22.647  0.00  0.00     0.100 A 
ENDBRANCH  22  23
ENDBRANCH   7  22
TORSDOF 4
ENDMDL
