MODEL 1
REMARK VINA RESULT:      -2.7      0.000      0.000
REMARK  2 active torsions:
REMARK  status: ('A' for Active; 'I' for Inactive)
REMARK    1  A    between atoms: S_5  and  C_3 
REMARK    2  A    between atoms: C_12  and  S_5 
ROOT
ATOM      1  C   UNL d   1     -41.869-121.967 -50.425  0.00  0.00     0.155 A 
ATOM      2  C   UNL d   1     -42.239-122.593 -50.796  0.00  0.00     0.092 A 
ATOM      3  C   UNL d   1     -41.875-122.065 -52.056  0.00  0.00     0.124 A 
ATOM      4  N   UNL d   1     -41.867-121.919 -49.602  0.00  0.00    -0.210 NA
ATOM      5  N   UNL d   1     -41.503-121.392 -50.863  0.00  0.00    -0.272 N 
ATOM      6  C   UNL d   1     -41.501-121.432 -51.681  0.00  0.00     0.181 A 
ATOM      7  C   UNL d   1     -42.609-123.176 -50.351  0.00  0.00     0.269 A 
ATOM      8  N   UNL d   1     -42.606-123.126 -49.533  0.00  0.00    -0.258 N 
ATOM      9  C   UNL d   1     -42.243-122.645 -51.611  0.00  0.00     0.022 A 
ATOM     10  C   UNL d   1     -42.231-122.492 -49.162  0.00  0.00     0.152 A 
ATOM     11  N   UNL d   1     -41.126-120.841 -52.125  0.00  0.00    -0.128 N 
ATOM     12  C   UNL d   1     -42.974-123.705 -49.077  0.00  0.00     0.084 A 
ATOM     13  O   UNL d   1     -42.988-123.817 -50.726  0.00  0.00    -0.266 OA
ATOM     14  C   UNL d   1     -42.228-122.443 -48.340  0.00  0.00     0.038 A 
ATOM     15  C   UNL d   1     -42.967-123.650 -48.270  0.00  0.00     0.019 A 
ATOM     16  C   UNL d   1     -42.592-123.016 -47.899  0.00  0.00     0.005 A 
ATOM     17  C   UNL d   1     -41.123-120.748 -50.482  0.00  0.00     0.102 C 
ENDROOT
BRANCH   3  18
ATOM     18  S   UNL d   1     -41.876-122.111 -52.883  0.00  0.00     0.213 S 
ATOM     19  O   UNL d   1     -41.178-122.568 -52.870  0.00  0.00    -0.217 OA
ATOM     20  O   UNL d   1     -42.569-121.658 -52.908  0.00  0.00    -0.217 OA
BRANCH  18  21
ATOM     21  C   UNL d   1     -41.887-122.152 -53.718  0.00  0.00     0.088 A 
ATOM     22  C   UNL d   1     -42.441-121.711 -54.147  0.00  0.00     0.014 A 
ATOM     23  C   UNL d   1     -42.452-121.751 -54.982  0.00  0.00     0.030 A 
ATOM     24  C   UNL d   1     -41.909-122.233 -55.382  0.00  0.00     0.140 A 
ATOM     25  C   UNL d   1     -41.349-122.678 -54.939  0.00  0.00     0.030 A 
ATOM     26  F   UNL d   1     -41.914-122.278 -56.209  0.00  0.00    -0.204 F 
ATOM     27  C   UNL d   1     -41.339-122.637 -54.110  0.00  0.00     0.014 A 
ENDBRANCH  18  21
ENDBRANCH   3  18
TORSDOF 2
ENDMDL
