MODEL 1
REMARK VINA RESULT:      96.1      0.000      0.000
REMARK  7 active torsions:
REMARK  status: ('A' for Active; 'I' for Inactive)
REMARK    1  A    between atoms: S_2  and  C_1 
REMARK    2  A    between atoms: C_6  and  S_2 
REMARK    3  A    between atoms: C_24  and  C_16 
REMARK    4  A    between atoms: C_25  and  C_24 
REMARK    5  A    between atoms: C_28  and  C_25 
REMARK    6  A    between atoms: C_26  and  C_27 
REMARK    7  A    between atoms: C_27  and  C_28 
ROOT
ATOM      1  C   UNL d   1      61.563  46.201  50.073  0.00  0.00     0.151 A 
ATOM      2  C   UNL d   1      62.217  46.692  49.966  0.00  0.00     0.311 A 
ATOM      3  C   UNL d   1      60.865  46.506  50.383  0.00  0.00     0.019 A 
ATOM      4  O   UNL d   1      62.173  47.488  50.169  0.00  0.00    -0.272 OA
ATOM      5  C   UNL d   1      61.474  47.794  50.480  0.00  0.00     0.106 A 
ATOM      6  C   UNL d   1      60.820  47.303  50.587  0.00  0.00     0.024 A 
ATOM      7  C   UNL d   1      61.430  48.590  50.683  0.00  0.00     0.067 A 
ATOM      8  C   UNL d   1      60.724  48.906  50.999  0.00  0.00     0.198 A 
ATOM      9  C   UNL d   1      60.122  47.608  50.897  0.00  0.00     0.005 A 
ATOM     10  C   UNL d   1      60.070  48.415  51.105  0.00  0.00     0.039 A 
ATOM     11  O   UNL d   1      62.929  46.382  49.650  0.00  0.00    -0.258 OA
ATOM     12  O   UNL d   1      60.680  49.702  51.202  0.00  0.00    -0.286 OA
ENDROOT
BRANCH   1  13
ATOM     13  S   UNL d   1      61.614  45.395  49.864  0.00  0.00     0.215 S 
ATOM     14  O   UNL d   1      61.611  45.187  50.672  0.00  0.00    -0.217 OA
ATOM     15  O   UNL d   1      61.617  45.600  49.060  0.00  0.00    -0.217 OA
BRANCH  13  16
ATOM     16  C   UNL d   1      61.665  44.598  49.666  0.00  0.00     0.089 A 
ATOM     17  C   UNL d   1      62.151  44.093  50.105  0.00  0.00     0.025 A 
ATOM     18  C   UNL d   1      62.205  43.287  49.908  0.00  0.00     0.086 A 
ATOM     19 CL   UNL d   1      62.690  42.786  50.347  0.00  0.00    -0.080 Cl
ATOM     20  C   UNL d   1      61.772  42.991  49.272  0.00  0.00     0.151 A 
ATOM     21  C   UNL d   1      61.287  43.492  48.834  0.00  0.00     0.031 A 
ATOM     22  F   UNL d   1      61.825  42.189  49.075  0.00  0.00    -0.203 F 
ATOM     23  C   UNL d   1      61.236  44.289  49.032  0.00  0.00     0.014 A 
ENDBRANCH  13  16
ENDBRANCH   1  13
BRANCH  10  24
ATOM     24  C   UNL d   1      59.367  48.726  51.418  0.00  0.00     0.003 C 
BRANCH  24  25
ATOM     25  C   UNL d   1      58.859  49.172  50.946  0.00  0.00     0.000 C 
BRANCH  25  26
ATOM     26  C   UNL d   1      58.148  49.454  51.251  0.00  0.00     0.000 C 
BRANCH  26  27
ATOM     27  C   UNL d   1      57.544  49.705  50.747  0.00  0.00     0.000 C 
BRANCH  27  28
ATOM     28  C   UNL d   1      57.140  49.165  50.269  0.00  0.00     0.000 C 
ATOM     29  C   UNL d   1      56.338  49.030  50.383  0.00  0.00     0.000 C 
ENDBRANCH  27  28
ENDBRANCH  26  27
ENDBRANCH  25  26
ENDBRANCH  24  25
ENDBRANCH  10  24
TORSDOF 7
ENDMDL
MODEL 2
REMARK VINA RESULT:      96.5      1.121      1.390
REMARK  7 active torsions:
REMARK  status: ('A' for Active; 'I' for Inactive)
REMARK    1  A    between atoms: S_2  and  C_1 
REMARK    2  A    between atoms: C_6  and  S_2 
REMARK    3  A    between atoms: C_24  and  C_16 
REMARK    4  A    between atoms: C_25  and  C_24 
REMARK    5  A    between atoms: C_28  and  C_25 
REMARK    6  A    between atoms: C_26  and  C_27 
REMARK    7  A    between atoms: C_27  and  C_28 
ROOT
ATOM      1  C   UNL d   1      61.425  46.012  50.488  0.00  0.00     0.151 A 
ATOM      2  C   UNL d   1      61.669  46.183  49.719  0.00  0.00     0.311 A 
ATOM      3  C   UNL d   1      61.136  46.612  50.972  0.00  0.00     0.019 A 
ATOM      4  O   UNL d   1      61.624  46.953  49.433  0.00  0.00    -0.272 OA
ATOM      5  C   UNL d   1      61.335  47.554  49.917  0.00  0.00     0.106 A 
ATOM      6  C   UNL d   1      61.091  47.383  50.687  0.00  0.00     0.024 A 
ATOM      7  C   UNL d   1      61.290  48.324  49.631  0.00  0.00     0.067 A 
ATOM      8  C   UNL d   1      60.998  48.937  50.117  0.00  0.00     0.198 A 
ATOM      9  C   UNL d   1      60.803  47.983  51.170  0.00  0.00     0.005 A 
ATOM     10  C   UNL d   1      60.755  48.767  50.887  0.00  0.00     0.039 A 
ATOM     11  O   UNL d   1      61.963  45.572  49.225  0.00  0.00    -0.258 OA
ATOM     12  O   UNL d   1      60.954  49.708  49.831  0.00  0.00    -0.286 OA
ENDROOT
BRANCH   1  13
ATOM     13  S   UNL d   1      61.473  45.229  50.771  0.00  0.00     0.215 S 
ATOM     14  O   UNL d   1      61.859  44.999  50.069  0.00  0.00    -0.217 OA
ATOM     15  O   UNL d   1      61.088  45.455  51.471  0.00  0.00    -0.217 OA
BRANCH  13  16
ATOM     16  C   UNL d   1      61.524  44.454  51.045  0.00  0.00     0.089 A 
ATOM     17  C   UNL d   1      62.169  43.982  50.831  0.00  0.00     0.025 A 
ATOM     18  C   UNL d   1      62.224  43.200  51.105  0.00  0.00     0.086 A 
ATOM     19 CL   UNL d   1      62.867  42.731  50.890  0.00  0.00    -0.080 Cl
ATOM     20  C   UNL d   1      61.633  42.893  51.592  0.00  0.00     0.151 A 
ATOM     21  C   UNL d   1      60.990  43.362  51.806  0.00  0.00     0.031 A 
ATOM     22  F   UNL d   1      61.687  42.115  51.865  0.00  0.00    -0.203 F 
ATOM     23  C   UNL d   1      60.939  44.137  51.533  0.00  0.00     0.014 A 
ENDBRANCH  13  16
ENDBRANCH   1  13
BRANCH  10  24
ATOM     24  C   UNL d   1      60.464  49.374  51.371  0.00  0.00     0.003 C 
BRANCH  24  25
ATOM     25  C   UNL d   1      59.661  49.418  51.554  0.00  0.00     0.000 C 
BRANCH  25  26
ATOM     26  C   UNL d   1      59.102  49.502  50.955  0.00  0.00     0.000 C 
BRANCH  26  27
ATOM     27  C   UNL d   1      58.299  49.568  51.135  0.00  0.00     0.000 C 
BRANCH  27  28
ATOM     28  C   UNL d   1      57.739  49.678  50.536  0.00  0.00     0.000 C 
ATOM     29  C   UNL d   1      56.946  49.523  50.679  0.00  0.00     0.000 C 
ENDBRANCH  27  28
ENDBRANCH  26  27
ENDBRANCH  25  26
ENDBRANCH  24  25
ENDBRANCH  10  24
TORSDOF 7
ENDMDL
MODEL 3
REMARK VINA RESULT:      96.8      2.698      5.524
REMARK  7 active torsions:
REMARK  status: ('A' for Active; 'I' for Inactive)
REMARK    1  A    between atoms: S_2  and  C_1 
REMARK    2  A    between atoms: C_6  and  S_2 
REMARK    3  A    between atoms: C_24  and  C_16 
REMARK    4  A    between atoms: C_25  and  C_24 
REMARK    5  A    between atoms: C_28  and  C_25 
REMARK    6  A    between atoms: C_26  and  C_27 
REMARK    7  A    between atoms: C_27  and  C_28 
ROOT
ATOM      1  C   UNL d   1      59.915  48.459  50.623  0.00  0.00     0.151 A 
ATOM      2  C   UNL d   1      60.548  48.953  50.811  0.00  0.00     0.311 A 
ATOM      3  C   UNL d   1      60.053  47.719  50.293  0.00  0.00     0.019 A 
ATOM      4  O   UNL d   1      61.321  48.706  50.669  0.00  0.00    -0.272 OA
ATOM      5  C   UNL d   1      61.459  47.964  50.339  0.00  0.00     0.106 A 
ATOM      6  C   UNL d   1      60.825  47.471  50.150  0.00  0.00     0.024 A 
ATOM      7  C   UNL d   1      62.231  47.717  50.197  0.00  0.00     0.067 A 
ATOM      8  C   UNL d   1      62.378  46.966  49.861  0.00  0.00     0.198 A 
ATOM      9  C   UNL d   1      60.964  46.730  49.820  0.00  0.00     0.005 A 
ATOM     10  C   UNL d   1      61.744  46.473  49.673  0.00  0.00     0.039 A 
ATOM     11  O   UNL d   1      60.408  49.708  51.148  0.00  0.00    -0.258 OA
ATOM     12  O   UNL d   1      63.150  46.719  49.719  0.00  0.00    -0.286 OA
ENDROOT
BRANCH   1  13
ATOM     13  S   UNL d   1      59.135  48.716  50.769  0.00  0.00     0.215 S 
ATOM     14  O   UNL d   1      58.998  48.035  51.231  0.00  0.00    -0.217 OA
ATOM     15  O   UNL d   1      59.268  49.395  50.310  0.00  0.00    -0.217 OA
BRANCH  13  16
ATOM     16  C   UNL d   1      58.364  48.963  50.918  0.00  0.00     0.089 A 
ATOM     17  C   UNL d   1      57.779  48.861  50.342  0.00  0.00     0.025 A 
ATOM     18  C   UNL d   1      57.000  49.110  50.487  0.00  0.00     0.086 A 
ATOM     19 CL   UNL d   1      56.419  49.007  49.912  0.00  0.00    -0.080 Cl
ATOM     20  C   UNL d   1      56.809  49.459  51.210  0.00  0.00     0.151 A 
ATOM     21  C   UNL d   1      57.391  49.561  51.784  0.00  0.00     0.031 A 
ATOM     22  F   UNL d   1      56.034  49.707  51.356  0.00  0.00    -0.203 F 
ATOM     23  C   UNL d   1      58.161  49.314  51.637  0.00  0.00     0.014 A 
ENDBRANCH  13  16
ENDBRANCH   1  13
BRANCH  10  24
ATOM     24  C   UNL d   1      61.888  45.727  49.340  0.00  0.00     0.003 C 
BRANCH  24  25
ATOM     25  C   UNL d   1      61.594  45.044  49.697  0.00  0.00     0.000 C 
BRANCH  25  26
ATOM     26  C   UNL d   1      61.698  44.309  49.340  0.00  0.00     0.000 C 
BRANCH  26  27
ATOM     27  C   UNL d   1      62.139  43.719  49.711  0.00  0.00     0.000 C 
BRANCH  27  28
ATOM     28  C   UNL d   1      62.244  43.721  50.532  0.00  0.00     0.000 C 
ATOM     29  C   UNL d   1      62.009  43.076  50.980  0.00  0.00     0.000 C 
ENDBRANCH  27  28
ENDBRANCH  26  27
ENDBRANCH  25  26
ENDBRANCH  24  25
ENDBRANCH  10  24
TORSDOF 7
ENDMDL
