MODEL 1
REMARK VINA RESULT:      -0.2      0.000      0.000
REMARK  2 active torsions:
REMARK  status: ('A' for Active; 'I' for Inactive)
REMARK    1  A    between atoms: N_9  and  C_3 
REMARK    2  A    between atoms: C_11  and  C_4 
ROOT
ATOM      1  N   UNL d   1      30.455  16.843 -24.088  0.00  0.00    -0.196 N 
ATOM      2  C   UNL d   1      29.619  16.699 -24.019  0.00  0.00     0.167 A 
ATOM      3  C   UNL d   1      30.703  17.522 -24.448  0.00  0.00     0.153 A 
ATOM      4  C   UNL d   1      29.352  16.022 -23.661  0.00  0.00     0.057 A 
ATOM      5  N   UNL d   1      30.710  15.608 -23.430  0.00  0.00    -0.161 NA
ATOM      6  N   UNL d   1      29.086  17.243 -24.312  0.00  0.00    -0.227 NA
ATOM      7  C   UNL d   1      30.174  18.078 -24.748  0.00  0.00     0.057 A 
ATOM      8  C   UNL d   1      29.900  15.468 -23.362  0.00  0.00     0.124 A 
ATOM      9  C   UNL d   1      29.351  17.936 -24.679  0.00  0.00     0.086 A 
ATOM     10  C   UNL d   1      28.790  18.510 -24.988  0.00  0.00     0.021 C 
ENDROOT
BRANCH   4  11
ATOM     11  C   UNL d   1      28.541  15.882 -23.593  0.00  0.00     0.005 A 
ATOM     12  C   UNL d   1      28.162  16.032 -22.888  0.00  0.00     0.001 A 
ATOM     13  C   UNL d   1      27.352  15.893 -22.820  0.00  0.00     0.011 A 
ATOM     14  C   UNL d   1      26.935  15.605 -23.459  0.00  0.00     0.058 A 
ATOM     15  C   UNL d   1      27.328  15.456 -24.165  0.00  0.00     0.011 A 
ATOM     16 CL   UNL d   1      26.085  15.458 -23.388  0.00  0.00    -0.082 Cl
ATOM     17  C   UNL d   1      28.125  15.594 -24.231  0.00  0.00     0.001 A 
ENDBRANCH   4  11
BRANCH   3  18
ATOM     18  N   UNL d   1      31.547  17.671 -24.520  0.00  0.00    -0.285 N 
ATOM     19  C   UNL d   1      32.027  17.172 -25.026  0.00  0.00     0.108 A 
ATOM     20  C   UNL d   1      32.862  17.323 -25.096  0.00  0.00     0.142 A 
ATOM     21  O   UNL d   1      33.234  17.976 -24.660  0.00  0.00    -0.300 OA
ATOM     22  C   UNL d   1      32.734  18.465 -24.157  0.00  0.00     0.142 A 
ATOM     23  C   UNL d   1      31.899  18.315 -24.088  0.00  0.00     0.108 A 
ENDBRANCH   3  18
TORSDOF 2
ENDMDL
MODEL 2
REMARK VINA RESULT:       0.4      3.533      4.960
REMARK  2 active torsions:
REMARK  status: ('A' for Active; 'I' for Inactive)
REMARK    1  A    between atoms: N_9  and  C_3 
REMARK    2  A    between atoms: C_11  and  C_4 
ROOT
ATOM      1  N   UNL d   1      32.788  20.295 -23.630  0.00  0.00    -0.196 N 
ATOM      2  C   UNL d   1      32.755  19.456 -23.491  0.00  0.00     0.167 A 
ATOM      3  C   UNL d   1      32.967  20.784 -23.013  0.00  0.00     0.153 A 
ATOM      4  C   UNL d   1      32.576  18.950 -24.099  0.00  0.00     0.057 A 
ATOM      5  N   UNL d   1      32.458  20.068 -24.995  0.00  0.00    -0.161 NA
ATOM      6  N   UNL d   1      32.902  19.162 -22.743  0.00  0.00    -0.227 NA
ATOM      7  C   UNL d   1      33.118  20.497 -22.255  0.00  0.00     0.057 A 
ATOM      8  C   UNL d   1      32.426  19.255 -24.860  0.00  0.00     0.124 A 
ATOM      9  C   UNL d   1      33.085  19.671 -22.118  0.00  0.00     0.086 A 
ATOM     10  C   UNL d   1      33.241  19.361 -21.331  0.00  0.00     0.021 C 
ENDROOT
BRANCH   4  11
ATOM     11  C   UNL d   1      32.544  18.136 -23.964  0.00  0.00     0.005 A 
ATOM     12  C   UNL d   1      31.840  17.791 -23.741  0.00  0.00     0.001 A 
ATOM     13  C   UNL d   1      31.808  16.977 -23.606  0.00  0.00     0.011 A 
ATOM     14  C   UNL d   1      32.479  16.524 -23.696  0.00  0.00     0.058 A 
ATOM     15  C   UNL d   1      33.183  16.883 -23.921  0.00  0.00     0.011 A 
ATOM     16 CL   UNL d   1      32.445  15.671 -23.554  0.00  0.00    -0.082 Cl
ATOM     17  C   UNL d   1      33.215  17.684 -24.054  0.00  0.00     0.001 A 
ENDBRANCH   4  11
BRANCH   3  18
ATOM     18  N   UNL d   1      33.002  21.632 -23.150  0.00  0.00    -0.285 N 
ATOM     19  C   UNL d   1      33.207  21.932 -23.927  0.00  0.00     0.108 A 
ATOM     20  C   UNL d   1      33.241  22.772 -24.059  0.00  0.00     0.142 A 
ATOM     21  O   UNL d   1      33.069  23.330 -23.416  0.00  0.00    -0.300 OA
ATOM     22  C   UNL d   1      32.865  23.009 -22.643  0.00  0.00     0.142 A 
ATOM     23  C   UNL d   1      32.832  22.169 -22.511  0.00  0.00     0.108 A 
ENDBRANCH   3  18
TORSDOF 2
ENDMDL
MODEL 3
REMARK VINA RESULT:       1.4      3.545      5.381
REMARK  2 active torsions:
REMARK  status: ('A' for Active; 'I' for Inactive)
REMARK    1  A    between atoms: N_9  and  C_3 
REMARK    2  A    between atoms: C_11  and  C_4 
ROOT
ATOM      1  N   UNL d   1      32.728  18.466 -22.898  0.00  0.00    -0.196 N 
ATOM      2  C   UNL d   1      32.729  19.317 -22.920  0.00  0.00     0.167 A 
ATOM      3  C   UNL d   1      32.474  18.062 -23.549  0.00  0.00     0.153 A 
ATOM      4  C   UNL d   1      32.981  19.740 -22.275  0.00  0.00     0.057 A 
ATOM      5  N   UNL d   1      33.238  18.513 -21.571  0.00  0.00    -0.161 NA
ATOM      6  N   UNL d   1      32.476  19.707 -23.591  0.00  0.00    -0.227 NA
ATOM      7  C   UNL d   1      32.217  18.446 -24.231  0.00  0.00     0.057 A 
ATOM      8  C   UNL d   1      33.239  19.337 -21.592  0.00  0.00     0.124 A 
ATOM      9  C   UNL d   1      32.218  19.284 -24.253  0.00  0.00     0.086 A 
ATOM     10  C   UNL d   1      31.951  19.694 -24.960  0.00  0.00     0.021 C 
ENDROOT
BRANCH   4  11
ATOM     11  C   UNL d   1      32.982  20.565 -22.296  0.00  0.00     0.005 A 
ATOM     12  C   UNL d   1      33.240  20.953 -22.965  0.00  0.00     0.001 A 
ATOM     13  C   UNL d   1      33.241  21.778 -22.985  0.00  0.00     0.011 A 
ATOM     14  C   UNL d   1      32.983  22.200 -22.338  0.00  0.00     0.058 A 
ATOM     15  C   UNL d   1      32.725  21.799 -21.669  0.00  0.00     0.011 A 
ATOM     16 CL   UNL d   1      32.984  23.065 -22.360  0.00  0.00    -0.082 Cl
ATOM     17  C   UNL d   1      32.725  20.987 -21.648  0.00  0.00     0.001 A 
ENDBRANCH   4  11
BRANCH   3  18
ATOM     18  N   UNL d   1      32.472  17.202 -23.531  0.00  0.00    -0.285 N 
ATOM     19  C   UNL d   1      31.775  16.782 -23.259  0.00  0.00     0.108 A 
ATOM     20  C   UNL d   1      31.776  15.931 -23.243  0.00  0.00     0.142 A 
ATOM     21  O   UNL d   1      32.475  15.482 -23.498  0.00  0.00    -0.300 OA
ATOM     22  C   UNL d   1      33.165  15.923 -23.767  0.00  0.00     0.142 A 
ATOM     23  C   UNL d   1      33.163  16.774 -23.784  0.00  0.00     0.108 A 
ENDBRANCH   3  18
TORSDOF 2
ENDMDL
