MODEL 1
REMARK VINA RESULT:      -3.3      0.000      0.000
REMARK  6 active torsions:
REMARK  status: ('A' for Active; 'I' for Inactive)
REMARK    1  A    between atoms: C_2  and  C_1 
REMARK    2  A    between atoms: C_6  and  C_1 
REMARK       I    between atoms: N_10  and  C_2 
REMARK    3  A    between atoms: C_14  and  C_3 
REMARK    4  A    between atoms: C_4  and  C_12 
REMARK    5  A    between atoms: C_7  and  C_6 
REMARK    6  A    between atoms: C_15  and  N_10 
ROOT
ATOM      1  C   UNL d   1      32.616  17.258 -23.814  0.00  0.00     0.128 C 
ATOM      2  C   UNL d   1      32.850  16.732 -23.230  0.00  0.00     0.106 C 
ATOM      3  N   UNL d   1      33.103  16.215 -22.642  0.00  0.00    -0.191 NA
ENDROOT
BRANCH   1   4
ATOM      4  C   UNL d   1      31.855  17.146 -24.167  0.00  0.00     0.289 C 
ATOM      5  N   UNL d   1      31.254  16.821 -23.767  0.00  0.00    -0.207 NA
ATOM      6  O   UNL d   1      31.743  17.393 -24.974  0.00  0.00    -0.264 OA
BRANCH   5   7
ATOM      7  C   UNL d   1      30.507  16.714 -24.120  0.00  0.00     0.085 A 
ATOM      8  C   UNL d   1      29.886  17.250 -23.965  0.00  0.00     0.023 A 
ATOM      9  C   UNL d   1      29.152  17.156 -24.305  0.00  0.00     0.073 A 
ATOM     10  C   UNL d   1      29.002  16.513 -24.820  0.00  0.00     0.004 A 
ATOM     11  C   UNL d   1      29.617  15.975 -24.976  0.00  0.00     0.002 A 
ATOM     12  C   UNL d   1      30.350  16.086 -24.626  0.00  0.00     0.019 A 
BRANCH   9  13
ATOM     13  C   UNL d   1      28.579  17.694 -24.132  0.00  0.00     0.419 C 
ATOM     14  F   UNL d   1      27.979  18.206 -23.897  0.00  0.00    -0.166 F 
ATOM     15  F   UNL d   1      28.422  18.408 -24.660  0.00  0.00    -0.166 F 
ATOM     16  F   UNL d   1      28.175  17.566 -23.491  0.00  0.00    -0.166 F 
ENDBRANCH   9  13
ENDBRANCH   5   7
ENDBRANCH   1   4
BRANCH   1  17
ATOM     17  C   UNL d   1      33.095  17.878 -24.061  0.00  0.00     0.040 C 
BRANCH  17  18
ATOM     18  C   UNL d   1      33.026  18.631 -23.696  0.00  0.00     0.101 A 
ATOM     19  O   UNL d   1      33.031  18.752 -22.869  0.00  0.00    -0.307 OA
ATOM     20  C   UNL d   1      32.950  19.569 -22.756  0.00  0.00     0.100 A 
ATOM     21  C   UNL d   1      32.897  19.934 -23.517  0.00  0.00     0.027 A 
ATOM     22  C   UNL d   1      32.947  19.332 -24.080  0.00  0.00     0.027 A 
BRANCH  20  23
ATOM     23  C   UNL d   1      32.917  20.033 -22.055  0.00  0.00     0.024 A 
ATOM     24  C   UNL d   1      32.591  20.794 -22.021  0.00  0.00     0.013 A 
ATOM     25  C   UNL d   1      32.573  21.237 -21.301  0.00  0.00     0.058 A 
ATOM     26 CL   UNL d   1      32.230  22.011 -21.311  0.00  0.00    -0.082 Cl
ATOM     27  C   UNL d   1      32.886  20.902 -20.620  0.00  0.00     0.011 A 
ATOM     28  C   UNL d   1      33.210  20.161 -20.629  0.00  0.00     0.001 A 
ATOM     29  C   UNL d   1      33.241  19.717 -21.299  0.00  0.00     0.002 A 
ENDBRANCH  20  23
ENDBRANCH  17  18
ENDBRANCH   1  17
TORSDOF 6
ENDMDL
MODEL 2
REMARK VINA RESULT:      -3.1      2.902      5.308
REMARK  6 active torsions:
REMARK  status: ('A' for Active; 'I' for Inactive)
REMARK    1  A    between atoms: C_2  and  C_1 
REMARK    2  A    between atoms: C_6  and  C_1 
REMARK       I    between atoms: N_10  and  C_2 
REMARK    3  A    between atoms: C_14  and  C_3 
REMARK    4  A    between atoms: C_4  and  C_12 
REMARK    5  A    between atoms: C_7  and  C_6 
REMARK    6  A    between atoms: C_15  and  N_10 
ROOT
ATOM      1  C   UNL d   1      33.052  19.013 -23.103  0.00  0.00     0.128 C 
ATOM      2  C   UNL d   1      33.145  18.509 -22.463  0.00  0.00     0.106 C 
ATOM      3  N   UNL d   1      33.238  17.988 -21.833  0.00  0.00    -0.191 NA
ENDROOT
BRANCH   1   4
ATOM      4  C   UNL d   1      33.031  19.845 -22.952  0.00  0.00     0.289 C 
ATOM      5  N   UNL d   1      32.966  20.135 -22.219  0.00  0.00    -0.207 NA
ATOM      6  O   UNL d   1      33.082  20.377 -23.616  0.00  0.00    -0.264 OA
BRANCH   5   7
ATOM      7  C   UNL d   1      32.946  20.956 -22.077  0.00  0.00     0.085 A 
ATOM      8  C   UNL d   1      32.621  21.255 -21.369  0.00  0.00     0.023 A 
ATOM      9  C   UNL d   1      32.596  22.055 -21.220  0.00  0.00     0.073 A 
ATOM     10  C   UNL d   1      32.899  22.601 -21.779  0.00  0.00     0.004 A 
ATOM     11  C   UNL d   1      33.224  22.308 -22.486  0.00  0.00     0.002 A 
ATOM     12  C   UNL d   1      33.240  21.499 -22.619  0.00  0.00     0.019 A 
BRANCH   9  13
ATOM     13  C   UNL d   1      32.275  22.304 -20.525  0.00  0.00     0.419 C 
ATOM     14  F   UNL d   1      31.891  22.584 -19.853  0.00  0.00    -0.166 F 
ATOM     15  F   UNL d   1      32.688  22.172 -19.735  0.00  0.00    -0.166 F 
ATOM     16  F   UNL d   1      31.596  22.661 -20.574  0.00  0.00    -0.166 F 
ENDBRANCH   9  13
ENDBRANCH   5   7
ENDBRANCH   1   4
BRANCH   1  17
ATOM     17  C   UNL d   1      32.979  18.733 -23.872  0.00  0.00     0.040 C 
BRANCH  17  18
ATOM     18  C   UNL d   1      32.485  18.074 -24.033  0.00  0.00     0.101 A 
ATOM     19  O   UNL d   1      31.651  18.110 -24.058  0.00  0.00    -0.307 OA
ATOM     20  C   UNL d   1      31.393  17.342 -24.233  0.00  0.00     0.100 A 
ATOM     21  C   UNL d   1      32.076  16.849 -24.312  0.00  0.00     0.027 A 
ATOM     22  C   UNL d   1      32.736  17.326 -24.183  0.00  0.00     0.027 A 
BRANCH  20  23
ATOM     23  C   UNL d   1      30.620  17.023 -24.332  0.00  0.00     0.024 A 
ATOM     24  C   UNL d   1      30.298  16.437 -23.845  0.00  0.00     0.013 A 
ATOM     25  C   UNL d   1      29.517  16.136 -23.969  0.00  0.00     0.058 A 
ATOM     26 CL   UNL d   1      29.228  15.536 -23.446  0.00  0.00    -0.082 Cl
ATOM     27  C   UNL d   1      29.071  16.435 -24.589  0.00  0.00     0.011 A 
ATOM     28  C   UNL d   1      29.364  17.008 -25.078  0.00  0.00     0.001 A 
ATOM     29  C   UNL d   1      30.102  17.312 -24.984  0.00  0.00     0.002 A 
ENDBRANCH  20  23
ENDBRANCH  17  18
ENDBRANCH   1  17
TORSDOF 6
ENDMDL
MODEL 3
REMARK VINA RESULT:      -1.0      3.458      5.849
REMARK  6 active torsions:
REMARK  status: ('A' for Active; 'I' for Inactive)
REMARK    1  A    between atoms: C_2  and  C_1 
REMARK    2  A    between atoms: C_6  and  C_1 
REMARK       I    between atoms: N_10  and  C_2 
REMARK    3  A    between atoms: C_14  and  C_3 
REMARK    4  A    between atoms: C_4  and  C_12 
REMARK    5  A    between atoms: C_7  and  C_6 
REMARK    6  A    between atoms: C_15  and  N_10 
ROOT
ATOM      1  C   UNL d   1      32.940  20.558 -22.934  0.00  0.00     0.128 C 
ATOM      2  C   UNL d   1      33.091  20.584 -23.739  0.00  0.00     0.106 C 
ATOM      3  N   UNL d   1      33.240  20.588 -24.549  0.00  0.00    -0.191 NA
ENDROOT
BRANCH   1   4
ATOM      4  C   UNL d   1      32.958  21.287 -22.504  0.00  0.00     0.289 C 
ATOM      5  N   UNL d   1      32.790  21.320 -21.732  0.00  0.00    -0.207 NA
ATOM      6  O   UNL d   1      33.165  21.999 -22.925  0.00  0.00    -0.264 OA
BRANCH   5   7
ATOM      7  C   UNL d   1      32.809  22.040 -21.314  0.00  0.00     0.085 A 
ATOM      8  C   UNL d   1      32.838  22.044 -20.480  0.00  0.00     0.023 A 
ATOM      9  C   UNL d   1      32.857  22.743 -20.062  0.00  0.00     0.073 A 
ATOM     10  C   UNL d   1      32.849  23.478 -20.461  0.00  0.00     0.004 A 
ATOM     11  C   UNL d   1      32.820  23.479 -21.293  0.00  0.00     0.002 A 
ATOM     12  C   UNL d   1      32.801  22.766 -21.698  0.00  0.00     0.019 A 
BRANCH   9  13
ATOM     13  C   UNL d   1      32.885  22.705 -19.258  0.00  0.00     0.419 C 
ATOM     14  F   UNL d   1      32.882  22.731 -18.435  0.00  0.00    -0.166 F 
ATOM     15  F   UNL d   1      33.238  21.997 -18.826  0.00  0.00    -0.166 F 
ATOM     16  F   UNL d   1      32.593  23.307 -18.880  0.00  0.00    -0.166 F 
ENDBRANCH   9  13
ENDBRANCH   5   7
ENDBRANCH   1   4
BRANCH   1  17
ATOM     17  C   UNL d   1      32.775  19.855 -22.542  0.00  0.00     0.040 C 
BRANCH  17  18
ATOM     18  C   UNL d   1      32.669  19.147 -22.980  0.00  0.00     0.101 A 
ATOM     19  O   UNL d   1      31.945  18.734 -23.033  0.00  0.00    -0.307 OA
ATOM     20  C   UNL d   1      32.091  18.075 -23.515  0.00  0.00     0.100 A 
ATOM     21  C   UNL d   1      32.904  18.097 -23.748  0.00  0.00     0.027 A 
ATOM     22  C   UNL d   1      33.237  18.769 -23.404  0.00  0.00     0.027 A 
BRANCH  20  23
ATOM     23  C   UNL d   1      31.587  17.453 -23.773  0.00  0.00     0.024 A 
ATOM     24  C   UNL d   1      30.938  17.565 -24.277  0.00  0.00     0.013 A 
ATOM     25  C   UNL d   1      30.449  16.919 -24.520  0.00  0.00     0.058 A 
ATOM     26 CL   UNL d   1      29.797  17.079 -25.035  0.00  0.00    -0.082 Cl
ATOM     27  C   UNL d   1      30.624  16.164 -24.249  0.00  0.00     0.011 A 
ATOM     28  C   UNL d   1      31.252  16.031 -23.758  0.00  0.00     0.001 A 
ATOM     29  C   UNL d   1      31.734  16.625 -23.510  0.00  0.00     0.002 A 
ENDBRANCH  20  23
ENDBRANCH  17  18
ENDBRANCH   1  17
TORSDOF 6
ENDMDL
