MODEL 1
REMARK VINA RESULT:      -3.0      0.000      0.000
REMARK  3 active torsions:
REMARK  status: ('A' for Active; 'I' for Inactive)
REMARK    1  A    between atoms: N_4  and  C_1 
REMARK    2  A    between atoms: C_9  and  C_3 
REMARK    3  A    between atoms: C_7  and  N_4 
ROOT
ATOM      1  C   UNL d   1      31.588  16.113 -24.119  0.00  0.00     0.196 A 
ATOM      2  N   UNL d   1      31.526  16.957 -24.061  0.00  0.00    -0.221 NA
ATOM      3  C   UNL d   1      32.263  17.219 -23.911  0.00  0.00     0.090 A 
ATOM      4  S   UNL d   1      32.347  15.879 -24.006  0.00  0.00    -0.046 SA
ATOM      5  C   UNL d   1      32.791  16.574 -23.872  0.00  0.00     0.058 A 
ENDROOT
BRANCH   1   6
ATOM      6  N   UNL d   1      30.956  15.542 -24.276  0.00  0.00    -0.202 NA
BRANCH   6   7
ATOM      7  C   UNL d   1      30.212  15.638 -23.907  0.00  0.00     0.165 A 
ATOM      8  N   UNL d   1      29.652  15.918 -24.460  0.00  0.00    -0.225 NA
ATOM      9  C   UNL d   1      28.839  16.087 -24.312  0.00  0.00     0.101 A 
ATOM     10  C   UNL d   1      28.413  16.022 -23.627  0.00  0.00     0.021 A 
ATOM     11  C   UNL d   1      28.684  15.766 -22.877  0.00  0.00     0.002 A 
ATOM     12  C   UNL d   1      29.427  15.520 -22.646  0.00  0.00     0.003 A 
ATOM     13  C   UNL d   1      30.123  15.462 -23.118  0.00  0.00     0.039 A 
ENDBRANCH   6   7
ENDBRANCH   1   6
BRANCH   3  14
ATOM     14  C   UNL d   1      32.507  17.996 -23.805  0.00  0.00     0.018 A 
ATOM     15  C   UNL d   1      32.638  18.469 -24.460  0.00  0.00     0.002 A 
ATOM     16  C   UNL d   1      32.880  19.243 -24.363  0.00  0.00     0.007 A 
ATOM     17  C   UNL d   1      32.998  19.564 -23.593  0.00  0.00     0.035 A 
ATOM     18  C   UNL d   1      32.863  19.080 -22.931  0.00  0.00     0.007 A 
ATOM     19 BR   UNL d   1      33.241  20.338 -23.446  0.00  0.00    -0.049 Br
ATOM     20  C   UNL d   1      32.620  18.304 -23.037  0.00  0.00     0.002 A 
ENDBRANCH   3  14
TORSDOF 3
ENDMDL
MODEL 2
REMARK VINA RESULT:      -3.0      1.633      2.541
REMARK  3 active torsions:
REMARK  status: ('A' for Active; 'I' for Inactive)
REMARK    1  A    between atoms: N_4  and  C_1 
REMARK    2  A    between atoms: C_9  and  C_3 
REMARK    3  A    between atoms: C_7  and  N_4 
ROOT
ATOM      1  C   UNL d   1      32.819  18.228 -23.945  0.00  0.00     0.196 A 
ATOM      2  N   UNL d   1      32.740  18.494 -23.144  0.00  0.00    -0.221 NA
ATOM      3  C   UNL d   1      32.994  19.249 -23.138  0.00  0.00     0.090 A 
ATOM      4  S   UNL d   1      33.113  18.814 -24.407  0.00  0.00    -0.046 SA
ATOM      5  C   UNL d   1      33.231  19.474 -23.906  0.00  0.00     0.058 A 
ENDROOT
BRANCH   1   6
ATOM      6  N   UNL d   1      32.624  17.450 -24.270  0.00  0.00    -0.202 NA
BRANCH   6   7
ATOM      7  C   UNL d   1      31.829  17.191 -24.275  0.00  0.00     0.165 A 
ATOM      8  N   UNL d   1      31.727  16.569 -23.727  0.00  0.00    -0.225 NA
ATOM      9  C   UNL d   1      31.010  16.155 -23.563  0.00  0.00     0.101 A 
ATOM     10  C   UNL d   1      30.272  16.251 -23.881  0.00  0.00     0.021 A 
ATOM     11  C   UNL d   1      30.033  16.801 -24.465  0.00  0.00     0.002 A 
ATOM     12  C   UNL d   1      30.469  17.368 -24.858  0.00  0.00     0.003 A 
ATOM     13  C   UNL d   1      31.289  17.545 -24.770  0.00  0.00     0.039 A 
ENDBRANCH   6   7
ENDBRANCH   1   6
BRANCH   3  14
ATOM     14  C   UNL d   1      33.032  19.760 -22.498  0.00  0.00     0.018 A 
ATOM     15  C   UNL d   1      32.902  20.560 -22.613  0.00  0.00     0.002 A 
ATOM     16  C   UNL d   1      32.938  21.076 -21.979  0.00  0.00     0.007 A 
ATOM     17  C   UNL d   1      33.109  20.794 -21.205  0.00  0.00     0.035 A 
ATOM     18  C   UNL d   1      33.241  19.981 -21.092  0.00  0.00     0.007 A 
ATOM     19 BR   UNL d   1      33.156  21.275 -20.536  0.00  0.00    -0.049 Br
ATOM     20  C   UNL d   1      33.203  19.470 -21.733  0.00  0.00     0.002 A 
ENDBRANCH   3  14
TORSDOF 3
ENDMDL
MODEL 3
REMARK VINA RESULT:      -2.9      1.360      1.997
REMARK  3 active torsions:
REMARK  status: ('A' for Active; 'I' for Inactive)
REMARK    1  A    between atoms: N_4  and  C_1 
REMARK    2  A    between atoms: C_9  and  C_3 
REMARK    3  A    between atoms: C_7  and  N_4 
ROOT
ATOM      1  C   UNL d   1      32.615  17.730 -23.682  0.00  0.00     0.196 A 
ATOM      2  N   UNL d   1      32.528  18.569 -23.587  0.00  0.00    -0.221 NA
ATOM      3  C   UNL d   1      32.913  18.753 -22.914  0.00  0.00     0.090 A 
ATOM      4  S   UNL d   1      33.043  17.423 -23.078  0.00  0.00    -0.046 SA
ATOM      5  C   UNL d   1      33.241  18.063 -22.578  0.00  0.00     0.058 A 
ENDROOT
BRANCH   1   6
ATOM      6  N   UNL d   1      32.308  17.232 -24.320  0.00  0.00    -0.202 NA
BRANCH   6   7
ATOM      7  C   UNL d   1      31.514  16.970 -24.293  0.00  0.00     0.165 A 
ATOM      8  N   UNL d   1      31.055  17.390 -24.850  0.00  0.00    -0.225 NA
ATOM      9  C   UNL d   1      30.230  17.293 -24.998  0.00  0.00     0.101 A 
ATOM     10  C   UNL d   1      29.698  16.791 -24.653  0.00  0.00     0.021 A 
ATOM     11  C   UNL d   1      29.840  16.229 -24.049  0.00  0.00     0.002 A 
ATOM     12  C   UNL d   1      30.533  16.045 -23.659  0.00  0.00     0.003 A 
ATOM     13  C   UNL d   1      31.296  16.384 -23.772  0.00  0.00     0.039 A 
ENDBRANCH   6   7
ENDBRANCH   1   6
BRANCH   3  14
ATOM     14  C   UNL d   1      32.996  19.493 -22.571  0.00  0.00     0.018 A 
ATOM     15  C   UNL d   1      33.155  20.141 -23.046  0.00  0.00     0.002 A 
ATOM     16  C   UNL d   1      33.239  20.882 -22.712  0.00  0.00     0.007 A 
ATOM     17  C   UNL d   1      33.164  20.990 -21.881  0.00  0.00     0.035 A 
ATOM     18  C   UNL d   1      33.002  20.331 -21.402  0.00  0.00     0.007 A 
ATOM     19 BR   UNL d   1      33.241  21.717 -21.499  0.00  0.00    -0.049 Br
ATOM     20  C   UNL d   1      32.919  19.590 -21.744  0.00  0.00     0.002 A 
ENDBRANCH   3  14
TORSDOF 3
ENDMDL
MODEL 4
REMARK VINA RESULT:      -2.2      2.030      4.364
REMARK  3 active torsions:
REMARK  status: ('A' for Active; 'I' for Inactive)
REMARK    1  A    between atoms: N_4  and  C_1 
REMARK    2  A    between atoms: C_9  and  C_3 
REMARK    3  A    between atoms: C_7  and  N_4 
ROOT
ATOM      1  C   UNL d   1      32.758  18.129 -24.094  0.00  0.00     0.196 A 
ATOM      2  N   UNL d   1      31.917  18.064 -24.174  0.00  0.00    -0.221 NA
ATOM      3  C   UNL d   1      31.758  17.282 -24.168  0.00  0.00     0.090 A 
ATOM      4  S   UNL d   1      33.093  17.402 -24.042  0.00  0.00    -0.046 SA
ATOM      5  C   UNL d   1      32.467  16.850 -24.087  0.00  0.00     0.058 A 
ENDROOT
BRANCH   1   6
ATOM      6  N   UNL d   1      33.236  18.851 -24.068  0.00  0.00    -0.202 NA
BRANCH   6   7
ATOM      7  C   UNL d   1      33.232  19.324 -23.379  0.00  0.00     0.165 A 
ATOM      8  N   UNL d   1      33.221  20.133 -23.586  0.00  0.00    -0.225 NA
ATOM      9  C   UNL d   1      33.215  20.789 -23.056  0.00  0.00     0.101 A 
ATOM     10  C   UNL d   1      33.217  20.801 -22.247  0.00  0.00     0.021 A 
ATOM     11  C   UNL d   1      33.228  20.146 -21.725  0.00  0.00     0.002 A 
ATOM     12  C   UNL d   1      33.238  19.347 -21.889  0.00  0.00     0.003 A 
ATOM     13  C   UNL d   1      33.240  18.973 -22.644  0.00  0.00     0.039 A 
ENDBRANCH   6   7
ENDBRANCH   1   6
BRANCH   3  14
ATOM     14  C   UNL d   1      31.024  16.920 -24.229  0.00  0.00     0.018 A 
ATOM     15  C   UNL d   1      30.574  17.035 -24.902  0.00  0.00     0.002 A 
ATOM     16  C   UNL d   1      29.842  16.677 -24.971  0.00  0.00     0.007 A 
ATOM     17  C   UNL d   1      29.543  16.189 -24.354  0.00  0.00     0.035 A 
ATOM     18  C   UNL d   1      30.002  16.075 -23.671  0.00  0.00     0.007 A 
ATOM     19 BR   UNL d   1      28.811  15.808 -24.377  0.00  0.00    -0.049 Br
ATOM     20  C   UNL d   1      30.736  16.437 -23.610  0.00  0.00     0.002 A 
ENDBRANCH   3  14
TORSDOF 3
ENDMDL
MODEL 5
REMARK VINA RESULT:      -2.2      2.420      3.632
REMARK  3 active torsions:
REMARK  status: ('A' for Active; 'I' for Inactive)
REMARK    1  A    between atoms: N_4  and  C_1 
REMARK    2  A    between atoms: C_9  and  C_3 
REMARK    3  A    between atoms: C_7  and  N_4 
ROOT
ATOM      1  C   UNL d   1      33.168  19.143 -22.944  0.00  0.00     0.196 A 
ATOM      2  N   UNL d   1      33.058  19.975 -22.825  0.00  0.00    -0.221 NA
ATOM      3  C   UNL d   1      33.065  20.085 -22.035  0.00  0.00     0.090 A 
ATOM      4  S   UNL d   1      33.239  18.766 -22.239  0.00  0.00    -0.046 SA
ATOM      5  C   UNL d   1      33.175  19.354 -21.649  0.00  0.00     0.058 A 
ENDROOT
BRANCH   1   6
ATOM      6  N   UNL d   1      33.206  18.712 -23.694  0.00  0.00    -0.202 NA
BRANCH   6   7
ATOM      7  C   UNL d   1      32.546  18.266 -23.948  0.00  0.00     0.165 A 
ATOM      8  N   UNL d   1      32.218  18.605 -24.636  0.00  0.00    -0.225 NA
ATOM      9  C   UNL d   1      31.548  18.324 -25.066  0.00  0.00     0.101 A 
ATOM     10  C   UNL d   1      31.076  17.682 -24.927  0.00  0.00     0.021 A 
ATOM     11  C   UNL d   1      31.137  17.126 -24.305  0.00  0.00     0.002 A 
ATOM     12  C   UNL d   1      31.675  17.084 -23.692  0.00  0.00     0.003 A 
ATOM     13  C   UNL d   1      32.318  17.605 -23.531  0.00  0.00     0.039 A 
ENDBRANCH   6   7
ENDBRANCH   1   6
BRANCH   3  14
ATOM     14  C   UNL d   1      32.981  20.792 -21.628  0.00  0.00     0.018 A 
ATOM     15  C   UNL d   1      33.178  20.825 -20.834  0.00  0.00     0.002 A 
ATOM     16  C   UNL d   1      33.097  21.525 -20.421  0.00  0.00     0.007 A 
ATOM     17  C   UNL d   1      32.810  22.218 -20.802  0.00  0.00     0.035 A 
ATOM     18  C   UNL d   1      32.611  22.182 -21.608  0.00  0.00     0.007 A 
ATOM     19 BR   UNL d   1      32.711  22.947 -20.427  0.00  0.00    -0.049 Br
ATOM     20  C   UNL d   1      32.695  21.475 -22.016  0.00  0.00     0.002 A 
ENDBRANCH   3  14
TORSDOF 3
ENDMDL
