MODEL 1
REMARK VINA RESULT:      14.8      0.000      0.000
REMARK  4 active torsions:
REMARK  status: ('A' for Active; 'I' for Inactive)
REMARK    1  A    between atoms: S_4  and  C_8 
REMARK    2  A    between atoms: N_9  and  S_4 
REMARK    3  A    between atoms: C_16  and  N_9 
REMARK    4  A    between atoms: C_12  and  C_16 
ROOT
ATOM      1  C   UNL d   1      46.492 -19.336  42.321  0.00  0.00     0.339 A 
ATOM      2  N   UNL d   1      46.329 -18.535  42.255  0.00  0.00    -0.256 N 
ATOM      3  N   UNL d   1      46.503 -19.536  43.123  0.00  0.00    -0.256 N 
ATOM      4  C   UNL d   1      46.238 -18.235  43.027  0.00  0.00     0.085 A 
ATOM      5  C   UNL d   1      46.346 -18.855  43.560  0.00  0.00     0.085 A 
ATOM      6  C   UNL d   1      46.070 -17.467  43.309  0.00  0.00     0.033 A 
ATOM      7  C   UNL d   1      46.011 -17.328  44.120  0.00  0.00     0.118 A 
ATOM      8  C   UNL d   1      46.285 -18.708  44.373  0.00  0.00     0.020 A 
ATOM      9  O   UNL d   1      46.624 -19.863  41.684  0.00  0.00    -0.245 OA
ATOM     10  C   UNL d   1      46.119 -17.948  44.651  0.00  0.00     0.016 A 
ATOM     11  C   UNL d   1      46.270 -18.117  41.538  0.00  0.00     0.104 C 
ATOM     12  C   UNL d   1      46.647 -20.291  43.424  0.00  0.00     0.104 C 
ENDROOT
BRANCH   7  13
ATOM     13  S   UNL d   1      45.844 -16.567  44.398  0.00  0.00     0.327 S 
ATOM     14  O   UNL d   1      46.571 -16.301  44.107  0.00  0.00    -0.186 OA
ATOM     15  O   UNL d   1      45.118 -16.833  44.689  0.00  0.00    -0.186 OA
BRANCH  13  16
ATOM     16  N   UNL d   1      45.677 -15.808  44.677  0.00  0.00    -0.312 NA
BRANCH  16  17
ATOM     17  C   UNL d   1      45.510 -15.048  44.955  0.00  0.00     0.200 C 
BRANCH  17  18
ATOM     18  C   UNL d   1      45.405 -14.426  44.423  0.00  0.00     0.133 A 
ATOM     19  O   UNL d   1      44.726 -14.281  43.966  0.00  0.00    -0.302 OA
ATOM     20  C   UNL d   1      44.848 -13.611  43.513  0.00  0.00     0.123 A 
ATOM     21  C   UNL d   1      45.612 -13.329  43.684  0.00  0.00     0.029 A 
ATOM     22  C   UNL d   1      45.947 -13.833  44.243  0.00  0.00     0.029 A 
ENDBRANCH  17  18
ENDBRANCH  16  17
ENDBRANCH  13  16
ENDBRANCH   7  13
TORSDOF 4
ENDMDL
