MODEL 1
REMARK VINA RESULT:      -1.9      0.000      0.000
REMARK  4 active torsions:
REMARK  status: ('A' for Active; 'I' for Inactive)
REMARK    1  A    between atoms: N_5  and  S_1 
REMARK    2  A    between atoms: C_8  and  S_1 
REMARK    3  A    between atoms: C_18  and  N_2 
REMARK    4  A    between atoms: C_10  and  N_5 
ROOT
ATOM      1  N   UNL d   1      56.036  -0.137  33.362  0.00  0.00    -0.273 N 
ATOM      2  C   UNL d   1      56.625   0.270  33.773  0.00  0.00     0.265 A 
ATOM      3  C   UNL d   1      56.312  -0.325  32.595  0.00  0.00     0.067 A 
ATOM      4  C   UNL d   1      57.088  -0.023  32.541  0.00  0.00     0.021 A 
ATOM      5  C   UNL d   1      57.282   0.338  33.253  0.00  0.00     0.058 A 
ATOM      6  C   UNL d   1      57.426  -0.403  31.223  0.00  0.00     0.105 A 
ATOM      7  C   UNL d   1      57.616  -0.042  31.938  0.00  0.00     0.014 A 
ATOM      8  C   UNL d   1      55.969  -0.714  31.970  0.00  0.00     0.018 A 
ATOM      9  C   UNL d   1      56.717  -0.740  31.118  0.00  0.00     0.014 A 
ATOM     10  O   UNL d   1      56.552   0.554  34.567  0.00  0.00    -0.267 OA
ATOM     11  C   UNL d   1      58.003   0.682  33.362  0.00  0.00     0.005 A 
ATOM     12  C   UNL d   1      58.369   0.309  32.031  0.00  0.00     0.001 A 
ATOM     13  C   UNL d   1      58.593   0.678  32.729  0.00  0.00     0.000 A 
ENDROOT
BRANCH   6  14
ATOM     14  S   UNL d   1      57.976  -0.414  30.615  0.00  0.00     0.287 S 
ATOM     15  O   UNL d   1      58.377  -1.038  30.968  0.00  0.00    -0.198 OA
ATOM     16  O   UNL d   1      57.588   0.230  30.218  0.00  0.00    -0.198 OA
BRANCH  14  17
ATOM     17  N   UNL d   1      58.537  -0.426  29.995  0.00  0.00    -0.139 NA
BRANCH  17  18
ATOM     18  C   UNL d   1      58.653  -1.077  29.516  0.00  0.00     0.174 A 
ATOM     19  N   UNL d   1      58.155  -1.732  29.652  0.00  0.00    -0.225 NA
ATOM     20  C   UNL d   1      58.236  -2.409  29.194  0.00  0.00     0.101 A 
ATOM     21  C   UNL d   1      58.818  -2.432  28.596  0.00  0.00     0.021 A 
ATOM     22  C   UNL d   1      59.320  -1.777  28.455  0.00  0.00     0.005 A 
ATOM     23  C   UNL d   1      59.236  -1.100  28.917  0.00  0.00     0.037 A 
ATOM     24  C   UNL d   1      59.557  -0.171  29.111  0.00  0.00     0.003 C 
ENDBRANCH  17  18
ENDBRANCH  14  17
ENDBRANCH   6  14
BRANCH   1  25
ATOM     25  C   UNL d   1      55.298  -0.323  33.670  0.00  0.00     0.083 C 
ATOM     26  C   UNL d   1      54.731   0.268  33.714  0.00  0.00     0.021 C 
ENDBRANCH   1  25
TORSDOF 4
ENDMDL
MODEL 2
REMARK VINA RESULT:      -0.7      0.830      1.925
REMARK  4 active torsions:
REMARK  status: ('A' for Active; 'I' for Inactive)
REMARK    1  A    between atoms: N_5  and  S_1 
REMARK    2  A    between atoms: C_8  and  S_1 
REMARK    3  A    between atoms: C_18  and  N_2 
REMARK    4  A    between atoms: C_10  and  N_5 
ROOT
ATOM      1  N   UNL d   1      56.841   0.288  34.041  0.00  0.00    -0.273 N 
ATOM      2  C   UNL d   1      56.152  -0.142  33.893  0.00  0.00     0.265 A 
ATOM      3  C   UNL d   1      57.299   0.330  33.342  0.00  0.00     0.067 A 
ATOM      4  C   UNL d   1      56.875  -0.086  32.755  0.00  0.00     0.021 A 
ATOM      5  C   UNL d   1      56.180  -0.373  33.085  0.00  0.00     0.058 A 
ATOM      6  C   UNL d   1      57.744   0.062  31.651  0.00  0.00     0.105 A 
ATOM      7  C   UNL d   1      57.047  -0.225  31.985  0.00  0.00     0.014 A 
ATOM      8  C   UNL d   1      58.014   0.678  33.175  0.00  0.00     0.018 A 
ATOM      9  C   UNL d   1      58.256   0.481  32.085  0.00  0.00     0.014 A 
ATOM     10  O   UNL d   1      55.551  -0.303  34.465  0.00  0.00    -0.267 OA
ATOM     11  C   UNL d   1      55.657  -0.800  32.645  0.00  0.00     0.005 A 
ATOM     12  C   UNL d   1      56.518  -0.665  31.511  0.00  0.00     0.001 A 
ATOM     13  C   UNL d   1      55.816  -0.966  31.811  0.00  0.00     0.000 A 
ENDROOT
BRANCH   6  14
ATOM     14  S   UNL d   1      57.907  -0.088  30.861  0.00  0.00     0.287 S 
ATOM     15  O   UNL d   1      57.392   0.507  30.626  0.00  0.00    -0.198 OA
ATOM     16  O   UNL d   1      58.448  -0.711  31.065  0.00  0.00    -0.198 OA
BRANCH  14  17
ATOM     17  N   UNL d   1      58.073  -0.241  30.056  0.00  0.00    -0.139 NA
BRANCH  17  18
ATOM     18  C   UNL d   1      58.812  -0.125  29.728  0.00  0.00     0.174 A 
ATOM     19  N   UNL d   1      59.262   0.503  30.039  0.00  0.00    -0.225 NA
ATOM     20  C   UNL d   1      60.011   0.657  29.739  0.00  0.00     0.101 A 
ATOM     21  C   UNL d   1      60.312   0.180  29.124  0.00  0.00     0.021 A 
ATOM     22  C   UNL d   1      59.864  -0.452  28.808  0.00  0.00     0.005 A 
ATOM     23  C   UNL d   1      59.113  -0.603  29.111  0.00  0.00     0.037 A 
ATOM     24  C   UNL d   1      58.291  -1.174  29.071  0.00  0.00     0.003 C 
ENDBRANCH  17  18
ENDBRANCH  14  17
ENDBRANCH   6  14
BRANCH   1  25
ATOM     25  C   UNL d   1      57.036   0.619  34.767  0.00  0.00     0.083 C 
ATOM     26  C   UNL d   1      56.451   0.682  35.339  0.00  0.00     0.021 C 
ENDBRANCH   1  25
TORSDOF 4
ENDMDL
