MODEL 1
REMARK VINA RESULT:      -7.0      0.000      0.000
REMARK  5 active torsions:
REMARK  status: ('A' for Active; 'I' for Inactive)
REMARK    1  A    between atoms: C_7  and  N_1 
REMARK    2  A    between atoms: C_6  and  C_2 
REMARK    3  A    between atoms: C_8  and  C_6 
REMARK    4  A    between atoms: C_12  and  C_7 
REMARK    5  A    between atoms: C_9  and  C_8 
ROOT
ATOM      1  N   UNL d   1     -48.796  13.784  22.454  0.00  0.00    -0.289 N 
ATOM      2  C   UNL d   1     -48.145  14.185  22.941  0.00  0.00     0.148 A 
ATOM      3  N   UNL d   1     -48.512  14.932  23.321  0.00  0.00    -0.227 NA
ATOM      4  C   UNL d   1     -49.582  14.280  22.524  0.00  0.00     0.083 A 
ATOM      5  C   UNL d   1     -49.403  15.000  23.068  0.00  0.00     0.099 A 
ATOM      6  C   UNL d   1     -50.419  14.167  22.169  0.00  0.00     0.019 A 
ATOM      7  C   UNL d   1     -50.065  15.591  23.244  0.00  0.00     0.021 A 
ATOM      8  C   UNL d   1     -51.064  14.772  22.359  0.00  0.00     0.002 A 
ATOM      9  C   UNL d   1     -50.886  15.492  22.903  0.00  0.00     0.002 A 
ENDROOT
BRANCH   2  10
ATOM     10  C   UNL d   1     -47.567  13.679  22.794  0.00  0.00     0.037 C 
BRANCH  10  11
ATOM     11  C   UNL d   1     -46.844  13.717  23.130  0.00  0.00     0.003 C 
BRANCH  11  12
ATOM     12  C   UNL d   1     -46.195  13.325  22.838  0.00  0.00     0.000 A 
ATOM     13  C   UNL d   1     -46.000  12.586  23.151  0.00  0.00     0.000 A 
ATOM     14  C   UNL d   1     -45.346  12.184  22.860  0.00  0.00     0.000 A 
ATOM     15  C   UNL d   1     -44.889  12.505  22.267  0.00  0.00     0.000 A 
ATOM     16  C   UNL d   1     -45.084  13.244  21.955  0.00  0.00     0.000 A 
ATOM     17  C   UNL d   1     -45.730  13.637  22.244  0.00  0.00     0.000 A 
ENDBRANCH  11  12
ENDBRANCH  10  11
ENDBRANCH   2  10
BRANCH   1  18
ATOM     18  C   UNL d   1     -49.326  13.383  22.007  0.00  0.00     0.082 C 
BRANCH  18  19
ATOM     19  C   UNL d   1     -49.182  12.578  21.866  0.00  0.00     0.018 C 
ATOM     20  C   UNL d   1     -49.035  12.331  21.095  0.00  0.00     0.002 C 
ATOM     21  C   UNL d   1     -49.103  11.817  22.142  0.00  0.00     0.002 C 
ENDBRANCH  18  19
ENDBRANCH   1  18
TORSDOF 5
ENDMDL
MODEL 2
REMARK VINA RESULT:      -5.9      1.353      4.553
REMARK  5 active torsions:
REMARK  status: ('A' for Active; 'I' for Inactive)
REMARK    1  A    between atoms: C_7  and  N_1 
REMARK    2  A    between atoms: C_6  and  C_2 
REMARK    3  A    between atoms: C_8  and  C_6 
REMARK    4  A    between atoms: C_12  and  C_7 
REMARK    5  A    between atoms: C_9  and  C_8 
ROOT
ATOM      1  N   UNL d   1     -47.540  12.494  23.116  0.00  0.00    -0.289 N 
ATOM      2  C   UNL d   1     -48.311  12.016  23.105  0.00  0.00     0.148 A 
ATOM      3  N   UNL d   1     -48.093  11.147  23.289  0.00  0.00    -0.227 NA
ATOM      4  C   UNL d   1     -46.829  11.925  23.308  0.00  0.00     0.083 A 
ATOM      5  C   UNL d   1     -47.176  11.080  23.417  0.00  0.00     0.099 A 
ATOM      6  C   UNL d   1     -45.928  12.068  23.396  0.00  0.00     0.019 A 
ATOM      7  C   UNL d   1     -46.614  10.397  23.610  0.00  0.00     0.021 A 
ATOM      8  C   UNL d   1     -45.387  11.369  23.589  0.00  0.00     0.002 A 
ATOM      9  C   UNL d   1     -45.733  10.524  23.698  0.00  0.00     0.002 A 
ENDROOT
BRANCH   2  10
ATOM     10  C   UNL d   1     -48.803  12.601  22.938  0.00  0.00     0.037 C 
BRANCH  10  11
ATOM     11  C   UNL d   1     -49.592  12.509  22.850  0.00  0.00     0.003 C 
BRANCH  11  12
ATOM     12  C   UNL d   1     -50.080  13.095  22.570  0.00  0.00     0.000 A 
ATOM     13  C   UNL d   1     -50.242  13.127  21.760  0.00  0.00     0.000 A 
ATOM     14  C   UNL d   1     -50.735  13.717  21.471  0.00  0.00     0.000 A 
ATOM     15  C   UNL d   1     -51.064  14.268  21.972  0.00  0.00     0.000 A 
ATOM     16  C   UNL d   1     -50.902  14.235  22.781  0.00  0.00     0.000 A 
ATOM     17  C   UNL d   1     -50.416  13.653  23.062  0.00  0.00     0.000 A 
ENDBRANCH  11  12
ENDBRANCH  10  11
ENDBRANCH   2  10
BRANCH   1  18
ATOM     18  C   UNL d   1     -46.897  12.971  23.111  0.00  0.00     0.082 C 
BRANCH  18  19
ATOM     19  C   UNL d   1     -46.914  13.638  22.619  0.00  0.00     0.018 C 
ATOM     20  C   UNL d   1     -46.789  14.380  22.953  0.00  0.00     0.002 C 
ATOM     21  C   UNL d   1     -47.004  13.968  21.881  0.00  0.00     0.002 C 
ENDBRANCH  18  19
ENDBRANCH   1  18
TORSDOF 5
ENDMDL
MODEL 3
REMARK VINA RESULT:      -5.9      1.190      4.156
REMARK  5 active torsions:
REMARK  status: ('A' for Active; 'I' for Inactive)
REMARK    1  A    between atoms: C_7  and  N_1 
REMARK    2  A    between atoms: C_6  and  C_2 
REMARK    3  A    between atoms: C_8  and  C_6 
REMARK    4  A    between atoms: C_12  and  C_7 
REMARK    5  A    between atoms: C_9  and  C_8 
ROOT
ATOM      1  N   UNL d   1     -48.091  12.824  23.236  0.00  0.00    -0.289 N 
ATOM      2  C   UNL d   1     -47.867  13.672  23.008  0.00  0.00     0.148 A 
ATOM      3  N   UNL d   1     -46.957  13.696  22.916  0.00  0.00    -0.227 NA
ATOM      4  C   UNL d   1     -47.319  12.306  23.289  0.00  0.00     0.083 A 
ATOM      5  C   UNL d   1     -46.608  12.853  23.089  0.00  0.00     0.099 A 
ATOM      6  C   UNL d   1     -47.180  11.423  23.491  0.00  0.00     0.019 A 
ATOM      7  C   UNL d   1     -45.772  12.505  23.095  0.00  0.00     0.021 A 
ATOM      8  C   UNL d   1     -46.334  11.099  23.491  0.00  0.00     0.002 A 
ATOM      9  C   UNL d   1     -45.623  11.646  23.290  0.00  0.00     0.002 A 
ENDROOT
BRANCH   2  10
ATOM     10  C   UNL d   1     -48.586  13.981  23.000  0.00  0.00     0.037 C 
BRANCH  10  11
ATOM     11  C   UNL d   1     -48.746  14.735  22.793  0.00  0.00     0.003 C 
BRANCH  11  12
ATOM     12  C   UNL d   1     -49.471  15.084  22.905  0.00  0.00     0.000 A 
ATOM     13  C   UNL d   1     -49.586  15.566  23.565  0.00  0.00     0.000 A 
ATOM     14  C   UNL d   1     -50.317  15.922  23.683  0.00  0.00     0.000 A 
ATOM     15  C   UNL d   1     -50.927  15.803  23.158  0.00  0.00     0.000 A 
ATOM     16  C   UNL d   1     -50.812  15.321  22.497  0.00  0.00     0.000 A 
ATOM     17  C   UNL d   1     -50.090  14.973  22.385  0.00  0.00     0.000 A 
ENDBRANCH  11  12
ENDBRANCH  10  11
ENDBRANCH   2  10
BRANCH   1  18
ATOM     18  C   UNL d   1     -48.354  12.096  23.438  0.00  0.00     0.082 C 
BRANCH  18  19
ATOM     19  C   UNL d   1     -49.166  12.004  23.585  0.00  0.00     0.018 C 
ATOM     20  C   UNL d   1     -49.466  11.245  23.687  0.00  0.00     0.002 C 
ATOM     21  C   UNL d   1     -49.904  12.328  23.692  0.00  0.00     0.002 C 
ENDBRANCH  18  19
ENDBRANCH   1  18
TORSDOF 5
ENDMDL
MODEL 4
REMARK VINA RESULT:      -5.8      7.438      9.648
REMARK  5 active torsions:
REMARK  status: ('A' for Active; 'I' for Inactive)
REMARK    1  A    between atoms: C_7  and  N_1 
REMARK    2  A    between atoms: C_6  and  C_2 
REMARK    3  A    between atoms: C_8  and  C_6 
REMARK    4  A    between atoms: C_12  and  C_7 
REMARK    5  A    between atoms: C_9  and  C_8 
ROOT
ATOM      1  N   UNL d   1     -39.764  14.339  20.399  0.00  0.00    -0.289 N 
ATOM      2  C   UNL d   1     -39.289  14.157  19.648  0.00  0.00     0.148 A 
ATOM      3  N   UNL d   1     -38.524  13.729  19.909  0.00  0.00    -0.227 NA
ATOM      4  C   UNL d   1     -39.298  14.024  21.141  0.00  0.00     0.083 A 
ATOM      5  C   UNL d   1     -38.520  13.641  20.833  0.00  0.00     0.099 A 
ATOM      6  C   UNL d   1     -39.481  14.038  22.039  0.00  0.00     0.019 A 
ATOM      7  C   UNL d   1     -37.943  13.281  21.430  0.00  0.00     0.021 A 
ATOM      8  C   UNL d   1     -38.888  13.671  22.616  0.00  0.00     0.002 A 
ATOM      9  C   UNL d   1     -38.110  13.288  22.308  0.00  0.00     0.002 A 
ENDROOT
BRANCH   2  10
ATOM     10  C   UNL d   1     -39.783  14.467  19.126  0.00  0.00     0.037 C 
BRANCH  10  11
ATOM     11  C   UNL d   1     -39.744  14.330  18.340  0.00  0.00     0.003 C 
BRANCH  11  12
ATOM     12  C   UNL d   1     -40.048  14.838  17.784  0.00  0.00     0.000 A 
ATOM     13  C   UNL d   1     -39.551  15.405  17.445  0.00  0.00     0.000 A 
ATOM     14  C   UNL d   1     -39.852  15.921  16.882  0.00  0.00     0.000 A 
ATOM     15  C   UNL d   1     -40.633  15.881  16.655  0.00  0.00     0.000 A 
ATOM     16  C   UNL d   1     -41.130  15.314  16.994  0.00  0.00     0.000 A 
ATOM     17  C   UNL d   1     -40.828  14.807  17.548  0.00  0.00     0.000 A 
ENDBRANCH  11  12
ENDBRANCH  10  11
ENDBRANCH   2  10
BRANCH   1  18
ATOM     18  C   UNL d   1     -40.230  14.528  21.022  0.00  0.00     0.082 C 
BRANCH  18  19
ATOM     19  C   UNL d   1     -40.775  15.146  20.924  0.00  0.00     0.018 C 
ATOM     20  C   UNL d   1     -41.573  14.994  21.055  0.00  0.00     0.002 C 
ATOM     21  C   UNL d   1     -40.936  15.922  20.741  0.00  0.00     0.002 C 
ENDBRANCH  18  19
ENDBRANCH   1  18
TORSDOF 5
ENDMDL
MODEL 5
REMARK VINA RESULT:      -5.5      8.540      9.365
REMARK  5 active torsions:
REMARK  status: ('A' for Active; 'I' for Inactive)
REMARK    1  A    between atoms: C_7  and  N_1 
REMARK    2  A    between atoms: C_6  and  C_2 
REMARK    3  A    between atoms: C_8  and  C_6 
REMARK    4  A    between atoms: C_12  and  C_7 
REMARK    5  A    between atoms: C_9  and  C_8 
ROOT
ATOM      1  N   UNL d   1     -39.834  14.555  18.894  0.00  0.00    -0.289 N 
ATOM      2  C   UNL d   1     -40.240  14.966  19.593  0.00  0.00     0.148 A 
ATOM      3  N   UNL d   1     -40.854  15.548  19.246  0.00  0.00    -0.227 NA
ATOM      4  C   UNL d   1     -40.192  14.878  18.098  0.00  0.00     0.083 A 
ATOM      5  C   UNL d   1     -40.832  15.502  18.318  0.00  0.00     0.099 A 
ATOM      6  C   UNL d   1     -40.019  14.687  17.219  0.00  0.00     0.019 A 
ATOM      7  C   UNL d   1     -41.284  15.919  17.655  0.00  0.00     0.021 A 
ATOM      8  C   UNL d   1     -40.484  15.118  16.573  0.00  0.00     0.002 A 
ATOM      9  C   UNL d   1     -41.124  15.741  16.793  0.00  0.00     0.002 A 
ENDROOT
BRANCH   2  10
ATOM     10  C   UNL d   1     -39.854  14.610  20.173  0.00  0.00     0.037 C 
BRANCH  10  11
ATOM     11  C   UNL d   1     -40.101  14.597  20.932  0.00  0.00     0.003 C 
BRANCH  11  12
ATOM     12  C   UNL d   1     -39.604  14.462  21.560  0.00  0.00     0.000 A 
ATOM     13  C   UNL d   1     -39.565  13.704  21.885  0.00  0.00     0.000 A 
ATOM     14  C   UNL d   1     -39.065  13.562  22.521  0.00  0.00     0.000 A 
ATOM     15  C   UNL d   1     -38.607  14.159  22.833  0.00  0.00     0.000 A 
ATOM     16  C   UNL d   1     -38.646  14.918  22.507  0.00  0.00     0.000 A 
ATOM     17  C   UNL d   1     -39.141  15.053  21.881  0.00  0.00     0.000 A 
ENDBRANCH  11  12
ENDBRANCH  10  11
ENDBRANCH   2  10
BRANCH   1  18
ATOM     18  C   UNL d   1     -39.439  14.158  18.323  0.00  0.00     0.082 C 
BRANCH  18  19
ATOM     19  C   UNL d   1     -38.703  13.828  18.519  0.00  0.00     0.018 C 
ATOM     20  C   UNL d   1     -38.597  13.017  18.427  0.00  0.00     0.002 C 
ATOM     21  C   UNL d   1     -37.942  13.914  18.790  0.00  0.00     0.002 C 
ENDBRANCH  18  19
ENDBRANCH   1  18
TORSDOF 5
ENDMDL
MODEL 6
REMARK VINA RESULT:      -5.3      1.215      2.099
REMARK  5 active torsions:
REMARK  status: ('A' for Active; 'I' for Inactive)
REMARK    1  A    between atoms: C_7  and  N_1 
REMARK    2  A    between atoms: C_6  and  C_2 
REMARK    3  A    between atoms: C_8  and  C_6 
REMARK    4  A    between atoms: C_12  and  C_7 
REMARK    5  A    between atoms: C_9  and  C_8 
ROOT
ATOM      1  N   UNL d   1     -48.677  13.330  23.124  0.00  0.00    -0.289 N 
ATOM      2  C   UNL d   1     -48.043  12.691  23.226  0.00  0.00     0.148 A 
ATOM      3  N   UNL d   1     -48.472  11.918  23.459  0.00  0.00    -0.227 NA
ATOM      4  C   UNL d   1     -49.515  12.961  23.293  0.00  0.00     0.083 A 
ATOM      5  C   UNL d   1     -49.386  12.075  23.504  0.00  0.00     0.099 A 
ATOM      6  C   UNL d   1     -50.361  13.315  23.282  0.00  0.00     0.019 A 
ATOM      7  C   UNL d   1     -50.106  11.562  23.698  0.00  0.00     0.021 A 
ATOM      8  C   UNL d   1     -51.064  12.781  23.481  0.00  0.00     0.002 A 
ATOM      9  C   UNL d   1     -50.936  11.895  23.691  0.00  0.00     0.002 A 
ENDROOT
BRANCH   2  10
ATOM     10  C   UNL d   1     -47.415  13.128  23.059  0.00  0.00     0.037 C 
BRANCH  10  11
ATOM     11  C   UNL d   1     -46.677  12.966  23.317  0.00  0.00     0.003 C 
BRANCH  11  12
ATOM     12  C   UNL d   1     -46.017  13.026  22.848  0.00  0.00     0.000 A 
ATOM     13  C   UNL d   1     -45.638  12.336  22.598  0.00  0.00     0.000 A 
ATOM     14  C   UNL d   1     -44.971  12.391  22.123  0.00  0.00     0.000 A 
ATOM     15  C   UNL d   1     -44.679  13.117  21.896  0.00  0.00     0.000 A 
ATOM     16  C   UNL d   1     -45.058  13.807  22.146  0.00  0.00     0.000 A 
ATOM     17  C   UNL d   1     -45.716  13.748  22.614  0.00  0.00     0.000 A 
ENDBRANCH  11  12
ENDBRANCH  10  11
ENDBRANCH   2  10
BRANCH   1  18
ATOM     18  C   UNL d   1     -49.187  13.938  23.019  0.00  0.00     0.082 C 
BRANCH  18  19
ATOM     19  C   UNL d   1     -48.915  14.606  22.608  0.00  0.00     0.018 C 
ATOM     20  C   UNL d   1     -48.949  15.339  22.979  0.00  0.00     0.002 C 
ATOM     21  C   UNL d   1     -48.590  14.940  21.941  0.00  0.00     0.002 C 
ENDBRANCH  18  19
ENDBRANCH   1  18
TORSDOF 5
ENDMDL
MODEL 7
REMARK VINA RESULT:      -5.1      0.949      1.483
REMARK  5 active torsions:
REMARK  status: ('A' for Active; 'I' for Inactive)
REMARK    1  A    between atoms: C_7  and  N_1 
REMARK    2  A    between atoms: C_6  and  C_2 
REMARK    3  A    between atoms: C_8  and  C_6 
REMARK    4  A    between atoms: C_12  and  C_7 
REMARK    5  A    between atoms: C_9  and  C_8 
ROOT
ATOM      1  N   UNL d   1     -48.266  13.208  22.848  0.00  0.00    -0.289 N 
ATOM      2  C   UNL d   1     -47.410  13.505  22.890  0.00  0.00     0.148 A 
ATOM      3  N   UNL d   1     -47.428  14.406  22.735  0.00  0.00    -0.227 NA
ATOM      4  C   UNL d   1     -48.831  13.925  22.666  0.00  0.00     0.083 A 
ATOM      5  C   UNL d   1     -48.306  14.677  22.594  0.00  0.00     0.099 A 
ATOM      6  C   UNL d   1     -49.739  13.986  22.558  0.00  0.00     0.019 A 
ATOM      7  C   UNL d   1     -48.700  15.472  22.417  0.00  0.00     0.021 A 
ATOM      8  C   UNL d   1     -50.110  14.793  22.381  0.00  0.00     0.002 A 
ATOM      9  C   UNL d   1     -49.584  15.544  22.310  0.00  0.00     0.002 A 
ENDROOT
BRANCH   2  10
ATOM     10  C   UNL d   1     -47.061  12.822  23.043  0.00  0.00     0.037 C 
BRANCH  10  11
ATOM     11  C   UNL d   1     -46.344  12.754  23.388  0.00  0.00     0.003 C 
BRANCH  11  12
ATOM     12  C   UNL d   1     -45.885  12.087  23.333  0.00  0.00     0.000 A 
ATOM     13  C   UNL d   1     -45.152  12.135  22.954  0.00  0.00     0.000 A 
ATOM     14  C   UNL d   1     -44.683  11.463  22.895  0.00  0.00     0.000 A 
ATOM     15  C   UNL d   1     -44.932  10.753  23.205  0.00  0.00     0.000 A 
ATOM     16  C   UNL d   1     -45.664  10.705  23.584  0.00  0.00     0.000 A 
ATOM     17  C   UNL d   1     -46.124  11.369  23.639  0.00  0.00     0.000 A 
ENDBRANCH  11  12
ENDBRANCH  10  11
ENDBRANCH   2  10
BRANCH   1  18
ATOM     18  C   UNL d   1     -48.998  12.884  22.825  0.00  0.00     0.082 C 
BRANCH  18  19
ATOM     19  C   UNL d   1     -49.055  12.067  22.693  0.00  0.00     0.018 C 
ATOM     20  C   UNL d   1     -49.496  11.612  23.218  0.00  0.00     0.002 C 
ATOM     21  C   UNL d   1     -48.870  11.409  22.252  0.00  0.00     0.002 C 
ENDBRANCH  18  19
ENDBRANCH   1  18
TORSDOF 5
ENDMDL
MODEL 8
REMARK VINA RESULT:      -4.8      8.112     10.563
REMARK  5 active torsions:
REMARK  status: ('A' for Active; 'I' for Inactive)
REMARK    1  A    between atoms: C_7  and  N_1 
REMARK    2  A    between atoms: C_6  and  C_2 
REMARK    3  A    between atoms: C_8  and  C_6 
REMARK    4  A    between atoms: C_12  and  C_7 
REMARK    5  A    between atoms: C_9  and  C_8 
ROOT
ATOM      1  N   UNL d   1     -39.053  14.163  17.565  0.00  0.00    -0.289 N 
ATOM      2  C   UNL d   1     -39.553  14.888  17.780  0.00  0.00     0.148 A 
ATOM      3  N   UNL d   1     -39.528  15.457  17.065  0.00  0.00    -0.227 NA
ATOM      4  C   UNL d   1     -38.708  14.272  16.707  0.00  0.00     0.083 A 
ATOM      5  C   UNL d   1     -39.006  15.084  16.393  0.00  0.00     0.099 A 
ATOM      6  C   UNL d   1     -38.171  13.745  16.184  0.00  0.00     0.019 A 
ATOM      7  C   UNL d   1     -38.761  15.350  15.563  0.00  0.00     0.021 A 
ATOM      8  C   UNL d   1     -37.940  14.033  15.357  0.00  0.00     0.002 A 
ATOM      9  C   UNL d   1     -38.238  14.845  15.044  0.00  0.00     0.002 A 
ENDROOT
BRANCH   2  10
ATOM     10  C   UNL d   1     -39.770  14.665  18.498  0.00  0.00     0.037 C 
BRANCH  10  11
ATOM     11  C   UNL d   1     -40.396  14.969  18.890  0.00  0.00     0.003 C 
BRANCH  11  12
ATOM     12  C   UNL d   1     -40.448  14.989  19.700  0.00  0.00     0.000 A 
ATOM     13  C   UNL d   1     -40.059  15.591  20.112  0.00  0.00     0.000 A 
ATOM     14  C   UNL d   1     -40.107  15.616  20.931  0.00  0.00     0.000 A 
ATOM     15  C   UNL d   1     -40.534  15.057  21.341  0.00  0.00     0.000 A 
ATOM     16  C   UNL d   1     -40.923  14.455  20.929  0.00  0.00     0.000 A 
ATOM     17  C   UNL d   1     -40.872  14.434  20.122  0.00  0.00     0.000 A 
ENDBRANCH  11  12
ENDBRANCH  10  11
ENDBRANCH   2  10
BRANCH   1  18
ATOM     18  C   UNL d   1     -38.626  13.498  17.435  0.00  0.00     0.082 C 
BRANCH  18  19
ATOM     19  C   UNL d   1     -38.356  13.077  18.097  0.00  0.00     0.018 C 
ATOM     20  C   UNL d   1     -38.508  12.270  18.142  0.00  0.00     0.002 C 
ATOM     21  C   UNL d   1     -37.968  13.061  18.812  0.00  0.00     0.002 C 
ENDBRANCH  18  19
ENDBRANCH   1  18
TORSDOF 5
ENDMDL
MODEL 9
REMARK VINA RESULT:      -4.7      8.605     10.228
REMARK  5 active torsions:
REMARK  status: ('A' for Active; 'I' for Inactive)
REMARK    1  A    between atoms: C_7  and  N_1 
REMARK    2  A    between atoms: C_6  and  C_2 
REMARK    3  A    between atoms: C_8  and  C_6 
REMARK    4  A    between atoms: C_12  and  C_7 
REMARK    5  A    between atoms: C_9  and  C_8 
ROOT
ATOM      1  N   UNL d   1     -39.391  14.808  19.188  0.00  0.00    -0.289 N 
ATOM      2  C   UNL d   1     -38.598  14.380  19.093  0.00  0.00     0.148 A 
ATOM      3  N   UNL d   1     -38.256  14.255  19.932  0.00  0.00    -0.227 NA
ATOM      4  C   UNL d   1     -39.555  14.955  20.093  0.00  0.00     0.083 A 
ATOM      5  C   UNL d   1     -38.842  14.608  20.560  0.00  0.00     0.099 A 
ATOM      6  C   UNL d   1     -40.249  15.353  20.540  0.00  0.00     0.019 A 
ATOM      7  C   UNL d   1     -38.840  14.667  21.463  0.00  0.00     0.021 A 
ATOM      8  C   UNL d   1     -40.223  15.399  21.443  0.00  0.00     0.002 A 
ATOM      9  C   UNL d   1     -39.510  15.052  21.910  0.00  0.00     0.002 A 
ENDROOT
BRANCH   2  10
ATOM     10  C   UNL d   1     -38.592  14.325  18.313  0.00  0.00     0.037 C 
BRANCH  10  11
ATOM     11  C   UNL d   1     -37.940  14.167  17.881  0.00  0.00     0.003 C 
BRANCH  11  12
ATOM     12  C   UNL d   1     -37.957  14.032  17.080  0.00  0.00     0.000 A 
ATOM     13  C   UNL d   1     -37.993  13.255  16.805  0.00  0.00     0.000 A 
ATOM     14  C   UNL d   1     -38.010  13.113  15.996  0.00  0.00     0.000 A 
ATOM     15  C   UNL d   1     -37.993  13.729  15.464  0.00  0.00     0.000 A 
ATOM     16  C   UNL d   1     -37.957  14.507  15.740  0.00  0.00     0.000 A 
ATOM     17  C   UNL d   1     -37.940  14.642  16.537  0.00  0.00     0.000 A 
ENDBRANCH  11  12
ENDBRANCH  10  11
ENDBRANCH   2  10
BRANCH   1  18
ATOM     18  C   UNL d   1     -40.098  15.184  19.204  0.00  0.00     0.082 C 
BRANCH  18  19
ATOM     19  C   UNL d   1     -40.595  15.102  18.545  0.00  0.00     0.018 C 
ATOM     20  C   UNL d   1     -40.888  15.780  18.183  0.00  0.00     0.002 C 
ATOM     21  C   UNL d   1     -40.987  14.629  18.012  0.00  0.00     0.002 C 
ENDBRANCH  18  19
ENDBRANCH   1  18
TORSDOF 5
ENDMDL
