MODEL 1
REMARK VINA RESULT:      54.4      0.000      0.000
REMARK  4 active torsions:
REMARK  status: ('A' for Active; 'I' for Inactive)
REMARK    1  A    between atoms: S_3  and  C_1 
REMARK    2  A    between atoms: C_7  and  S_3 
REMARK    3  A    between atoms: S_11  and  C_4 
REMARK    4  A    between atoms: C_10  and  C_5 
ROOT
ATOM      1  C   UNL d   1     -55.775-102.348 -39.351  0.00  0.00     0.199 A 
ATOM      2  N   UNL d   1     -55.305-102.189 -38.693  0.00  0.00    -0.208 NA
ATOM      3  C   UNL d   1     -56.496-102.647 -39.081  0.00  0.00     0.156 A 
ATOM      4  C   UNL d   1     -55.734-102.389 -38.015  0.00  0.00     0.184 A 
ATOM      5  O   UNL d   1     -56.468-102.671 -38.262  0.00  0.00    -0.281 OA
ENDROOT
BRANCH   1   6
ATOM      6  S   UNL d   1     -55.556-102.227 -40.135  0.00  0.00     0.229 S 
ATOM      7  O   UNL d   1     -54.845-101.938 -39.848  0.00  0.00    -0.215 OA
ATOM      8  O   UNL d   1     -56.266-102.516 -40.428  0.00  0.00    -0.215 OA
BRANCH   6   9
ATOM      9  C   UNL d   1     -55.346-102.110 -40.923  0.00  0.00     0.089 A 
ATOM     10  C   UNL d   1     -55.011-101.392 -41.154  0.00  0.00     0.011 A 
ATOM     11  C   UNL d   1     -54.802-101.276 -41.941  0.00  0.00     0.001 A 
ATOM     12  C   UNL d   1     -54.922-101.868 -42.500  0.00  0.00     0.000 A 
ATOM     13  C   UNL d   1     -55.258-102.588 -42.267  0.00  0.00     0.001 A 
ATOM     14  C   UNL d   1     -54.712-101.750 -43.289  0.00  0.00     0.000 C 
ATOM     15  C   UNL d   1     -55.466-102.704 -41.486  0.00  0.00     0.011 A 
ENDBRANCH   6   9
ENDBRANCH   1   6
BRANCH   3  16
ATOM     16  S   UNL d   1     -57.128-102.879 -39.553  0.00  0.00    -0.086 SA
ATOM     17  C   UNL d   1     -57.899-102.774 -39.282  0.00  0.00     0.076 C 
ENDBRANCH   3  16
BRANCH   4  18
ATOM     18  C   UNL d   1     -55.472-102.318 -37.234  0.00  0.00     0.041 A 
ATOM     19  C   UNL d   1     -54.973-101.690 -37.019  0.00  0.00     0.004 A 
ATOM     20  C   UNL d   1     -54.713-101.623 -36.240  0.00  0.00     0.000 A 
ATOM     21  C   UNL d   1     -54.946-102.171 -35.681  0.00  0.00     0.000 A 
ATOM     22  C   UNL d   1     -55.444-102.799 -35.889  0.00  0.00     0.000 A 
ATOM     23  C   UNL d   1     -55.705-102.873 -36.657  0.00  0.00     0.004 A 
ENDBRANCH   4  18
TORSDOF 4
ENDMDL
