MODEL 1
REMARK VINA RESULT:      22.6      0.000      0.000
REMARK  4 active torsions:
REMARK  status: ('A' for Active; 'I' for Inactive)
REMARK    1  A    between atoms: N_4  and  S_1 
REMARK    2  A    between atoms: C_6  and  S_1 
REMARK    3  A    between atoms: N_3  and  C_2 
REMARK    4  A    between atoms: C_7  and  N_4 
ROOT
ATOM      1  S   UNL d   1      13.597  12.051  -2.681  0.00  0.00     0.285 S 
ATOM      2  O   UNL d   1      12.776  12.138  -2.471  0.00  0.00    -0.198 OA
ATOM      3  O   UNL d   1      14.410  11.952  -2.848  0.00  0.00    -0.198 OA
ENDROOT
BRANCH   1   4
ATOM      4  N   UNL d   1      13.757  11.783  -1.888  0.00  0.00    -0.158 NA
BRANCH   4   5
ATOM      5  C   UNL d   1      14.325  12.181  -1.414  0.00  0.00     0.094 A 
ATOM      6  C   UNL d   1      15.040  11.786  -1.240  0.00  0.00     0.023 A 
ATOM      7  C   UNL d   1      15.609  12.185  -0.766  0.00  0.00     0.044 A 
ATOM      8  C   UNL d   1      15.428  12.954  -0.494  0.00  0.00     0.196 A 
ATOM      9  C   UNL d   1      14.726  13.331  -0.669  0.00  0.00     0.044 A 
ATOM     10  O   UNL d   1      16.000  13.354  -0.017  0.00  0.00    -0.287 OA
ATOM     11  C   UNL d   1      14.157  12.932  -1.144  0.00  0.00     0.023 A 
ENDBRANCH   4   5
ENDBRANCH   1   4
BRANCH   1  12
ATOM     12  C   UNL d   1      13.445  12.310  -3.454  0.00  0.00     0.107 A 
ATOM     13  C   UNL d   1      13.498  13.117  -3.617  0.00  0.00     0.037 A 
ATOM     14  C   UNL d   1      13.347  13.372  -4.386  0.00  0.00     0.138 A 
ATOM     15  C   UNL d   1      13.152  12.841  -4.970  0.00  0.00     0.080 A 
ATOM     16  C   UNL d   1      13.099  12.034  -4.807  0.00  0.00     0.014 A 
ATOM     17 CL   UNL d   1      13.000  13.105  -5.747  0.00  0.00    -0.081 Cl
ATOM     18  C   UNL d   1      13.250  11.780  -4.038  0.00  0.00     0.014 A 
BRANCH  14  19
ATOM     19  N   UNL d   1      13.399  14.187  -4.556  0.00  0.00    -0.113 N 
ATOM     20  O   UNL d   1      12.769  14.689  -4.385  0.00  0.00    -0.532 OA
ATOM     21  O   UNL d   1      14.069  14.495  -4.893  0.00  0.00    -0.532 OA
ENDBRANCH  14  19
ENDBRANCH   1  12
TORSDOF 4
ENDMDL
MODEL 2
REMARK VINA RESULT:      24.4      2.259      3.837
REMARK  4 active torsions:
REMARK  status: ('A' for Active; 'I' for Inactive)
REMARK    1  A    between atoms: N_4  and  S_1 
REMARK    2  A    between atoms: C_6  and  S_1 
REMARK    3  A    between atoms: N_3  and  C_2 
REMARK    4  A    between atoms: C_7  and  N_4 
ROOT
ATOM      1  S   UNL d   1      14.582  12.466  -1.201  0.00  0.00     0.285 S 
ATOM      2  O   UNL d   1      15.254  12.269  -1.686  0.00  0.00    -0.198 OA
ATOM      3  O   UNL d   1      13.902  12.626  -0.741  0.00  0.00    -0.198 OA
ENDROOT
BRANCH   1   4
ATOM      4  N   UNL d   1      14.177  11.782  -1.509  0.00  0.00    -0.158 NA
BRANCH   4   5
ATOM      5  C   UNL d   1      13.877  11.785  -2.294  0.00  0.00     0.094 A 
ATOM      6  C   UNL d   1      14.424  11.794  -2.925  0.00  0.00     0.023 A 
ATOM      7  C   UNL d   1      14.124  11.797  -3.711  0.00  0.00     0.044 A 
ATOM      8  C   UNL d   1      13.295  11.791  -3.817  0.00  0.00     0.196 A 
ATOM      9  C   UNL d   1      12.769  11.782  -3.193  0.00  0.00     0.044 A 
ATOM     10  O   UNL d   1      12.994  11.794  -4.607  0.00  0.00    -0.287 OA
ATOM     11  C   UNL d   1      13.069  11.779  -2.408  0.00  0.00     0.023 A 
ENDBRANCH   4   5
ENDBRANCH   1   4
BRANCH   1  12
ATOM     12  C   UNL d   1      14.972  13.133  -0.899  0.00  0.00     0.107 A 
ATOM     13  C   UNL d   1      14.772  13.875  -1.196  0.00  0.00     0.037 A 
ATOM     14  C   UNL d   1      15.161  14.536  -0.894  0.00  0.00     0.138 A 
ATOM     15  C   UNL d   1      15.728  14.457  -0.317  0.00  0.00     0.080 A 
ATOM     16  C   UNL d   1      15.929  13.715  -0.020  0.00  0.00     0.014 A 
ATOM     17 CL   UNL d   1      16.120  15.130  -0.015  0.00  0.00    -0.081 Cl
ATOM     18  C   UNL d   1      15.539  13.054  -0.323  0.00  0.00     0.014 A 
BRANCH  14  19
ATOM     19  N   UNL d   1      14.962  15.290  -1.191  0.00  0.00    -0.113 N 
ATOM     20  O   UNL d   1      14.713  15.379  -1.971  0.00  0.00    -0.532 OA
ATOM     21  O   UNL d   1      15.012  15.945  -0.715  0.00  0.00    -0.532 OA
ENDBRANCH  14  19
ENDBRANCH   1  12
TORSDOF 4
ENDMDL
