MODEL 1
REMARK VINA RESULT:      -7.7      0.000      0.000
REMARK  6 active torsions:
REMARK  status: ('A' for Active; 'I' for Inactive)
REMARK    1  A    between atoms: C_5  and  N_1 
REMARK    2  A    between atoms: C_8  and  C_2 
REMARK    3  A    between atoms: C_3  and  O_4 
REMARK    4  A    between atoms: O_4  and  C_9 
REMARK    5  A    between atoms: C_7  and  C_5 
REMARK    6  A    between atoms: C_9  and  C_7 
ROOT
ATOM      1  O   UNL d   1      52.690  32.872  53.259  0.00  0.00    -0.302 OA
ENDROOT
BRANCH   1   2
ATOM      2  C   UNL d   1      52.959  32.097  53.291  0.00  0.00     0.100 A 
ATOM      3  C   UNL d   1      53.654  31.918  53.697  0.00  0.00     0.023 A 
ATOM      4  C   UNL d   1      53.923  31.143  53.729  0.00  0.00     0.002 A 
ATOM      5  C   UNL d   1      53.498  30.541  53.354  0.00  0.00     0.000 A 
ATOM      6  C   UNL d   1      52.805  30.717  52.949  0.00  0.00     0.002 A 
ATOM      7  C   UNL d   1      52.534  31.496  52.916  0.00  0.00     0.025 A 
BRANCH   3   8
ATOM      8  C   UNL d   1      54.077  32.517  54.071  0.00  0.00     0.002 C 
ATOM      9  C   UNL d   1      54.666  32.924  53.659  0.00  0.00     0.000 C 
ATOM     10  C   UNL d   1      53.914  32.710  54.853  0.00  0.00     0.000 C 
ENDBRANCH   3   8
ENDBRANCH   1   2
BRANCH   1  11
ATOM     11  C   UNL d   1      52.017  33.052  52.821  0.00  0.00     0.166 C 
BRANCH  11  12
ATOM     12  C   UNL d   1      51.675  33.804  52.878  0.00  0.00     0.238 C 
ATOM     13  O   UNL d   1      52.074  34.458  52.576  0.00  0.00    -0.283 OA
BRANCH  12  14
ATOM     14  C   UNL d   1      50.941  33.899  53.234  0.00  0.00     0.125 C 
BRANCH  14  15
ATOM     15  N   UNL d   1      50.323  34.254  52.820  0.00  0.00    -0.296 N 
ATOM     16  C   UNL d   1      49.854  34.823  53.194  0.00  0.00     0.107 A 
ATOM     17  C   UNL d   1      49.238  35.179  52.783  0.00  0.00     0.142 A 
ATOM     18  O   UNL d   1      49.088  34.967  51.999  0.00  0.00    -0.300 OA
ATOM     19  C   UNL d   1      49.557  34.400  51.630  0.00  0.00     0.142 A 
ATOM     20  C   UNL d   1      50.178  34.042  52.043  0.00  0.00     0.107 A 
ENDBRANCH  14  15
ENDBRANCH  12  14
ENDBRANCH  11  12
ENDBRANCH   1  11
TORSDOF 6
ENDMDL
MODEL 2
REMARK VINA RESULT:      -7.4      1.892      4.382
REMARK  6 active torsions:
REMARK  status: ('A' for Active; 'I' for Inactive)
REMARK    1  A    between atoms: C_5  and  N_1 
REMARK    2  A    between atoms: C_8  and  C_2 
REMARK    3  A    between atoms: C_3  and  O_4 
REMARK    4  A    between atoms: O_4  and  C_9 
REMARK    5  A    between atoms: C_7  and  C_5 
REMARK    6  A    between atoms: C_9  and  C_7 
ROOT
ATOM      1  O   UNL d   1      52.740  33.077  53.285  0.00  0.00    -0.302 OA
ENDROOT
BRANCH   1   2
ATOM      2  C   UNL d   1      52.852  33.775  53.701  0.00  0.00     0.100 A 
ATOM      3  C   UNL d   1      52.427  34.452  53.495  0.00  0.00     0.023 A 
ATOM      4  C   UNL d   1      52.539  35.151  53.912  0.00  0.00     0.002 A 
ATOM      5  C   UNL d   1      53.078  35.177  54.539  0.00  0.00     0.000 A 
ATOM      6  C   UNL d   1      53.502  34.504  54.746  0.00  0.00     0.002 A 
ATOM      7  C   UNL d   1      53.390  33.802  54.328  0.00  0.00     0.025 A 
BRANCH   3   8
ATOM      8  C   UNL d   1      51.891  34.425  52.871  0.00  0.00     0.002 C 
ATOM      9  C   UNL d   1      51.093  34.277  53.020  0.00  0.00     0.000 C 
ATOM     10  C   UNL d   1      52.150  34.547  52.101  0.00  0.00     0.000 C 
ENDBRANCH   3   8
ENDBRANCH   1   2
BRANCH   1  11
ATOM     11  C   UNL d   1      53.109  32.387  53.540  0.00  0.00     0.166 C 
BRANCH  11  12
ATOM     12  C   UNL d   1      53.072  31.703  53.075  0.00  0.00     0.238 C 
ATOM     13  O   UNL d   1      52.496  31.636  52.491  0.00  0.00    -0.283 OA
BRANCH  12  14
ATOM     14  C   UNL d   1      53.608  31.092  53.196  0.00  0.00     0.125 C 
BRANCH  14  15
ATOM     15  N   UNL d   1      53.346  30.361  53.475  0.00  0.00    -0.296 N 
ATOM     16  C   UNL d   1      53.631  30.073  54.196  0.00  0.00     0.107 A 
ATOM     17  C   UNL d   1      53.372  29.346  54.476  0.00  0.00     0.142 A 
ATOM     18  O   UNL d   1      52.829  28.905  54.038  0.00  0.00    -0.300 OA
ATOM     19  C   UNL d   1      52.548  29.195  53.320  0.00  0.00     0.142 A 
ATOM     20  C   UNL d   1      52.809  29.927  53.038  0.00  0.00     0.107 A 
ENDBRANCH  14  15
ENDBRANCH  12  14
ENDBRANCH  11  12
ENDBRANCH   1  11
TORSDOF 6
ENDMDL
