MODEL 1
REMARK VINA RESULT:      -5.4      0.000      0.000
REMARK  3 active torsions:
REMARK  status: ('A' for Active; 'I' for Inactive)
REMARK    1  A    between atoms: N_5  and  C_2 
REMARK    2  A    between atoms: C_14  and  C_4 
REMARK       I    between atoms: C_7  and  N_5 
REMARK    3  A    between atoms: C_8  and  C_7 
ROOT
ATOM      1  S   UNL d   1     -41.418-123.085 -52.800  0.00  0.00    -0.026 SA
ATOM      2  C   UNL d   1     -41.272-122.653 -52.110  0.00  0.00     0.219 A 
ATOM      3  N   UNL d   1     -41.179-121.856 -53.187  0.00  0.00    -0.139 NA
ATOM      4  C   UNL d   1     -41.359-122.592 -53.450  0.00  0.00     0.135 A 
ATOM      5  N   UNL d   1     -41.123-121.882 -52.353  0.00  0.00    -0.121 NA
ENDROOT
BRANCH   2   6
ATOM      6  N   UNL d   1     -41.257-122.857 -51.305  0.00  0.00    -0.181 NA
ATOM      7  C   UNL d   1     -41.903-122.683 -50.843  0.00  0.00     0.287 C 
ATOM      8  O   UNL d   1     -42.579-122.309 -51.145  0.00  0.00    -0.265 OA
BRANCH   7   9
ATOM      9  C   UNL d   1     -41.884-122.882 -50.065  0.00  0.00     0.087 A 
ATOM     10  S   UNL d   1     -42.514-122.812 -49.557  0.00  0.00    -0.082 SA
ATOM     11  C   UNL d   1     -42.261-123.078 -48.803  0.00  0.00     0.036 A 
ATOM     12  C   UNL d   1     -41.497-123.300 -48.868  0.00  0.00     0.008 A 
ATOM     13  C   UNL d   1     -41.241-123.192 -49.625  0.00  0.00     0.012 A 
ENDBRANCH   7   9
ENDBRANCH   2   6
BRANCH   4  14
ATOM     14  C   UNL d   1     -41.471-122.834 -54.254  0.00  0.00     0.026 C 
ATOM     15  C   UNL d   1     -41.197-123.558 -54.541  0.00  0.00     0.002 C 
ATOM     16  C   UNL d   1     -41.876-122.321 -54.775  0.00  0.00     0.002 C 
ENDBRANCH   4  14
TORSDOF 3
ENDMDL
MODEL 2
REMARK VINA RESULT:      -5.2      1.092      4.035
REMARK  3 active torsions:
REMARK  status: ('A' for Active; 'I' for Inactive)
REMARK    1  A    between atoms: N_5  and  C_2 
REMARK    2  A    between atoms: C_14  and  C_4 
REMARK       I    between atoms: C_7  and  N_5 
REMARK    3  A    between atoms: C_8  and  C_7 
ROOT
ATOM      1  S   UNL d   1     -41.439-122.963 -51.806  0.00  0.00    -0.026 SA
ATOM      2  C   UNL d   1     -41.286-122.380 -52.371  0.00  0.00     0.219 A 
ATOM      3  N   UNL d   1     -41.179-121.869 -51.133  0.00  0.00    -0.139 NA
ATOM      4  C   UNL d   1     -41.372-122.644 -51.056  0.00  0.00     0.135 A 
ATOM      5  N   UNL d   1     -41.123-121.693 -51.949  0.00  0.00    -0.121 NA
ENDROOT
BRANCH   2   6
ATOM      6  N   UNL d   1     -41.273-122.382 -53.202  0.00  0.00    -0.181 NA
ATOM      7  C   UNL d   1     -41.942-122.160 -53.605  0.00  0.00     0.287 C 
ATOM      8  O   UNL d   1     -42.640-121.930 -53.220  0.00  0.00    -0.265 OA
BRANCH   7   9
ATOM      9  C   UNL d   1     -41.926-122.164 -54.409  0.00  0.00     0.087 A 
ATOM     10  S   UNL d   1     -42.425-121.731 -54.881  0.00  0.00    -0.082 SA
ATOM     11  C   UNL d   1     -42.223-121.895 -55.679  0.00  0.00     0.036 A 
ATOM     12  C   UNL d   1     -41.617-122.413 -55.673  0.00  0.00     0.008 A 
ATOM     13  C   UNL d   1     -41.415-122.595 -54.914  0.00  0.00     0.012 A 
ENDBRANCH   7   9
ENDBRANCH   2   6
BRANCH   4  14
ATOM     14  C   UNL d   1     -41.490-123.073 -50.335  0.00  0.00     0.026 C 
ATOM     15  C   UNL d   1     -41.144-123.810 -50.195  0.00  0.00     0.002 C 
ATOM     16  C   UNL d   1     -41.974-122.736 -49.742  0.00  0.00     0.002 C 
ENDBRANCH   4  14
TORSDOF 3
ENDMDL
MODEL 3
REMARK VINA RESULT:      -4.3      1.021      4.080
REMARK  3 active torsions:
REMARK  status: ('A' for Active; 'I' for Inactive)
REMARK    1  A    between atoms: N_5  and  C_2 
REMARK    2  A    between atoms: C_14  and  C_4 
REMARK       I    between atoms: C_7  and  N_5 
REMARK    3  A    between atoms: C_8  and  C_7 
ROOT
ATOM      1  S   UNL d   1     -42.102-122.485 -51.000  0.00  0.00    -0.026 SA
ATOM      2  C   UNL d   1     -41.641-122.673 -51.661  0.00  0.00     0.219 A 
ATOM      3  N   UNL d   1     -41.297-123.445 -50.616  0.00  0.00    -0.139 NA
ATOM      4  C   UNL d   1     -41.886-122.959 -50.370  0.00  0.00     0.135 A 
ATOM      5  N   UNL d   1     -41.137-123.275 -51.420  0.00  0.00    -0.121 NA
ENDROOT
BRANCH   2   6
ATOM      6  N   UNL d   1     -41.615-122.380 -52.438  0.00  0.00    -0.181 NA
ATOM      7  C   UNL d   1     -41.682-122.903 -53.056  0.00  0.00     0.287 C 
ATOM      8  O   UNL d   1     -41.775-123.719 -52.943  0.00  0.00    -0.265 OA
BRANCH   7   9
ATOM      9  C   UNL d   1     -41.656-122.616 -53.807  0.00  0.00     0.087 A 
ATOM     10  S   UNL d   1     -41.264-122.971 -54.422  0.00  0.00    -0.082 SA
ATOM     11  C   UNL d   1     -41.377-122.494 -55.103  0.00  0.00     0.036 A 
ATOM     12  C   UNL d   1     -41.827-121.871 -54.890  0.00  0.00     0.008 A 
ATOM     13  C   UNL d   1     -42.012-121.918 -54.107  0.00  0.00     0.012 A 
ENDBRANCH   7   9
ENDBRANCH   2   6
BRANCH   4  14
ATOM     14  C   UNL d   1     -42.234-122.927 -49.599  0.00  0.00     0.026 C 
ATOM     15  C   UNL d   1     -43.024-122.719 -49.477  0.00  0.00     0.002 C 
ATOM     16  C   UNL d   1     -41.760-123.115 -48.936  0.00  0.00     0.002 C 
ENDBRANCH   4  14
TORSDOF 3
ENDMDL
MODEL 4
REMARK VINA RESULT:      -3.1      1.383      4.300
REMARK  3 active torsions:
REMARK  status: ('A' for Active; 'I' for Inactive)
REMARK    1  A    between atoms: N_5  and  C_2 
REMARK    2  A    between atoms: C_14  and  C_4 
REMARK       I    between atoms: C_7  and  N_5 
REMARK    3  A    between atoms: C_8  and  C_7 
ROOT
ATOM      1  S   UNL d   1     -42.322-123.267 -49.246  0.00  0.00    -0.026 SA
ATOM      2  C   UNL d   1     -41.709-123.474 -49.761  0.00  0.00     0.219 A 
ATOM      3  N   UNL d   1     -41.387-123.799 -48.498  0.00  0.00    -0.139 NA
ATOM      4  C   UNL d   1     -42.118-123.468 -48.480  0.00  0.00     0.135 A 
ATOM      5  N   UNL d   1     -41.123-123.807 -49.291  0.00  0.00    -0.121 NA
ENDROOT
BRANCH   2   6
ATOM      6  N   UNL d   1     -41.610-123.404 -50.583  0.00  0.00    -0.181 NA
ATOM      7  C   UNL d   1     -41.487-122.667 -50.902  0.00  0.00     0.287 C 
ATOM      8  O   UNL d   1     -41.458-121.980 -50.439  0.00  0.00    -0.265 OA
BRANCH   7   9
ATOM      9  C   UNL d   1     -41.391-122.603 -51.697  0.00  0.00     0.087 A 
ATOM     10  S   UNL d   1     -41.150-121.928 -52.079  0.00  0.00    -0.082 SA
ATOM     11  C   UNL d   1     -41.123-122.098 -52.900  0.00  0.00     0.036 A 
ATOM     12  C   UNL d   1     -41.343-122.858 -52.997  0.00  0.00     0.008 A 
ATOM     13  C   UNL d   1     -41.513-123.191 -52.282  0.00  0.00     0.012 A 
ENDBRANCH   7   9
ENDBRANCH   2   6
BRANCH   4  14
ATOM     14  C   UNL d   1     -42.605-123.342 -47.799  0.00  0.00     0.026 C 
ATOM     15  C   UNL d   1     -43.362-123.664 -47.730  0.00  0.00     0.002 C 
ATOM     16  C   UNL d   1     -42.308-122.873 -47.174  0.00  0.00     0.002 C 
ENDBRANCH   4  14
TORSDOF 3
ENDMDL
