MODEL 1
REMARK VINA RESULT:      54.4      0.000      0.000
REMARK  4 active torsions:
REMARK  status: ('A' for Active; 'I' for Inactive)
REMARK    1  A    between atoms: N_2  and  S_1 
REMARK    2  A    between atoms: C_6  and  S_1 
REMARK       I    between atoms: C_3  and  N_5 
REMARK    3  A    between atoms: C_7  and  C_3 
REMARK    4  A    between atoms: C_4  and  C_8 
ROOT
ATOM      1  N   UNL d   1      60.121  49.476  51.833  0.00  0.00    -0.226 N 
ATOM      2  C   UNL d   1      57.680  49.560  51.509  0.00  0.00     0.288 C 
ATOM      3  N   UNL d   1      58.494  49.533  51.621  0.00  0.00    -0.267 N 
ATOM      4  C   UNL d   1      59.797  49.361  51.084  0.00  0.00     0.111 A 
ATOM      5  C   UNL d   1      59.621  49.621  52.483  0.00  0.00     0.111 A 
ATOM      6  C   UNL d   1      58.806  49.649  52.370  0.00  0.00     0.103 A 
ATOM      7  C   UNL d   1      58.989  49.391  50.984  0.00  0.00     0.103 A 
ATOM      8  O   UNL d   1      57.180  49.704  52.149  0.00  0.00    -0.264 OA
ENDROOT
BRANCH   1   9
ATOM      9  S   UNL d   1      60.924  49.449  51.944  0.00  0.00     0.271 S 
ATOM     10  O   UNL d   1      61.738  49.422  52.057  0.00  0.00    -0.200 OA
ATOM     11  O   UNL d   1      60.830  49.708  52.711  0.00  0.00    -0.200 OA
BRANCH   9  12
ATOM     12  C   UNL d   1      61.022  49.188  51.170  0.00  0.00     0.104 A 
ATOM     13  C   UNL d   1      61.290  48.423  51.017  0.00  0.00     0.017 A 
ATOM     14  C   UNL d   1      61.388  48.162  50.242  0.00  0.00     0.072 A 
ATOM     15  C   UNL d   1      61.219  48.663  49.614  0.00  0.00     0.004 A 
ATOM     16  C   UNL d   1      60.949  49.434  49.758  0.00  0.00     0.001 A 
ATOM     17  C   UNL d   1      60.850  49.697  50.540  0.00  0.00     0.013 A 
BRANCH  14  18
ATOM     18  C   UNL d   1      61.655  47.399  50.095  0.00  0.00     0.419 C 
ATOM     19  F   UNL d   1      61.204  46.674  50.041  0.00  0.00    -0.166 F 
ATOM     20  F   UNL d   1      62.456  47.120  49.957  0.00  0.00    -0.166 F 
ATOM     21  F   UNL d   1      61.897  46.700  49.961  0.00  0.00    -0.166 F 
ENDBRANCH  14  18
ENDBRANCH   9  12
ENDBRANCH   1   9
BRANCH   2  22
ATOM     22  C   UNL d   1      57.359  49.445  50.759  0.00  0.00     0.156 A 
ATOM     23  O   UNL d   1      57.681  49.707  50.042  0.00  0.00    -0.300 OA
ATOM     24  C   UNL d   1      57.185  49.473  49.437  0.00  0.00     0.123 A 
ATOM     25  C   UNL d   1      56.546  49.062  49.771  0.00  0.00     0.029 A 
ATOM     26  C   UNL d   1      56.654  49.045  50.592  0.00  0.00     0.032 A 
ENDBRANCH   2  22
TORSDOF 4
ENDMDL
