MODEL 1
REMARK VINA RESULT:      -2.8      0.000      0.000
REMARK  6 active torsions:
REMARK  status: ('A' for Active; 'I' for Inactive)
REMARK    1  A    between atoms: C_22  and  C_3 
REMARK    2  A    between atoms: S_17  and  C_5 
REMARK    3  A    between atoms: C_11  and  C_16 
REMARK       I    between atoms: N_14  and  C_11 
REMARK    4  A    between atoms: C_19  and  N_14 
REMARK    5  A    between atoms: C_16  and  C_20 
REMARK    6  A    between atoms: C_20  and  S_17 
ROOT
ATOM      1  C   UNL d   1      59.512  -1.335  29.493  0.00  0.00     0.092 A 
ATOM      2  C   UNL d   1      59.469  -2.697  29.078  0.00  0.00     0.057 A 
ATOM      3  C   UNL d   1      59.903  -2.027  29.281  0.00  0.00     0.016 A 
ATOM      4  N   UNL d   1      58.254  -1.981  29.303  0.00  0.00    -0.239 NA
ATOM      5  C   UNL d   1      58.688  -1.311  29.504  0.00  0.00     0.120 A 
ATOM      6  C   UNL d   1      58.644  -2.674  29.089  0.00  0.00     0.081 A 
ATOM      7  C   UNL d   1      59.860  -3.389  28.866  0.00  0.00     0.193 A 
ATOM      8  C   UNL d   1      59.951  -0.653  29.699  0.00  0.00     0.103 C 
ATOM      9  N   UNL d   1      60.398   0.021  29.902  0.00  0.00    -0.191 NA
ATOM     10  C   UNL d   1      58.600  -4.044  28.672  0.00  0.00     0.042 A 
ATOM     11  C   UNL d   1      59.425  -4.067  28.661  0.00  0.00     0.019 A 
ATOM     12  C   UNL d   1      58.210  -3.343  28.888  0.00  0.00    -0.003 A 
ATOM     13  O   UNL d   1      60.683  -3.413  28.855  0.00  0.00    -0.287 OA
ATOM     14  C   UNL d   1      57.809  -4.289  28.601  0.00  0.00     0.009 C 
ATOM     15  C   UNL d   1      58.982  -4.741  28.458  0.00  0.00     0.009 C 
ENDROOT
BRANCH   3  16
ATOM     16  C   UNL d   1      60.727  -2.050  29.270  0.00  0.00     0.001 C 
ATOM     17  C   UNL d   1      61.133  -2.541  29.792  0.00  0.00     0.000 C 
ENDBRANCH   3  16
BRANCH   5  18
ATOM     18  S   UNL d   1      58.298  -0.607  29.721  0.00  0.00    -0.067 SA
BRANCH  18  19
ATOM     19  C   UNL d   1      57.691  -0.624  30.280  0.00  0.00     0.042 C 
BRANCH  19  20
ATOM     20  C   UNL d   1      57.717  -0.116  30.932  0.00  0.00     0.070 C 
BRANCH  20  21
ATOM     21  C   UNL d   1      57.055  -0.064  31.440  0.00  0.00     0.280 C 
ATOM     22  N   UNL d   1      57.173  -0.010  32.258  0.00  0.00    -0.208 NA
ATOM     23  O   UNL d   1      56.294  -0.066  31.123  0.00  0.00    -0.265 OA
BRANCH  22  24
ATOM     24  C   UNL d   1      56.511   0.042  32.767  0.00  0.00     0.085 A 
ATOM     25  C   UNL d   1      55.945   0.625  32.636  0.00  0.00     0.021 A 
ATOM     26  C   UNL d   1      55.291   0.682  33.133  0.00  0.00     0.031 A 
ATOM     27  C   UNL d   1      55.204   0.156  33.763  0.00  0.00     0.140 A 
ATOM     28  C   UNL d   1      55.778  -0.431  33.893  0.00  0.00     0.031 A 
ATOM     29  F   UNL d   1      54.547   0.206  34.271  0.00  0.00    -0.204 F 
ATOM     30  C   UNL d   1      56.431  -0.487  33.395  0.00  0.00     0.021 A 
ENDBRANCH  22  24
ENDBRANCH  20  21
ENDBRANCH  19  20
ENDBRANCH  18  19
ENDBRANCH   5  18
TORSDOF 6
ENDMDL
MODEL 2
REMARK VINA RESULT:      -0.8      2.175      6.064
REMARK  6 active torsions:
REMARK  status: ('A' for Active; 'I' for Inactive)
REMARK    1  A    between atoms: C_22  and  C_3 
REMARK    2  A    between atoms: S_17  and  C_5 
REMARK    3  A    between atoms: C_11  and  C_16 
REMARK       I    between atoms: N_14  and  C_11 
REMARK    4  A    between atoms: C_19  and  N_14 
REMARK    5  A    between atoms: C_16  and  C_20 
REMARK    6  A    between atoms: C_20  and  S_17 
ROOT
ATOM      1  C   UNL d   1      57.407   0.681  33.317  0.00  0.00     0.092 A 
ATOM      2  C   UNL d   1      56.177   0.682  34.037  0.00  0.00     0.057 A 
ATOM      3  C   UNL d   1      57.001   0.681  34.033  0.00  0.00     0.016 A 
ATOM      4  N   UNL d   1      56.167   0.681  32.609  0.00  0.00    -0.239 NA
ATOM      5  C   UNL d   1      56.990   0.681  32.605  0.00  0.00     0.120 A 
ATOM      6  C   UNL d   1      55.760   0.681  33.325  0.00  0.00     0.081 A 
ATOM      7  C   UNL d   1      55.772   0.682  34.753  0.00  0.00     0.193 A 
ATOM      8  C   UNL d   1      58.243   0.681  33.310  0.00  0.00     0.103 C 
ATOM      9  N   UNL d   1      59.077   0.681  33.314  0.00  0.00    -0.191 NA
ATOM     10  C   UNL d   1      54.524   0.682  34.050  0.00  0.00     0.042 A 
ATOM     11  C   UNL d   1      54.941   0.682  34.762  0.00  0.00     0.019 A 
ATOM     12  C   UNL d   1      54.938   0.682  33.330  0.00  0.00    -0.003 A 
ATOM     13  O   UNL d   1      56.188   0.682  35.464  0.00  0.00    -0.287 OA
ATOM     14  C   UNL d   1      53.887   0.682  33.515  0.00  0.00     0.009 C 
ATOM     15  C   UNL d   1      54.110   0.682  34.761  0.00  0.00     0.009 C 
ENDROOT
BRANCH   3  16
ATOM     16  C   UNL d   1      57.418   0.681  34.744  0.00  0.00     0.001 C 
ATOM     17  C   UNL d   1      58.069   0.185  34.841  0.00  0.00     0.000 C 
ENDBRANCH   3  16
BRANCH   5  18
ATOM     18  S   UNL d   1      57.407   0.681  31.883  0.00  0.00    -0.067 SA
BRANCH  18  19
ATOM     19  C   UNL d   1      57.123   0.248  31.240  0.00  0.00     0.042 C 
BRANCH  19  20
ATOM     20  C   UNL d   1      57.522   0.276  30.516  0.00  0.00     0.070 C 
BRANCH  20  21
ATOM     21  C   UNL d   1      57.863  -0.422  30.206  0.00  0.00     0.280 C 
ATOM     22  N   UNL d   1      58.545  -0.370  29.741  0.00  0.00    -0.208 NA
ATOM     23  O   UNL d   1      57.517  -1.153  30.367  0.00  0.00    -0.265 OA
BRANCH  22  24
ATOM     24  C   UNL d   1      58.887  -1.068  29.430  0.00  0.00     0.085 A 
ATOM     25  C   UNL d   1      58.506  -1.468  28.821  0.00  0.00     0.021 A 
ATOM     26  C   UNL d   1      58.837  -2.156  28.511  0.00  0.00     0.031 A 
ATOM     27  C   UNL d   1      59.550  -2.442  28.811  0.00  0.00     0.140 A 
ATOM     28  C   UNL d   1      59.932  -2.035  29.426  0.00  0.00     0.031 A 
ATOM     29  F   UNL d   1      59.892  -3.136  28.504  0.00  0.00    -0.204 F 
ATOM     30  C   UNL d   1      59.601  -1.348  29.735  0.00  0.00     0.021 A 
ENDBRANCH  22  24
ENDBRANCH  20  21
ENDBRANCH  19  20
ENDBRANCH  18  19
ENDBRANCH   5  18
TORSDOF 6
ENDMDL
