MODEL 1
REMARK VINA RESULT:      48.0      0.000      0.000
REMARK  4 active torsions:
REMARK  status: ('A' for Active; 'I' for Inactive)
REMARK    1  A    between atoms: C_11  and  C_3 
REMARK    2  A    between atoms: C_10  and  N_5 
REMARK    3  A    between atoms: O_17  and  C_11 
REMARK    4  A    between atoms: C_22  and  O_17 
ROOT
ATOM      1  C   UNL d   1      45.077 -16.180  37.893  0.00  0.00     0.086 A 
ATOM      2  C   UNL d   1      45.641 -15.651  37.603  0.00  0.00     0.038 A 
ATOM      3  C   UNL d   1      45.435 -15.060  37.063  0.00  0.00     0.165 A 
ATOM      4  C   UNL d   1      44.296 -16.109  37.633  0.00  0.00     0.282 A 
ATOM      5  N   UNL d   1      44.084 -15.532  37.103  0.00  0.00    -0.194 N 
ATOM      6  N   UNL d   1      44.654 -15.007  36.818  0.00  0.00    -0.157 NA
ATOM      7  C   UNL d   1      45.454 -16.697  38.416  0.00  0.00     0.137 A 
ATOM      8  C   UNL d   1      46.371 -15.843  37.949  0.00  0.00     0.039 A 
ATOM      9  S   UNL d   1      46.251 -16.488  38.449  0.00  0.00    -0.066 SA
ATOM     10  O   UNL d   1      43.727 -16.634  37.918  0.00  0.00    -0.265 OA
ATOM     11  N   UNL d   1      45.094 -17.308  38.826  0.00  0.00    -0.141 N 
ENDROOT
BRANCH   5  12
ATOM     12  C   UNL d   1      43.297 -15.467  36.847  0.00  0.00     0.087 A 
ATOM     13  C   UNL d   1      42.853 -16.140  36.723  0.00  0.00     0.031 A 
ATOM     14  C   UNL d   1      42.078 -16.094  36.471  0.00  0.00     0.059 A 
ATOM     15 CL   UNL d   1      41.630 -16.775  36.346  0.00  0.00    -0.082 Cl
ATOM     16  C   UNL d   1      41.736 -15.344  36.338  0.00  0.00     0.011 A 
ATOM     17  C   UNL d   1      42.184 -14.664  36.463  0.00  0.00     0.002 A 
ATOM     18  C   UNL d   1      42.964 -14.724  36.717  0.00  0.00     0.019 A 
ENDBRANCH   5  12
BRANCH   3  19
ATOM     19  C   UNL d   1      46.004 -14.535  36.777  0.00  0.00     0.320 C 
ATOM     20  O   UNL d   1      46.636 -14.816  36.331  0.00  0.00    -0.257 OA
BRANCH  19  21
ATOM     21  O   UNL d   1      45.936 -13.725  36.942  0.00  0.00    -0.270 OA
BRANCH  21  22
ATOM     22  C   UNL d   1      46.450 -13.366  37.477  0.00  0.00     0.126 C 
ATOM     23  C   UNL d   1      46.628 -12.562  37.405  0.00  0.00     0.029 C 
ENDBRANCH  21  22
ENDBRANCH  19  21
ENDBRANCH   3  19
TORSDOF 4
ENDMDL
