MODEL 1
REMARK VINA RESULT:      54.6      0.000      0.000
REMARK  5 active torsions:
REMARK  status: ('A' for Active; 'I' for Inactive)
REMARK    1  A    between atoms: C_4  and  S_1 
REMARK    2  A    between atoms: N_5  and  S_1 
REMARK    3  A    between atoms: C_2  and  C_9 
REMARK       I    between atoms: N_3  and  C_2 
REMARK    4  A    between atoms: C_14  and  N_5 
REMARK    5  A    between atoms: C_15  and  C_14 
ROOT
ATOM      1  C   UNL d   1     -51.108  24.633  33.488  0.00  0.00     0.057 A 
ATOM      2  C   UNL d   1     -51.514  25.321  33.709  0.00  0.00     0.005 A 
ATOM      3  C   UNL d   1     -50.306  24.673  33.306  0.00  0.00     0.005 A 
ATOM      4  C   UNL d   1     -50.312  26.073  33.563  0.00  0.00     0.020 A 
ATOM      5  C   UNL d   1     -51.122  26.037  33.747  0.00  0.00     0.002 A 
ATOM      6  C   UNL d   1     -49.908  25.396  33.344  0.00  0.00     0.002 A 
ENDROOT
BRANCH   4   7
ATOM      7  C   UNL d   1     -49.913  26.801  33.601  0.00  0.00     0.112 C 
BRANCH   7   8
ATOM      8  N   UNL d   1     -50.040  27.307  34.243  0.00  0.00    -0.157 NA
BRANCH   8   9
ATOM      9  S   UNL d   1     -49.485  27.902  34.417  0.00  0.00     0.285 S 
ATOM     10  O   UNL d   1     -49.268  27.495  35.109  0.00  0.00    -0.198 OA
ATOM     11  O   UNL d   1     -49.702  28.308  33.725  0.00  0.00    -0.198 OA
BRANCH   9  12
ATOM     12  C   UNL d   1     -48.930  28.496  34.592  0.00  0.00     0.106 A 
ATOM     13  C   UNL d   1     -48.498  28.456  35.288  0.00  0.00     0.024 A 
ATOM     14  C   UNL d   1     -47.944  29.041  35.473  0.00  0.00     0.059 A 
ATOM     15 CL   UNL d   1     -47.509  29.003  36.170  0.00  0.00    -0.082 Cl
ATOM     16  C   UNL d   1     -47.830  29.665  34.949  0.00  0.00     0.011 A 
ATOM     17  C   UNL d   1     -48.263  29.699  34.258  0.00  0.00     0.002 A 
ATOM     18  C   UNL d   1     -48.814  29.116  34.076  0.00  0.00     0.013 A 
ENDBRANCH   9  12
ENDBRANCH   8   9
ENDBRANCH   7   8
ENDBRANCH   4   7
BRANCH   1  19
ATOM     19  C   UNL d   1     -51.505  23.902  33.448  0.00  0.00     0.265 C 
ATOM     20  N   UNL d   1     -52.333  23.882  33.395  0.00  0.00    -0.272 N 
ATOM     21  C   UNL d   1     -52.831  24.536  33.376  0.00  0.00     0.083 A 
ATOM     22  C   UNL d   1     -52.800  23.201  33.352  0.00  0.00     0.083 A 
ATOM     23  C   UNL d   1     -53.608  24.263  33.321  0.00  0.00     0.021 A 
ATOM     24  C   UNL d   1     -53.590  23.445  33.306  0.00  0.00     0.021 A 
ATOM     25  O   UNL d   1     -51.071  23.189  33.462  0.00  0.00    -0.267 OA
ENDBRANCH   1  19
TORSDOF 5
ENDMDL
MODEL 2
REMARK VINA RESULT:      57.4      2.130      6.116
REMARK  5 active torsions:
REMARK  status: ('A' for Active; 'I' for Inactive)
REMARK    1  A    between atoms: C_4  and  S_1 
REMARK    2  A    between atoms: N_5  and  S_1 
REMARK    3  A    between atoms: C_2  and  C_9 
REMARK       I    between atoms: N_3  and  C_2 
REMARK    4  A    between atoms: C_14  and  N_5 
REMARK    5  A    between atoms: C_15  and  C_14 
ROOT
ATOM      1  C   UNL d   1     -47.729  29.684  35.553  0.00  0.00     0.057 A 
ATOM      2  C   UNL d   1     -48.314  29.340  36.028  0.00  0.00     0.005 A 
ATOM      3  C   UNL d   1     -47.512  29.323  34.845  0.00  0.00     0.005 A 
ATOM      4  C   UNL d   1     -48.456  28.284  35.082  0.00  0.00     0.020 A 
ATOM      5  C   UNL d   1     -48.677  28.645  35.797  0.00  0.00     0.002 A 
ATOM      6  C   UNL d   1     -47.878  28.620  34.610  0.00  0.00     0.002 A 
ENDROOT
BRANCH   4   7
ATOM      7  C   UNL d   1     -48.824  27.577  34.846  0.00  0.00     0.112 C 
BRANCH   7   8
ATOM      8  N   UNL d   1     -49.074  27.484  34.063  0.00  0.00    -0.157 NA
BRANCH   8   9
ATOM      9  S   UNL d   1     -49.641  26.904  33.875  0.00  0.00     0.285 S 
ATOM     10  O   UNL d   1     -50.220  27.341  34.282  0.00  0.00    -0.198 OA
ATOM     11  O   UNL d   1     -49.062  26.469  33.469  0.00  0.00    -0.198 OA
BRANCH   9  12
ATOM     12  C   UNL d   1     -50.208  26.326  33.688  0.00  0.00     0.106 A 
ATOM     13  C   UNL d   1     -49.977  25.546  33.592  0.00  0.00     0.024 A 
ATOM     14  C   UNL d   1     -50.533  24.962  33.406  0.00  0.00     0.059 A 
ATOM     15 CL   UNL d   1     -50.303  24.178  33.310  0.00  0.00    -0.082 Cl
ATOM     16  C   UNL d   1     -51.322  25.175  33.318  0.00  0.00     0.011 A 
ATOM     17  C   UNL d   1     -51.546  25.953  33.415  0.00  0.00     0.002 A 
ATOM     18  C   UNL d   1     -50.992  26.532  33.600  0.00  0.00     0.013 A 
ENDBRANCH   9  12
ENDBRANCH   8   9
ENDBRANCH   7   8
ENDBRANCH   4   7
BRANCH   1  19
ATOM     19  C   UNL d   1     -47.357  30.392  35.786  0.00  0.00     0.265 C 
ATOM     20  N   UNL d   1     -47.486  31.089  35.353  0.00  0.00    -0.272 N 
ATOM     21  C   UNL d   1     -47.963  31.162  34.688  0.00  0.00     0.083 A 
ATOM     22  C   UNL d   1     -47.156  31.829  35.517  0.00  0.00     0.083 A 
ATOM     23  C   UNL d   1     -47.931  31.948  34.437  0.00  0.00     0.021 A 
ATOM     24  C   UNL d   1     -47.437  32.358  34.944  0.00  0.00     0.021 A 
ATOM     25  O   UNL d   1     -46.855  30.403  36.452  0.00  0.00    -0.267 OA
ENDBRANCH   1  19
TORSDOF 5
ENDMDL
