MODEL 1
REMARK VINA RESULT:      -0.5      0.000      0.000
REMARK  8 active torsions:
REMARK  status: ('A' for Active; 'I' for Inactive)
REMARK    1  A    between atoms: C_14  and  N_1 
REMARK    2  A    between atoms: S_10  and  C_2 
REMARK    3  A    between atoms: C_7  and  C_9 
REMARK       I    between atoms: N_8  and  C_7 
REMARK    4  A    between atoms: C_26  and  S_10 
REMARK    5  A    between atoms: C_13  and  C_18 
REMARK    6  A    between atoms: C_16  and  C_26 
REMARK    7  A    between atoms: O_28  and  C_16 
REMARK    8  A    between atoms: C_31  and  O_28 
ROOT
ATOM      1  N   UNL d   1      58.429  -9.582  30.828  0.00  0.00    -0.254 N 
ATOM      2  C   UNL d   1      59.230  -9.659  30.703  0.00  0.00     0.182 A 
ATOM      3  C   UNL d   1      58.142  -9.439  31.593  0.00  0.00     0.268 A 
ATOM      4  N   UNL d   1      59.754  -9.595  31.329  0.00  0.00    -0.222 NA
ATOM      5  C   UNL d   1      58.660  -9.374  32.221  0.00  0.00     0.074 A 
ATOM      6  C   UNL d   1      59.479  -9.452  32.097  0.00  0.00     0.088 A 
ATOM      7  C   UNL d   1      59.724  -9.243  33.498  0.00  0.00     0.058 A 
ATOM      8  C   UNL d   1      60.012  -9.387  32.731  0.00  0.00     0.024 A 
ATOM      9  C   UNL d   1      58.383  -9.230  32.992  0.00  0.00     0.006 A 
ATOM     10  O   UNL d   1      57.324  -9.361  31.717  0.00  0.00    -0.267 OA
ATOM     11  C   UNL d   1      58.909  -9.167  33.615  0.00  0.00     0.005 A 
ENDROOT
BRANCH   7  12
ATOM     12  C   UNL d   1      60.256  -9.180  34.123  0.00  0.00     0.265 C 
ATOM     13  N   UNL d   1      60.261  -8.534  34.606  0.00  0.00    -0.272 N 
ATOM     14  C   UNL d   1      59.708  -7.919  34.459  0.00  0.00     0.083 A 
ATOM     15  C   UNL d   1      60.785  -8.469  35.223  0.00  0.00     0.083 A 
ATOM     16  C   UNL d   1      59.718  -7.260  34.956  0.00  0.00     0.024 A 
ATOM     17  C   UNL d   1      60.248  -7.194  35.581  0.00  0.00     0.062 A 
ATOM     18  C   UNL d   1      60.797  -7.815  35.719  0.00  0.00     0.024 A 
ATOM     19  O   UNL d   1      60.803  -9.817  34.247  0.00  0.00    -0.267 OA
BRANCH  17  20
ATOM     20  C   UNL d   1      60.248  -6.530  36.070  0.00  0.00     0.297 C 
ATOM     21  O   UNL d   1      60.965  -6.190  36.307  0.00  0.00    -0.264 OA
ATOM     22  N   UNL d   1      59.530  -6.198  36.328  0.00  0.00    -0.102 N 
ENDBRANCH  17  20
ENDBRANCH   7  12
BRANCH   2  23
ATOM     23  S   UNL d   1      59.520  -9.804  29.931  0.00  0.00    -0.044 SA
BRANCH  23  24
ATOM     24  C   UNL d   1      60.326  -9.811  29.798  0.00  0.00     0.107 C 
BRANCH  24  25
ATOM     25  C   UNL d   1      60.626  -9.403  29.137  0.00  0.00     0.307 C 
ATOM     26  O   UNL d   1      60.919  -9.815  28.487  0.00  0.00    -0.258 OA
BRANCH  25  27
ATOM     27  O   UNL d   1      60.624  -8.573  29.145  0.00  0.00    -0.271 OA
BRANCH  27  28
ATOM     28  C   UNL d   1      60.900  -8.170  28.474  0.00  0.00     0.126 C 
ATOM     29  C   UNL d   1      60.955  -7.369  28.512  0.00  0.00     0.029 C 
ENDBRANCH  27  28
ENDBRANCH  25  27
ENDBRANCH  24  25
ENDBRANCH  23  24
ENDBRANCH   2  23
BRANCH   1  30
ATOM     30  C   UNL d   1      57.904  -9.646  30.203  0.00  0.00     0.069 A 
ATOM     31  C   UNL d   1      57.101  -9.606  30.333  0.00  0.00     0.018 A 
ATOM     32  C   UNL d   1      56.573  -9.670  29.707  0.00  0.00     0.002 A 
ATOM     33  C   UNL d   1      56.865  -9.777  28.929  0.00  0.00     0.000 A 
ATOM     34  C   UNL d   1      57.675  -9.817  28.805  0.00  0.00     0.002 A 
ATOM     35  C   UNL d   1      58.211  -9.753  29.431  0.00  0.00     0.018 A 
ENDBRANCH   1  30
TORSDOF 8
ENDMDL
