MODEL 1
REMARK VINA RESULT:      54.0      0.000      0.000
REMARK  5 active torsions:
REMARK  status: ('A' for Active; 'I' for Inactive)
REMARK    1  A    between atoms: C_6  and  N_2 
REMARK    2  A    between atoms: C_7  and  C_6 
REMARK    3  A    between atoms: C_8  and  C_7 
REMARK       I    between atoms: N_10  and  C_8 
REMARK    4  A    between atoms: C_12  and  N_10 
REMARK    5  A    between atoms: C_13  and  C_12 
ROOT
ATOM      1  C   UNL d   1      60.375  49.692  51.038  0.00  0.00     0.088 C 
ENDROOT
BRANCH   1   2
ATOM      2  N   UNL d   1      59.589  49.697  51.285  0.00  0.00    -0.268 N 
ATOM      3  C   UNL d   1      59.326  49.700  52.063  0.00  0.00     0.296 A 
ATOM      4  S   UNL d   1      58.470  49.705  52.031  0.00  0.00    -0.025 SA
ATOM      5  O   UNL d   1      59.804  49.699  52.735  0.00  0.00    -0.259 OA
ATOM      6  C   UNL d   1      58.257  49.704  51.266  0.00  0.00     0.050 A 
ATOM      7  C   UNL d   1      57.504  49.708  50.921  0.00  0.00     0.008 A 
ATOM      8  C   UNL d   1      58.930  49.700  50.789  0.00  0.00     0.073 A 
ATOM      9  C   UNL d   1      57.426  49.706  50.094  0.00  0.00     0.001 A 
ATOM     10  C   UNL d   1      58.105  49.702  49.627  0.00  0.00     0.002 A 
ATOM     11  C   UNL d   1      58.855  49.698  49.975  0.00  0.00     0.018 A 
ENDBRANCH   1   2
BRANCH   1  12
ATOM     12  C   UNL d   1      60.839  49.024  51.148  0.00  0.00     0.082 C 
BRANCH  12  13
ATOM     13  C   UNL d   1      61.252  48.693  50.516  0.00  0.00     0.281 C 
ATOM     14  N   UNL d   1      61.346  47.878  50.459  0.00  0.00    -0.206 NA
ATOM     15  O   UNL d   1      61.575  49.183  49.937  0.00  0.00    -0.265 OA
BRANCH  14  16
ATOM     16  C   UNL d   1      61.757  47.552  49.830  0.00  0.00     0.102 C 
BRANCH  16  17
ATOM     17  C   UNL d   1      61.753  46.738  49.719  0.00  0.00     0.019 A 
ATOM     18  C   UNL d   1      61.146  46.273  50.049  0.00  0.00     0.002 A 
ATOM     19  C   UNL d   1      61.149  45.451  49.932  0.00  0.00     0.000 A 
ATOM     20  C   UNL d   1      61.746  45.092  49.495  0.00  0.00     0.000 A 
ATOM     21  C   UNL d   1      62.354  45.556  49.165  0.00  0.00     0.000 A 
ATOM     22  C   UNL d   1      62.363  46.378  49.273  0.00  0.00     0.002 A 
ENDBRANCH  16  17
ENDBRANCH  14  16
ENDBRANCH  12  13
ENDBRANCH   1  12
TORSDOF 5
ENDMDL
