MODEL 1
REMARK VINA RESULT:       8.6      0.000      0.000
REMARK  3 active torsions:
REMARK  status: ('A' for Active; 'I' for Inactive)
REMARK       I    between atoms: N_4  and  C_1 
REMARK    1  A    between atoms: O_11  and  C_3 
REMARK    2  A    between atoms: C_6  and  N_4 
REMARK    3  A    between atoms: O_12  and  C_7 
ROOT
ATOM      1  C   UNL d   1     -51.235  24.169  33.306  0.00  0.00     0.046 A 
ATOM      2  C   UNL d   1     -50.705  24.799  33.306  0.00  0.00     0.118 A 
ATOM      3  C   UNL d   1     -52.050  24.313  33.306  0.00  0.00     0.102 A 
ATOM      4  C   UNL d   1     -50.987  25.576  33.306  0.00  0.00     0.116 A 
ATOM      5  C   UNL d   1     -51.802  25.719  33.306  0.00  0.00     0.028 A 
ATOM      6  C   UNL d   1     -52.331  25.085  33.306  0.00  0.00     0.022 A 
ENDROOT
BRANCH   3   7
ATOM      7  N   UNL d   1     -52.582  23.680  33.306  0.00  0.00    -0.056 NA
ATOM      8  C   UNL d   1     -53.388  23.814  33.329  0.00  0.00     0.787 C 
ATOM      9  N   UNL d   1     -53.914  23.188  33.329  0.00  0.00     0.064 N 
ATOM     10  N   UNL d   1     -53.670  24.592  33.353  0.00  0.00     0.064 N 
ENDBRANCH   3   7
BRANCH   2  11
ATOM     11  O   UNL d   1     -49.897  24.656  33.306  0.00  0.00    -0.326 OA
ATOM     12  C   UNL d   1     -49.617  23.886  33.355  0.00  0.00     0.181 C 
ENDBRANCH   2  11
BRANCH   4  13
ATOM     13  O   UNL d   1     -50.461  26.202  33.306  0.00  0.00    -0.326 OA
ATOM     14  C   UNL d   1     -50.742  26.975  33.353  0.00  0.00     0.181 C 
ENDBRANCH   4  13
TORSDOF 3
ENDMDL
MODEL 2
REMARK VINA RESULT:       9.4      1.803      2.708
REMARK  3 active torsions:
REMARK  status: ('A' for Active; 'I' for Inactive)
REMARK       I    between atoms: N_4  and  C_1 
REMARK    1  A    between atoms: O_11  and  C_3 
REMARK    2  A    between atoms: C_6  and  N_4 
REMARK    3  A    between atoms: O_12  and  C_7 
ROOT
ATOM      1  C   UNL d   1     -50.847  24.769  33.438  0.00  0.00     0.046 A 
ATOM      2  C   UNL d   1     -51.222  24.036  33.463  0.00  0.00     0.118 A 
ATOM      3  C   UNL d   1     -51.293  25.462  33.359  0.00  0.00     0.102 A 
ATOM      4  C   UNL d   1     -52.045  23.993  33.409  0.00  0.00     0.116 A 
ATOM      5  C   UNL d   1     -52.492  24.686  33.330  0.00  0.00     0.028 A 
ATOM      6  C   UNL d   1     -52.112  25.418  33.306  0.00  0.00     0.022 A 
ENDROOT
BRANCH   3   7
ATOM      7  N   UNL d   1     -50.915  26.197  33.334  0.00  0.00    -0.056 NA
ATOM      8  C   UNL d   1     -51.349  26.889  33.366  0.00  0.00     0.787 C 
ATOM      9  N   UNL d   1     -50.976  27.616  33.341  0.00  0.00     0.064 N 
ATOM     10  N   UNL d   1     -52.174  26.848  33.424  0.00  0.00     0.064 N 
ENDBRANCH   3   7
BRANCH   2  11
ATOM     11  O   UNL d   1     -50.780  23.350  33.541  0.00  0.00    -0.326 OA
ATOM     12  C   UNL d   1     -49.960  23.384  33.502  0.00  0.00     0.181 C 
ENDBRANCH   2  11
BRANCH   4  13
ATOM     13  O   UNL d   1     -52.419  23.266  33.434  0.00  0.00    -0.326 OA
ATOM     14  C   UNL d   1     -53.242  23.226  33.446  0.00  0.00     0.181 C 
ENDBRANCH   4  13
TORSDOF 3
ENDMDL
