MODEL 1
REMARK VINA RESULT:      -4.3      0.000      0.000
REMARK  3 active torsions:
REMARK  status: ('A' for Active; 'I' for Inactive)
REMARK    1  A    between atoms: N_2  and  S_1 
REMARK    2  A    between atoms: C_5  and  S_1 
REMARK    3  A    between atoms: S_9  and  C_3 
ROOT
ATOM      1  S   UNL d   1      59.520  -9.046  35.508  0.00  0.00     0.273 S 
ATOM      2  O   UNL d   1      58.971  -9.273  36.081  0.00  0.00    -0.200 OA
ATOM      3  O   UNL d   1      59.328  -9.818  35.325  0.00  0.00    -0.200 OA
ENDROOT
BRANCH   1   4
ATOM      4  N   UNL d   1      60.029  -9.056  34.856  0.00  0.00    -0.208 N 
ATOM      5  C   UNL d   1      59.809  -9.220  34.074  0.00  0.00     0.185 A 
ATOM      6  N   UNL d   1      60.484  -9.171  33.602  0.00  0.00    -0.219 NA
ATOM      7  C   UNL d   1      61.119  -8.977  34.094  0.00  0.00     0.121 A 
ATOM      8  C   UNL d   1      60.844  -8.905  34.866  0.00  0.00     0.114 A 
BRANCH   5   9
ATOM      9  S   UNL d   1      59.043  -9.402  33.812  0.00  0.00    -0.075 SA
ATOM     10  C   UNL d   1      58.905  -9.527  33.010  0.00  0.00     0.077 C 
ENDBRANCH   5   9
ENDBRANCH   1   4
BRANCH   1  11
ATOM     11  C   UNL d   1      59.702  -8.268  35.709  0.00  0.00     0.104 A 
ATOM     12  C   UNL d   1      60.395  -8.111  36.118  0.00  0.00     0.013 A 
ATOM     13  C   UNL d   1      60.573  -7.330  36.317  0.00  0.00     0.001 A 
ATOM     14  C   UNL d   1      60.060  -6.718  36.107  0.00  0.00     0.000 A 
ATOM     15  C   UNL d   1      59.366  -6.887  35.695  0.00  0.00     0.001 A 
ATOM     16  C   UNL d   1      60.241  -5.940  36.307  0.00  0.00     0.000 C 
ATOM     17  C   UNL d   1      59.188  -7.668  35.496  0.00  0.00     0.013 A 
ENDBRANCH   1  11
TORSDOF 3
ENDMDL
MODEL 2
REMARK VINA RESULT:      -3.5      8.899      9.680
REMARK  3 active torsions:
REMARK  status: ('A' for Active; 'I' for Inactive)
REMARK    1  A    between atoms: N_2  and  S_1 
REMARK    2  A    between atoms: C_5  and  S_1 
REMARK    3  A    between atoms: S_9  and  C_3 
ROOT
ATOM      1  S   UNL d   1      56.275  -0.783  32.530  0.00  0.00     0.273 S 
ATOM      2  O   UNL d   1      55.880  -1.420  32.182  0.00  0.00    -0.200 OA
ATOM      3  O   UNL d   1      55.855  -1.131  33.137  0.00  0.00    -0.200 OA
ENDROOT
BRANCH   1   4
ATOM      4  N   UNL d   1      56.551  -0.234  33.083  0.00  0.00    -0.208 N 
ATOM      5  C   UNL d   1      56.081   0.202  33.608  0.00  0.00     0.185 A 
ATOM      6  N   UNL d   1      56.578   0.682  34.059  0.00  0.00    -0.219 NA
ATOM      7  C   UNL d   1      57.354   0.541  33.812  0.00  0.00     0.121 A 
ATOM      8  C   UNL d   1      57.343  -0.021  33.211  0.00  0.00     0.114 A 
BRANCH   5   9
ATOM      9  S   UNL d   1      55.255   0.162  33.669  0.00  0.00    -0.075 SA
ATOM     10  C   UNL d   1      54.868   0.585  34.260  0.00  0.00     0.077 C 
ENDBRANCH   5   9
ENDBRANCH   1   4
BRANCH   1  11
ATOM     11  C   UNL d   1      56.691  -0.446  31.904  0.00  0.00     0.104 A 
ATOM     12  C   UNL d   1      57.222  -0.907  31.481  0.00  0.00     0.013 A 
ATOM     13  C   UNL d   1      57.636  -0.565  30.854  0.00  0.00     0.001 A 
ATOM     14  C   UNL d   1      57.517   0.228  30.657  0.00  0.00     0.000 A 
ATOM     15  C   UNL d   1      56.980   0.682  31.089  0.00  0.00     0.001 A 
ATOM     16  C   UNL d   1      57.933   0.565  30.031  0.00  0.00     0.000 C 
ATOM     17  C   UNL d   1      56.566   0.340  31.715  0.00  0.00     0.013 A 
ENDBRANCH   1  11
TORSDOF 3
ENDMDL
MODEL 3
REMARK VINA RESULT:      -3.2      9.523     10.031
REMARK  3 active torsions:
REMARK  status: ('A' for Active; 'I' for Inactive)
REMARK    1  A    between atoms: N_2  and  S_1 
REMARK    2  A    between atoms: C_5  and  S_1 
REMARK    3  A    between atoms: S_9  and  C_3 
ROOT
ATOM      1  S   UNL d   1      58.503   0.016  29.258  0.00  0.00     0.273 S 
ATOM      2  O   UNL d   1      57.912  -0.061  28.686  0.00  0.00    -0.200 OA
ATOM      3  O   UNL d   1      58.894   0.044  28.542  0.00  0.00    -0.200 OA
ENDROOT
BRANCH   1   4
ATOM      4  N   UNL d   1      59.239   0.104  29.624  0.00  0.00    -0.208 N 
ATOM      5  C   UNL d   1      59.905  -0.373  29.493  0.00  0.00     0.185 A 
ATOM      6  N   UNL d   1      60.518  -0.093  29.968  0.00  0.00    -0.219 NA
ATOM      7  C   UNL d   1      60.230   0.556  30.392  0.00  0.00     0.121 A 
ATOM      8  C   UNL d   1      59.445   0.681  30.183  0.00  0.00     0.114 A 
BRANCH   5   9
ATOM      9  S   UNL d   1      59.945  -1.019  28.974  0.00  0.00    -0.075 SA
ATOM     10  C   UNL d   1      60.653  -1.430  28.889  0.00  0.00     0.077 C 
ENDBRANCH   5   9
ENDBRANCH   1   4
BRANCH   1  11
ATOM     11  C   UNL d   1      58.090  -0.014  29.970  0.00  0.00     0.104 A 
ATOM     12  C   UNL d   1      57.943  -0.742  30.318  0.00  0.00     0.013 A 
ATOM     13  C   UNL d   1      57.529  -0.768  31.031  0.00  0.00     0.001 A 
ATOM     14  C   UNL d   1      57.268  -0.071  31.388  0.00  0.00     0.000 A 
ATOM     15  C   UNL d   1      57.421   0.656  31.030  0.00  0.00     0.001 A 
ATOM     16  C   UNL d   1      56.855  -0.100  32.101  0.00  0.00     0.000 C 
ATOM     17  C   UNL d   1      57.835   0.682  30.317  0.00  0.00     0.013 A 
ENDBRANCH   1  11
TORSDOF 3
ENDMDL
MODEL 4
REMARK VINA RESULT:      -2.8      9.567     10.219
REMARK  3 active torsions:
REMARK  status: ('A' for Active; 'I' for Inactive)
REMARK    1  A    between atoms: N_2  and  S_1 
REMARK    2  A    between atoms: C_5  and  S_1 
REMARK    3  A    between atoms: S_9  and  C_3 
ROOT
ATOM      1  S   UNL d   1      58.438  -0.011  29.071  0.00  0.00     0.273 S 
ATOM      2  O   UNL d   1      57.889  -0.049  28.455  0.00  0.00    -0.200 OA
ATOM      3  O   UNL d   1      58.009   0.682  29.124  0.00  0.00    -0.200 OA
ENDROOT
BRANCH   1   4
ATOM      4  N   UNL d   1      58.871   0.249  29.725  0.00  0.00    -0.208 N 
ATOM      5  C   UNL d   1      58.555   0.454  30.465  0.00  0.00     0.185 A 
ATOM      6  N   UNL d   1      59.178   0.682  30.955  0.00  0.00    -0.219 NA
ATOM      7  C   UNL d   1      59.877   0.618  30.519  0.00  0.00     0.121 A 
ATOM      8  C   UNL d   1      59.693   0.353  29.762  0.00  0.00     0.114 A 
BRANCH   5   9
ATOM      9  S   UNL d   1      57.752   0.432  30.673  0.00  0.00    -0.075 SA
ATOM     10  C   UNL d   1      57.523   0.636  31.436  0.00  0.00     0.077 C 
ENDBRANCH   5   9
ENDBRANCH   1   4
BRANCH   1  11
ATOM     11  C   UNL d   1      58.859  -0.714  29.001  0.00  0.00     0.104 A 
ATOM     12  C   UNL d   1      59.554  -0.724  28.566  0.00  0.00     0.013 A 
ATOM     13  C   UNL d   1      59.974  -1.432  28.498  0.00  0.00     0.001 A 
ATOM     14  C   UNL d   1      59.697  -2.119  28.864  0.00  0.00     0.000 A 
ATOM     15  C   UNL d   1      58.996  -2.098  29.300  0.00  0.00     0.001 A 
ATOM     16  C   UNL d   1      60.118  -2.823  28.794  0.00  0.00     0.000 C 
ATOM     17  C   UNL d   1      58.577  -1.390  29.367  0.00  0.00     0.013 A 
ENDBRANCH   1  11
TORSDOF 3
ENDMDL
MODEL 5
REMARK VINA RESULT:      -2.2      8.893      9.480
REMARK  3 active torsions:
REMARK  status: ('A' for Active; 'I' for Inactive)
REMARK    1  A    between atoms: N_2  and  S_1 
REMARK    2  A    between atoms: C_5  and  S_1 
REMARK    3  A    between atoms: S_9  and  C_3 
ROOT
ATOM      1  S   UNL d   1      56.531  -0.800  32.256  0.00  0.00     0.273 S 
ATOM      2  O   UNL d   1      56.102  -1.477  32.056  0.00  0.00    -0.200 OA
ATOM      3  O   UNL d   1      56.985  -1.182  31.695  0.00  0.00    -0.200 OA
ENDROOT
BRANCH   1   4
ATOM      4  N   UNL d   1      57.119  -0.220  32.284  0.00  0.00    -0.208 N 
ATOM      5  C   UNL d   1      57.513   0.103  31.630  0.00  0.00     0.185 A 
ATOM      6  N   UNL d   1      58.054   0.661  31.906  0.00  0.00    -0.219 NA
ATOM      7  C   UNL d   1      57.993   0.682  32.731  0.00  0.00     0.121 A 
ATOM      8  C   UNL d   1      57.420   0.142  32.968  0.00  0.00     0.114 A 
BRANCH   5   9
ATOM      9  S   UNL d   1      57.384  -0.101  30.836  0.00  0.00    -0.075 SA
ATOM     10  C   UNL d   1      57.896   0.177  30.256  0.00  0.00     0.077 C 
ENDBRANCH   5   9
ENDBRANCH   1   4
BRANCH   1  11
ATOM     11  C   UNL d   1      56.059  -0.430  32.820  0.00  0.00     0.104 A 
ATOM     12  C   UNL d   1      56.084  -0.689  33.597  0.00  0.00     0.013 A 
ATOM     13  C   UNL d   1      55.609  -0.315  34.159  0.00  0.00     0.001 A 
ATOM     14  C   UNL d   1      55.117   0.311  33.941  0.00  0.00     0.000 A 
ATOM     15  C   UNL d   1      55.099   0.564  33.155  0.00  0.00     0.001 A 
ATOM     16  C   UNL d   1      54.645   0.682  34.504  0.00  0.00     0.000 C 
ATOM     17  C   UNL d   1      55.574   0.190  32.594  0.00  0.00     0.013 A 
ENDBRANCH   1  11
TORSDOF 3
ENDMDL
MODEL 6
REMARK VINA RESULT:      -1.7      9.169      9.652
REMARK  3 active torsions:
REMARK  status: ('A' for Active; 'I' for Inactive)
REMARK    1  A    between atoms: N_2  and  S_1 
REMARK    2  A    between atoms: C_5  and  S_1 
REMARK    3  A    between atoms: S_9  and  C_3 
ROOT
ATOM      1  S   UNL d   1      59.909  -0.670  28.881  0.00  0.00     0.273 S 
ATOM      2  O   UNL d   1      60.405  -0.031  28.718  0.00  0.00    -0.200 OA
ATOM      3  O   UNL d   1      60.533  -0.987  28.462  0.00  0.00    -0.200 OA
ENDROOT
BRANCH   1   4
ATOM      4  N   UNL d   1      59.592  -1.433  28.918  0.00  0.00    -0.208 N 
ATOM      5  C   UNL d   1      60.007  -2.120  29.125  0.00  0.00     0.185 A 
ATOM      6  N   UNL d   1      59.483  -2.756  29.090  0.00  0.00    -0.219 NA
ATOM      7  C   UNL d   1      58.746  -2.461  28.862  0.00  0.00     0.121 A 
ATOM      8  C   UNL d   1      58.807  -1.648  28.755  0.00  0.00     0.114 A 
BRANCH   5   9
ATOM      9  S   UNL d   1      60.810  -2.159  29.331  0.00  0.00    -0.075 SA
ATOM     10  C   UNL d   1      61.133  -2.874  29.577  0.00  0.00     0.077 C 
ENDBRANCH   5   9
ENDBRANCH   1   4
BRANCH   1  11
ATOM     11  C   UNL d   1      59.288  -0.331  29.304  0.00  0.00     0.104 A 
ATOM     12  C   UNL d   1      59.344  -0.270  30.119  0.00  0.00     0.013 A 
ATOM     13  C   UNL d   1      58.720   0.070  30.539  0.00  0.00     0.001 A 
ATOM     14  C   UNL d   1      58.049   0.343  30.142  0.00  0.00     0.000 A 
ATOM     15  C   UNL d   1      58.003   0.276  29.320  0.00  0.00     0.001 A 
ATOM     16  C   UNL d   1      57.428   0.682  30.563  0.00  0.00     0.000 C 
ATOM     17  C   UNL d   1      58.627  -0.064  28.902  0.00  0.00     0.013 A 
ENDBRANCH   1  11
TORSDOF 3
ENDMDL
MODEL 7
REMARK VINA RESULT:      -1.7      9.453     10.151
REMARK  3 active torsions:
REMARK  status: ('A' for Active; 'I' for Inactive)
REMARK    1  A    between atoms: N_2  and  S_1 
REMARK    2  A    between atoms: C_5  and  S_1 
REMARK    3  A    between atoms: S_9  and  C_3 
ROOT
ATOM      1  S   UNL d   1      60.158  -0.255  28.959  0.00  0.00     0.273 S 
ATOM      2  O   UNL d   1      60.812  -0.271  28.455  0.00  0.00    -0.200 OA
ATOM      3  O   UNL d   1      60.476   0.496  28.999  0.00  0.00    -0.200 OA
ENDROOT
BRANCH   1   4
ATOM      4  N   UNL d   1      59.582  -0.001  29.494  0.00  0.00    -0.208 N 
ATOM      5  C   UNL d   1      59.725   0.320  30.245  0.00  0.00     0.185 A 
ATOM      6  N   UNL d   1      58.998   0.499  30.591  0.00  0.00    -0.219 NA
ATOM      7  C   UNL d   1      58.407   0.288  30.054  0.00  0.00     0.121 A 
ATOM      8  C   UNL d   1      58.760  -0.020  29.378  0.00  0.00     0.114 A 
BRANCH   5   9
ATOM      9  S   UNL d   1      60.472   0.441  30.587  0.00  0.00    -0.075 SA
ATOM     10  C   UNL d   1      60.527   0.682  31.372  0.00  0.00     0.077 C 
ENDBRANCH   5   9
ENDBRANCH   1   4
BRANCH   1  11
ATOM     11  C   UNL d   1      59.853  -1.018  28.906  0.00  0.00     0.104 A 
ATOM     12  C   UNL d   1      59.140  -1.138  28.518  0.00  0.00     0.013 A 
ATOM     13  C   UNL d   1      58.838  -1.904  28.467  0.00  0.00     0.001 A 
ATOM     14  C   UNL d   1      59.247  -2.539  28.801  0.00  0.00     0.000 A 
ATOM     15  C   UNL d   1      59.963  -2.406  29.190  0.00  0.00     0.001 A 
ATOM     16  C   UNL d   1      58.942  -3.302  28.749  0.00  0.00     0.000 C 
ATOM     17  C   UNL d   1      60.265  -1.641  29.241  0.00  0.00     0.013 A 
ENDBRANCH   1  11
TORSDOF 3
ENDMDL
