MODEL 1
REMARK VINA RESULT:      28.8      0.000      0.000
REMARK  4 active torsions:
REMARK  status: ('A' for Active; 'I' for Inactive)
REMARK    1  A    between atoms: N_2  and  S_1 
REMARK    2  A    between atoms: C_3  and  S_1 
REMARK       I    between atoms: C_5  and  N_4 
REMARK    3  A    between atoms: O_17  and  C_5 
REMARK    4  A    between atoms: C_18  and  O_17 
ROOT
ATOM      1  N   UNL d   1     -51.237  26.177  33.317  0.00  0.00    -0.226 N 
ATOM      2  N   UNL d   1     -51.546  24.537  33.313  0.00  0.00    -0.248 N 
ATOM      3  C   UNL d   1     -51.683  23.723  33.311  0.00  0.00     0.378 C 
ATOM      4  C   UNL d   1     -50.614  25.628  33.315  0.00  0.00     0.111 A 
ATOM      5  C   UNL d   1     -52.021  25.893  33.317  0.00  0.00     0.111 A 
ATOM      6  C   UNL d   1     -52.174  25.082  33.316  0.00  0.00     0.105 A 
ATOM      7  C   UNL d   1     -50.766  24.818  33.313  0.00  0.00     0.105 A 
ATOM      8  O   UNL d   1     -51.052  23.192  33.309  0.00  0.00    -0.237 OA
ENDROOT
BRANCH   1   9
ATOM      9  S   UNL d   1     -51.085  26.988  33.319  0.00  0.00     0.277 S 
ATOM     10  O   UNL d   1     -51.896  27.140  33.327  0.00  0.00    -0.199 OA
ATOM     11  O   UNL d   1     -50.259  26.833  33.311  0.00  0.00    -0.199 OA
BRANCH   9  12
ATOM     12  C   UNL d   1     -50.941  27.789  33.321  0.00  0.00     0.133 A 
ATOM     13  S   UNL d   1     -50.220  28.111  33.335  0.00  0.00    -0.074 SA
ATOM     14  C   UNL d   1     -50.306  28.940  33.332  0.00  0.00     0.036 A 
ATOM     15  C   UNL d   1     -51.124  29.110  33.316  0.00  0.00     0.008 A 
ATOM     16  C   UNL d   1     -51.516  28.410  33.309  0.00  0.00     0.020 A 
ENDBRANCH   9  12
ENDBRANCH   1   9
BRANCH   3  17
ATOM     17  O   UNL d   1     -52.456  23.456  33.312  0.00  0.00    -0.257 OA
BRANCH  17  18
ATOM     18  C   UNL d   1     -53.049  23.921  33.648  0.00  0.00     0.128 C 
ATOM     19  C   UNL d   1     -53.562  23.612  34.201  0.00  0.00     0.029 C 
ENDBRANCH  17  18
ENDBRANCH   3  17
TORSDOF 4
ENDMDL
MODEL 2
REMARK VINA RESULT:      30.2      1.588      4.227
REMARK  4 active torsions:
REMARK  status: ('A' for Active; 'I' for Inactive)
REMARK    1  A    between atoms: N_2  and  S_1 
REMARK    2  A    between atoms: C_3  and  S_1 
REMARK       I    between atoms: C_5  and  N_4 
REMARK    3  A    between atoms: O_17  and  C_5 
REMARK    4  A    between atoms: C_18  and  O_17 
ROOT
ATOM      1  N   UNL d   1     -51.315  25.729  33.712  0.00  0.00    -0.226 N 
ATOM      2  N   UNL d   1     -50.315  27.046  33.940  0.00  0.00    -0.248 N 
ATOM      3  C   UNL d   1     -49.829  27.704  34.042  0.00  0.00     0.378 C 
ATOM      4  C   UNL d   1     -51.453  26.441  33.308  0.00  0.00     0.111 A 
ATOM      5  C   UNL d   1     -50.667  25.684  34.235  0.00  0.00     0.111 A 
ATOM      6  C   UNL d   1     -50.172  26.335  34.347  0.00  0.00     0.105 A 
ATOM      7  C   UNL d   1     -50.959  27.092  33.420  0.00  0.00     0.105 A 
ATOM      8  O   UNL d   1     -49.981  28.404  33.632  0.00  0.00    -0.237 OA
ENDROOT
BRANCH   1   9
ATOM      9  S   UNL d   1     -51.810  25.078  33.600  0.00  0.00     0.277 S 
ATOM     10  O   UNL d   1     -52.454  25.523  33.859  0.00  0.00    -0.199 OA
ATOM     11  O   UNL d   1     -51.153  24.625  33.336  0.00  0.00    -0.199 OA
BRANCH   9  12
ATOM     12  C   UNL d   1     -52.303  24.440  33.491  0.00  0.00     0.133 A 
ATOM     13  S   UNL d   1     -53.090  24.487  33.458  0.00  0.00    -0.074 SA
ATOM     14  C   UNL d   1     -53.393  23.720  33.342  0.00  0.00     0.036 A 
ATOM     15  C   UNL d   1     -52.743  23.195  33.306  0.00  0.00     0.008 A 
ATOM     16  C   UNL d   1     -52.075  23.630  33.397  0.00  0.00     0.020 A 
ENDBRANCH   9  12
ENDBRANCH   1   9
BRANCH   3  17
ATOM     17  O   UNL d   1     -49.196  27.648  34.557  0.00  0.00    -0.257 OA
BRANCH  17  18
ATOM     18  C   UNL d   1     -48.618  28.237  34.560  0.00  0.00     0.128 C 
ATOM     19  C   UNL d   1     -48.327  28.536  35.260  0.00  0.00     0.029 C 
ENDBRANCH  17  18
ENDBRANCH   3  17
TORSDOF 4
ENDMDL
