MODEL 1
REMARK VINA RESULT:      45.7      0.000      0.000
REMARK  6 active torsions:
REMARK  status: ('A' for Active; 'I' for Inactive)
REMARK    1  A    between atoms: C_2  and  S_1 
REMARK    2  A    between atoms: N_10  and  S_1 
REMARK    3  A    between atoms: O_16  and  C_7 
REMARK    4  A    between atoms: C_13  and  N_10 
REMARK    5  A    between atoms: N_11  and  C_17 
REMARK    6  A    between atoms: C_17  and  C_13 
ROOT
ATOM      1  S   UNL d   1      60.061  49.553  50.684  0.00  0.00     0.286 S 
ATOM      2  O   UNL d   1      60.198  49.395  49.880  0.00  0.00    -0.198 OA
ATOM      3  O   UNL d   1      59.926  49.708  51.473  0.00  0.00    -0.198 OA
ENDROOT
BRANCH   1   4
ATOM      4  C   UNL d   1      59.250  49.579  50.540  0.00  0.00     0.117 A 
ATOM      5  C   UNL d   1      58.969  49.630  49.765  0.00  0.00     0.027 A 
ATOM      6  C   UNL d   1      58.157  49.656  49.622  0.00  0.00     0.081 A 
ATOM      7 CL   UNL d   1      57.873  49.708  48.842  0.00  0.00    -0.080 Cl
ATOM      8  C   UNL d   1      57.626  49.631  50.253  0.00  0.00     0.105 A 
ATOM      9  C   UNL d   1      57.907  49.580  51.018  0.00  0.00     0.037 A 
ATOM     10  C   UNL d   1      58.719  49.554  51.161  0.00  0.00     0.072 A 
ATOM     11 CL   UNL d   1      58.995  49.503  51.934  0.00  0.00    -0.082 Cl
BRANCH   8  12
ATOM     12  O   UNL d   1      56.813  49.657  50.109  0.00  0.00    -0.327 OA
ATOM     13  C   UNL d   1      56.284  49.704  50.740  0.00  0.00     0.181 C 
ENDBRANCH   8  12
ENDBRANCH   1   4
BRANCH   1  14
ATOM     14  N   UNL d   1      60.873  49.527  50.827  0.00  0.00    -0.155 NA
BRANCH  14  15
ATOM     15  C   UNL d   1      61.260  48.811  50.853  0.00  0.00     0.131 C 
BRANCH  15  16
ATOM     16  C   UNL d   1      61.140  48.255  50.255  0.00  0.00     0.102 C 
BRANCH  16  17
ATOM     17  N   UNL d   1      61.191  47.449  50.424  0.00  0.00    -0.298 N 
ATOM     18  C   UNL d   1      61.003  47.173  51.179  0.00  0.00     0.107 A 
ATOM     19  C   UNL d   1      61.055  46.366  51.347  0.00  0.00     0.142 A 
ATOM     20  O   UNL d   1      61.295  45.832  50.760  0.00  0.00    -0.300 OA
ATOM     21  C   UNL d   1      61.483  46.109  50.006  0.00  0.00     0.142 A 
ATOM     22  C   UNL d   1      61.431  46.919  49.838  0.00  0.00     0.107 A 
ENDBRANCH  16  17
ENDBRANCH  15  16
ENDBRANCH  14  15
ENDBRANCH   1  14
TORSDOF 6
ENDMDL
MODEL 2
REMARK VINA RESULT:      48.1      1.571      4.327
REMARK  6 active torsions:
REMARK  status: ('A' for Active; 'I' for Inactive)
REMARK    1  A    between atoms: C_2  and  S_1 
REMARK    2  A    between atoms: N_10  and  S_1 
REMARK    3  A    between atoms: O_16  and  C_7 
REMARK    4  A    between atoms: C_13  and  N_10 
REMARK    5  A    between atoms: N_11  and  C_17 
REMARK    6  A    between atoms: C_17  and  C_13 
ROOT
ATOM      1  S   UNL d   1      60.230  48.875  50.672  0.00  0.00     0.286 S 
ATOM      2  O   UNL d   1      60.414  49.265  49.962  0.00  0.00    -0.198 OA
ATOM      3  O   UNL d   1      60.050  48.491  51.368  0.00  0.00    -0.198 OA
ENDROOT
BRANCH   1   4
ATOM      4  C   UNL d   1      60.778  48.286  50.489  0.00  0.00     0.117 A 
ATOM      5  C   UNL d   1      60.609  47.497  50.662  0.00  0.00     0.027 A 
ATOM      6  C   UNL d   1      61.157  46.908  50.480  0.00  0.00     0.081 A 
ATOM      7 CL   UNL d   1      60.988  46.113  50.653  0.00  0.00    -0.080 Cl
ATOM      8  C   UNL d   1      61.874  47.109  50.124  0.00  0.00     0.105 A 
ATOM      9  C   UNL d   1      62.038  47.890  49.955  0.00  0.00     0.037 A 
ATOM     10  C   UNL d   1      61.490  48.479  50.137  0.00  0.00     0.072 A 
ATOM     11 CL   UNL d   1      61.661  49.265  49.964  0.00  0.00    -0.082 Cl
BRANCH   8  12
ATOM     12  O   UNL d   1      62.423  46.519  49.941  0.00  0.00    -0.327 OA
ATOM     13  C   UNL d   1      62.622  46.371  49.154  0.00  0.00     0.181 C 
ENDBRANCH   8  12
ENDBRANCH   1   4
BRANCH   1  14
ATOM     14  N   UNL d   1      59.682  49.464  50.854  0.00  0.00    -0.155 NA
BRANCH  14  15
ATOM     15  C   UNL d   1      58.952  49.468  50.493  0.00  0.00     0.131 C 
BRANCH  15  16
ATOM     16  C   UNL d   1      58.288  49.196  50.900  0.00  0.00     0.102 C 
BRANCH  16  17
ATOM     17  N   UNL d   1      57.539  49.263  50.561  0.00  0.00    -0.298 N 
ATOM     18  C   UNL d   1      57.412  49.007  49.787  0.00  0.00     0.107 A 
ATOM     19  C   UNL d   1      56.662  49.075  49.449  0.00  0.00     0.142 A 
ATOM     20  O   UNL d   1      56.036  49.399  49.884  0.00  0.00    -0.300 OA
ATOM     21  C   UNL d   1      56.164  49.655  50.658  0.00  0.00     0.142 A 
ATOM     22  C   UNL d   1      56.917  49.587  50.997  0.00  0.00     0.107 A 
ENDBRANCH  16  17
ENDBRANCH  15  16
ENDBRANCH  14  15
ENDBRANCH   1  14
TORSDOF 6
ENDMDL
