MODEL 1
REMARK VINA RESULT:      -9.0      0.000      0.000
REMARK  3 active torsions:
REMARK  status: ('A' for Active; 'I' for Inactive)
REMARK    1  A    between atoms: C_8  and  C_2 
REMARK    2  A    between atoms: N_9  and  C_8 
REMARK    3  A    between atoms: C_20  and  C_13 
ROOT
ATOM      1  C   UNL d   1      52.934  33.359  54.047  0.00  0.00     0.108 A 
ATOM      2  C   UNL d   1      52.353  32.978  53.600  0.00  0.00     0.079 A 
ATOM      3  O   UNL d   1      52.789  34.081  54.389  0.00  0.00    -0.273 OA
ATOM      4  C   UNL d   1      53.371  34.466  54.838  0.00  0.00     0.300 A 
ATOM      5  C   UNL d   1      54.260  33.359  54.585  0.00  0.00     0.007 A 
ATOM      6  C   UNL d   1      53.669  32.998  54.145  0.00  0.00     0.023 A 
ATOM      7  C   UNL d   1      54.114  34.102  54.937  0.00  0.00     0.064 A 
ATOM      8  C   UNL d   1      53.826  32.263  53.801  0.00  0.00     0.005 A 
ATOM      9  C   UNL d   1      52.495  32.249  53.254  0.00  0.00     0.199 A 
ATOM     10  O   UNL d   1      53.232  35.201  55.189  0.00  0.00    -0.259 OA
ATOM     11  C   UNL d   1      53.230  31.888  53.352  0.00  0.00     0.042 A 
ATOM     12  C   UNL d   1      55.027  33.134  54.771  0.00  0.00     0.000 A 
ATOM     13  C   UNL d   1      54.802  34.326  55.341  0.00  0.00     0.005 A 
ATOM     14  O   UNL d   1      51.915  31.871  52.809  0.00  0.00    -0.286 OA
ATOM     15  C   UNL d   1      55.367  33.737  55.243  0.00  0.00     0.000 A 
ENDROOT
BRANCH   2  16
ATOM     16  C   UNL d   1      51.613  33.349  53.506  0.00  0.00     0.085 C 
BRANCH  16  17
ATOM     17  N   UNL d   1      51.429  33.750  52.811  0.00  0.00    -0.304 N 
ATOM     18  C   UNL d   1      50.718  34.120  52.748  0.00  0.00     0.064 A 
ATOM     19  C   UNL d   1      50.534  34.521  52.053  0.00  0.00     0.018 A 
ATOM     20  C   UNL d   1      51.078  34.539  51.430  0.00  0.00     0.003 A 
ATOM     21  C   UNL d   1      51.786  34.166  51.505  0.00  0.00     0.019 A 
ATOM     22  C   UNL d   1      51.970  33.765  52.200  0.00  0.00     0.080 A 
BRANCH  18  23
ATOM     23  C   UNL d   1      50.176  34.104  53.363  0.00  0.00     0.018 C 
ATOM     24  C   UNL d   1      49.534  34.614  53.374  0.00  0.00     0.002 C 
ENDBRANCH  18  23
ENDBRANCH  16  17
ENDBRANCH   2  16
TORSDOF 3
ENDMDL
MODEL 2
REMARK VINA RESULT:      -8.5      1.043      2.769
REMARK  3 active torsions:
REMARK  status: ('A' for Active; 'I' for Inactive)
REMARK    1  A    between atoms: C_8  and  C_2 
REMARK    2  A    between atoms: N_9  and  C_8 
REMARK    3  A    between atoms: C_20  and  C_13 
ROOT
ATOM      1  C   UNL d   1      53.096  32.260  53.423  0.00  0.00     0.108 A 
ATOM      2  C   UNL d   1      53.056  33.082  53.506  0.00  0.00     0.079 A 
ATOM      3  O   UNL d   1      52.754  31.888  52.788  0.00  0.00    -0.273 OA
ATOM      4  C   UNL d   1      52.793  31.064  52.704  0.00  0.00     0.300 A 
ATOM      5  C   UNL d   1      53.541  31.000  53.934  0.00  0.00     0.007 A 
ATOM      6  C   UNL d   1      53.490  31.816  53.996  0.00  0.00     0.023 A 
ATOM      7  C   UNL d   1      53.190  30.615  53.282  0.00  0.00     0.064 A 
ATOM      8  C   UNL d   1      53.842  32.186  54.647  0.00  0.00     0.005 A 
ATOM      9  C   UNL d   1      53.400  33.461  54.145  0.00  0.00     0.199 A 
ATOM     10  O   UNL d   1      52.447  30.677  52.060  0.00  0.00    -0.259 OA
ATOM     11  C   UNL d   1      53.794  33.016  54.718  0.00  0.00     0.042 A 
ATOM     12  C   UNL d   1      53.891  30.430  54.410  0.00  0.00     0.000 A 
ATOM     13  C   UNL d   1      53.330  29.803  53.367  0.00  0.00     0.005 A 
ATOM     14  O   UNL d   1      53.359  34.279  54.225  0.00  0.00    -0.286 OA
ATOM     15  C   UNL d   1      53.760  29.681  54.058  0.00  0.00     0.000 A 
ENDROOT
BRANCH   2  16
ATOM     16  C   UNL d   1      52.657  33.523  52.923  0.00  0.00     0.085 C 
BRANCH  16  17
ATOM     17  N   UNL d   1      51.874  33.754  53.033  0.00  0.00    -0.304 N 
ATOM     18  C   UNL d   1      51.487  34.126  52.434  0.00  0.00     0.064 A 
ATOM     19  C   UNL d   1      50.704  34.356  52.544  0.00  0.00     0.018 A 
ATOM     20  C   UNL d   1      50.326  34.205  53.264  0.00  0.00     0.003 A 
ATOM     21  C   UNL d   1      50.723  33.832  53.856  0.00  0.00     0.019 A 
ATOM     22  C   UNL d   1      51.506  33.601  53.745  0.00  0.00     0.080 A 
BRANCH  18  23
ATOM     23  C   UNL d   1      51.858  34.278  51.719  0.00  0.00     0.018 C 
ATOM     24  C   UNL d   1      51.431  34.525  51.064  0.00  0.00     0.002 C 
ENDBRANCH  18  23
ENDBRANCH  16  17
ENDBRANCH   2  16
TORSDOF 3
ENDMDL
MODEL 3
REMARK VINA RESULT:      -8.1      1.183      3.622
REMARK  3 active torsions:
REMARK  status: ('A' for Active; 'I' for Inactive)
REMARK    1  A    between atoms: C_8  and  C_2 
REMARK    2  A    between atoms: N_9  and  C_8 
REMARK    3  A    between atoms: C_20  and  C_13 
ROOT
ATOM      1  C   UNL d   1      52.466  33.188  53.615  0.00  0.00     0.108 A 
ATOM      2  C   UNL d   1      53.008  32.612  53.857  0.00  0.00     0.079 A 
ATOM      3  O   UNL d   1      52.486  33.937  53.927  0.00  0.00    -0.273 OA
ATOM      4  C   UNL d   1      51.942  34.515  53.686  0.00  0.00     0.300 A 
ATOM      5  C   UNL d   1      51.350  33.549  52.794  0.00  0.00     0.007 A 
ATOM      6  C   UNL d   1      51.898  32.994  53.049  0.00  0.00     0.023 A 
ATOM      7  C   UNL d   1      51.369  34.320  53.114  0.00  0.00     0.064 A 
ATOM      8  C   UNL d   1      51.869  32.233  52.725  0.00  0.00     0.005 A 
ATOM      9  C   UNL d   1      52.990  31.856  53.544  0.00  0.00     0.199 A 
ATOM     10  O   UNL d   1      51.956  35.280  53.998  0.00  0.00    -0.259 OA
ATOM     11  C   UNL d   1      52.423  31.662  52.978  0.00  0.00     0.042 A 
ATOM     12  C   UNL d   1      50.737  33.512  52.250  0.00  0.00     0.000 A 
ATOM     13  C   UNL d   1      50.759  34.753  52.757  0.00  0.00     0.005 A 
ATOM     14  O   UNL d   1      53.531  31.285  53.786  0.00  0.00    -0.286 OA
ATOM     15  C   UNL d   1      50.366  34.263  52.226  0.00  0.00     0.000 A 
ENDROOT
BRANCH   2  16
ATOM     16  C   UNL d   1      53.578  32.816  54.429  0.00  0.00     0.085 C 
BRANCH  16  17
ATOM     17  N   UNL d   1      54.335  33.048  54.205  0.00  0.00    -0.304 N 
ATOM     18  C   UNL d   1      54.819  33.390  54.749  0.00  0.00     0.064 A 
ATOM     19  C   UNL d   1      55.576  33.621  54.524  0.00  0.00     0.018 A 
ATOM     20  C   UNL d   1      55.831  33.500  53.747  0.00  0.00     0.003 A 
ATOM     21  C   UNL d   1      55.339  33.157  53.211  0.00  0.00     0.019 A 
ATOM     22  C   UNL d   1      54.581  32.926  53.436  0.00  0.00     0.080 A 
BRANCH  18  23
ATOM     23  C   UNL d   1      54.569  33.512  55.521  0.00  0.00     0.018 C 
ATOM     24  C   UNL d   1      55.087  33.783  56.095  0.00  0.00     0.002 C 
ENDBRANCH  18  23
ENDBRANCH  16  17
ENDBRANCH   2  16
TORSDOF 3
ENDMDL
MODEL 4
REMARK VINA RESULT:      -7.5      1.733      3.629
REMARK  3 active torsions:
REMARK  status: ('A' for Active; 'I' for Inactive)
REMARK    1  A    between atoms: C_8  and  C_2 
REMARK    2  A    between atoms: N_9  and  C_8 
REMARK    3  A    between atoms: C_20  and  C_13 
ROOT
ATOM      1  C   UNL d   1      53.071  32.875  53.414  0.00  0.00     0.108 A 
ATOM      2  C   UNL d   1      53.637  32.276  53.352  0.00  0.00     0.079 A 
ATOM      3  O   UNL d   1      52.294  32.735  53.228  0.00  0.00    -0.273 OA
ATOM      4  C   UNL d   1      51.724  33.336  53.290  0.00  0.00     0.300 A 
ATOM      5  C   UNL d   1      52.759  34.234  53.739  0.00  0.00     0.007 A 
ATOM      6  C   UNL d   1      53.304  33.624  53.670  0.00  0.00     0.023 A 
ATOM      7  C   UNL d   1      51.959  34.092  53.548  0.00  0.00     0.064 A 
ATOM      8  C   UNL d   1      54.094  33.777  53.862  0.00  0.00     0.005 A 
ATOM      9  C   UNL d   1      54.422  32.413  53.540  0.00  0.00     0.199 A 
ATOM     10  O   UNL d   1      50.931  33.201  53.102  0.00  0.00    -0.259 OA
ATOM     11  C   UNL d   1      54.654  33.162  53.795  0.00  0.00     0.042 A 
ATOM     12  C   UNL d   1      52.832  35.016  53.973  0.00  0.00     0.000 A 
ATOM     13  C   UNL d   1      51.545  34.800  53.669  0.00  0.00     0.005 A 
ATOM     14  O   UNL d   1      54.984  31.815  53.477  0.00  0.00    -0.286 OA
ATOM     15  C   UNL d   1      52.074  35.372  53.930  0.00  0.00     0.000 A 
ENDROOT
BRANCH   2  16
ATOM     16  C   UNL d   1      53.393  31.522  53.094  0.00  0.00     0.085 C 
BRANCH  16  17
ATOM     17  N   UNL d   1      53.321  30.898  53.626  0.00  0.00    -0.304 N 
ATOM     18  C   UNL d   1      53.114  30.170  53.352  0.00  0.00     0.064 A 
ATOM     19  C   UNL d   1      53.042  29.546  53.884  0.00  0.00     0.018 A 
ATOM     20  C   UNL d   1      53.182  29.672  54.690  0.00  0.00     0.003 A 
ATOM     21  C   UNL d   1      53.388  30.404  54.952  0.00  0.00     0.019 A 
ATOM     22  C   UNL d   1      53.460  31.028  54.419  0.00  0.00     0.080 A 
BRANCH  18  23
ATOM     23  C   UNL d   1      52.975  30.042  52.554  0.00  0.00     0.018 C 
ATOM     24  C   UNL d   1      52.655  29.335  52.288  0.00  0.00     0.002 C 
ENDBRANCH  18  23
ENDBRANCH  16  17
ENDBRANCH   2  16
TORSDOF 3
ENDMDL
MODEL 5
REMARK VINA RESULT:      -7.0      1.433      3.147
REMARK  3 active torsions:
REMARK  status: ('A' for Active; 'I' for Inactive)
REMARK    1  A    between atoms: C_8  and  C_2 
REMARK    2  A    between atoms: N_9  and  C_8 
REMARK    3  A    between atoms: C_20  and  C_13 
ROOT
ATOM      1  C   UNL d   1      53.172  33.116  53.708  0.00  0.00     0.108 A 
ATOM      2  C   UNL d   1      52.903  32.625  53.100  0.00  0.00     0.079 A 
ATOM      3  O   UNL d   1      53.763  32.873  54.209  0.00  0.00    -0.273 OA
ATOM      4  C   UNL d   1      54.035  33.365  54.819  0.00  0.00     0.300 A 
ATOM      5  C   UNL d   1      53.086  34.366  54.399  0.00  0.00     0.007 A 
ATOM      6  C   UNL d   1      52.834  33.863  53.803  0.00  0.00     0.023 A 
ATOM      7  C   UNL d   1      53.693  34.119  54.916  0.00  0.00     0.064 A 
ATOM      8  C   UNL d   1      52.232  34.119  53.298  0.00  0.00     0.005 A 
ATOM      9  C   UNL d   1      52.307  32.866  52.593  0.00  0.00     0.199 A 
ATOM     10  O   UNL d   1      54.636  33.126  55.334  0.00  0.00    -0.259 OA
ATOM     11  C   UNL d   1      51.969  33.613  52.688  0.00  0.00     0.042 A 
ATOM     12  C   UNL d   1      52.855  35.122  54.619  0.00  0.00     0.000 A 
ATOM     13  C   UNL d   1      53.830  34.734  55.453  0.00  0.00     0.005 A 
ATOM     14  O   UNL d   1      52.040  32.376  51.989  0.00  0.00    -0.286 OA
ATOM     15  C   UNL d   1      53.319  35.354  55.278  0.00  0.00     0.000 A 
ENDROOT
BRANCH   2  16
ATOM     16  C   UNL d   1      53.250  31.873  53.011  0.00  0.00     0.085 C 
BRANCH  16  17
ATOM     17  N   UNL d   1      52.843  31.193  53.233  0.00  0.00    -0.304 N 
ATOM     18  C   UNL d   1      53.242  30.497  53.291  0.00  0.00     0.064 A 
ATOM     19  C   UNL d   1      52.835  29.817  53.513  0.00  0.00     0.018 A 
ATOM     20  C   UNL d   1      52.024  29.855  53.674  0.00  0.00     0.003 A 
ATOM     21  C   UNL d   1      51.635  30.556  53.613  0.00  0.00     0.019 A 
ATOM     22  C   UNL d   1      52.043  31.237  53.391  0.00  0.00     0.080 A 
BRANCH  18  23
ATOM     23  C   UNL d   1      54.046  30.456  53.132  0.00  0.00     0.018 C 
ATOM     24  C   UNL d   1      54.469  29.766  53.267  0.00  0.00     0.002 C 
ENDBRANCH  18  23
ENDBRANCH  16  17
ENDBRANCH   2  16
TORSDOF 3
ENDMDL
MODEL 6
REMARK VINA RESULT:      -6.7      2.253      3.716
REMARK  3 active torsions:
REMARK  status: ('A' for Active; 'I' for Inactive)
REMARK    1  A    between atoms: C_8  and  C_2 
REMARK    2  A    between atoms: N_9  and  C_8 
REMARK    3  A    between atoms: C_20  and  C_13 
ROOT
ATOM      1  C   UNL d   1      53.182  31.048  54.047  0.00  0.00     0.108 A 
ATOM      2  C   UNL d   1      53.097  31.762  53.639  0.00  0.00     0.079 A 
ATOM      3  O   UNL d   1      53.308  31.039  54.849  0.00  0.00    -0.273 OA
ATOM      4  C   UNL d   1      53.394  30.324  55.260  0.00  0.00     0.300 A 
ATOM      5  C   UNL d   1      53.219  29.618  54.016  0.00  0.00     0.007 A 
ATOM      6  C   UNL d   1      53.137  30.338  53.630  0.00  0.00     0.023 A 
ATOM      7  C   UNL d   1      53.349  29.606  54.840  0.00  0.00     0.064 A 
ATOM      8  C   UNL d   1      53.009  30.336  52.813  0.00  0.00     0.005 A 
ATOM      9  C   UNL d   1      52.969  31.775  52.831  0.00  0.00     0.199 A 
ATOM     10  O   UNL d   1      53.523  30.306  56.077  0.00  0.00    -0.259 OA
ATOM     11  C   UNL d   1      52.925  31.064  52.414  0.00  0.00     0.042 A 
ATOM     12  C   UNL d   1      53.200  28.843  53.748  0.00  0.00     0.000 A 
ATOM     13  C   UNL d   1      53.409  28.813  55.071  0.00  0.00     0.005 A 
ATOM     14  O   UNL d   1      52.884  32.487  52.426  0.00  0.00    -0.286 OA
ATOM     15  C   UNL d   1      53.319  28.338  54.407  0.00  0.00     0.000 A 
ENDROOT
BRANCH   2  16
ATOM     16  C   UNL d   1      53.143  32.475  54.067  0.00  0.00     0.085 C 
BRANCH  16  17
ATOM     17  N   UNL d   1      53.848  32.898  54.105  0.00  0.00    -0.304 N 
ATOM     18  C   UNL d   1      53.876  33.578  54.534  0.00  0.00     0.064 A 
ATOM     19  C   UNL d   1      54.581  34.001  54.571  0.00  0.00     0.018 A 
ATOM     20  C   UNL d   1      55.250  33.725  54.171  0.00  0.00     0.003 A 
ATOM     21  C   UNL d   1      55.211  33.044  53.746  0.00  0.00     0.019 A 
ATOM     22  C   UNL d   1      54.505  32.620  53.708  0.00  0.00     0.080 A 
BRANCH  18  23
ATOM     23  C   UNL d   1      53.214  33.855  54.932  0.00  0.00     0.018 C 
ATOM     24  C   UNL d   1      53.165  34.635  55.180  0.00  0.00     0.002 C 
ENDBRANCH  18  23
ENDBRANCH  16  17
ENDBRANCH   2  16
TORSDOF 3
ENDMDL
