MODEL 1
REMARK VINA RESULT:      -9.3      0.000      0.000
REMARK  1 active torsions:
REMARK  status: ('A' for Active; 'I' for Inactive)
REMARK    1  A    between atoms: C_7  and  C_2 
ROOT
ATOM      1  C   UNL d   1      53.259  31.939  53.639  0.00  0.00     0.070 A 
ATOM      2  C   UNL d   1      53.105  31.281  53.204  0.00  0.00     0.170 A 
ATOM      3  C   UNL d   1      52.915  32.600  53.276  0.00  0.00     0.108 A 
ATOM      4  N   UNL d   1      52.646  31.515  52.535  0.00  0.00    -0.142 NA
ATOM      5  N   UNL d   1      52.537  32.334  52.593  0.00  0.00    -0.148 NA
ATOM      6  C   UNL d   1      53.001  33.346  53.626  0.00  0.00     0.042 A 
ATOM      7  C   UNL d   1      53.682  32.023  54.342  0.00  0.00     0.126 A 
ATOM      8  O   UNL d   1      53.767  32.769  54.692  0.00  0.00    -0.305 OA
ATOM      9  C   UNL d   1      53.424  33.430  54.329  0.00  0.00     0.102 A 
ATOM     10  C   UNL d   1      52.657  34.007  53.263  0.00  0.00     0.004 A 
ATOM     11  C   UNL d   1      53.509  34.176  54.679  0.00  0.00     0.025 A 
ATOM     12  C   UNL d   1      52.745  34.742  53.613  0.00  0.00     0.000 A 
ATOM     13  C   UNL d   1      53.168  34.826  54.317  0.00  0.00     0.002 A 
ENDROOT
BRANCH   2  14
ATOM     14  C   UNL d   1      53.364  30.536  53.408  0.00  0.00     0.231 C 
ATOM     15  O   UNL d   1      54.129  30.307  53.236  0.00  0.00    -0.643 OA
ATOM     16  O   UNL d   1      52.853  30.010  53.789  0.00  0.00    -0.643 OA
ENDBRANCH   2  14
TORSDOF 1
ENDMDL
MODEL 2
REMARK VINA RESULT:      -9.3      1.963      2.918
REMARK  1 active torsions:
REMARK  status: ('A' for Active; 'I' for Inactive)
REMARK    1  A    between atoms: C_7  and  C_2 
ROOT
ATOM      1  C   UNL d   1      52.276  33.843  53.395  0.00  0.00     0.070 A 
ATOM      2  C   UNL d   1      51.767  34.386  53.090  0.00  0.00     0.170 A 
ATOM      3  C   UNL d   1      52.807  34.216  53.909  0.00  0.00     0.108 A 
ATOM      4  N   UNL d   1      51.970  35.139  53.413  0.00  0.00    -0.142 NA
ATOM      5  N   UNL d   1      52.616  35.018  53.918  0.00  0.00    -0.148 NA
ATOM      6  C   UNL d   1      53.387  33.765  54.292  0.00  0.00     0.042 A 
ATOM      7  C   UNL d   1      52.323  33.029  53.265  0.00  0.00     0.126 A 
ATOM      8  O   UNL d   1      52.903  32.578  53.648  0.00  0.00    -0.305 OA
ATOM      9  C   UNL d   1      53.434  32.951  54.162  0.00  0.00     0.102 A 
ATOM     10  C   UNL d   1      53.918  34.138  54.806  0.00  0.00     0.004 A 
ATOM     11  C   UNL d   1      54.014  32.500  54.545  0.00  0.00     0.025 A 
ATOM     12  C   UNL d   1      54.489  33.687  55.182  0.00  0.00     0.000 A 
ATOM     13  C   UNL d   1      54.537  32.874  55.052  0.00  0.00     0.002 A 
ENDROOT
BRANCH   2  14
ATOM     14  C   UNL d   1      51.174  34.201  52.564  0.00  0.00     0.231 C 
ATOM     15  O   UNL d   1      51.322  34.203  51.760  0.00  0.00    -0.643 OA
ATOM     16  O   UNL d   1      50.419  34.010  52.841  0.00  0.00    -0.643 OA
ENDBRANCH   2  14
TORSDOF 1
ENDMDL
MODEL 3
REMARK VINA RESULT:      -9.2      1.676      3.359
REMARK  1 active torsions:
REMARK  status: ('A' for Active; 'I' for Inactive)
REMARK    1  A    between atoms: C_7  and  C_2 
ROOT
ATOM      1  C   UNL d   1      53.343  33.522  54.229  0.00  0.00     0.070 A 
ATOM      2  C   UNL d   1      53.722  34.047  54.706  0.00  0.00     0.170 A 
ATOM      3  C   UNL d   1      53.733  32.791  54.253  0.00  0.00     0.108 A 
ATOM      4  N   UNL d   1      54.380  33.650  55.055  0.00  0.00    -0.142 NA
ATOM      5  N   UNL d   1      54.374  32.874  54.765  0.00  0.00    -0.148 NA
ATOM      6  C   UNL d   1      53.441  32.161  53.803  0.00  0.00     0.042 A 
ATOM      7  C   UNL d   1      52.671  33.620  53.760  0.00  0.00     0.126 A 
ATOM      8  O   UNL d   1      52.380  32.989  53.310  0.00  0.00    -0.305 OA
ATOM      9  C   UNL d   1      52.770  32.259  53.334  0.00  0.00     0.102 A 
ATOM     10  C   UNL d   1      53.831  31.430  53.827  0.00  0.00     0.004 A 
ATOM     11  C   UNL d   1      52.478  31.628  52.883  0.00  0.00     0.025 A 
ATOM     12  C   UNL d   1      53.539  30.810  53.379  0.00  0.00     0.000 A 
ATOM     13  C   UNL d   1      52.867  30.908  52.911  0.00  0.00     0.002 A 
ENDROOT
BRANCH   2  14
ATOM     14  C   UNL d   1      53.480  34.818  54.808  0.00  0.00     0.231 C 
ATOM     15  O   UNL d   1      53.038  35.027  55.463  0.00  0.00    -0.643 OA
ATOM     16  O   UNL d   1      53.681  35.392  54.249  0.00  0.00    -0.643 OA
ENDBRANCH   2  14
TORSDOF 1
ENDMDL
MODEL 4
REMARK VINA RESULT:      -9.2      1.974      2.637
REMARK  1 active torsions:
REMARK  status: ('A' for Active; 'I' for Inactive)
REMARK    1  A    between atoms: C_7  and  C_2 
ROOT
ATOM      1  C   UNL d   1      52.376  33.782  53.318  0.00  0.00     0.070 A 
ATOM      2  C   UNL d   1      51.859  33.520  52.760  0.00  0.00     0.170 A 
ATOM      3  C   UNL d   1      52.892  33.170  53.530  0.00  0.00     0.108 A 
ATOM      4  N   UNL d   1      52.041  32.712  52.600  0.00  0.00    -0.142 NA
ATOM      5  N   UNL d   1      52.682  32.509  53.084  0.00  0.00    -0.148 NA
ATOM      6  C   UNL d   1      53.476  33.309  54.100  0.00  0.00     0.042 A 
ATOM      7  C   UNL d   1      52.444  34.524  53.672  0.00  0.00     0.126 A 
ATOM      8  O   UNL d   1      53.028  34.664  54.242  0.00  0.00    -0.305 OA
ATOM      9  C   UNL d   1      53.544  34.052  54.453  0.00  0.00     0.102 A 
ATOM     10  C   UNL d   1      53.992  32.697  54.312  0.00  0.00     0.004 A 
ATOM     11  C   UNL d   1      54.128  34.192  55.023  0.00  0.00     0.025 A 
ATOM     12  C   UNL d   1      54.568  32.840  54.876  0.00  0.00     0.000 A 
ATOM     13  C   UNL d   1      54.636  33.583  55.229  0.00  0.00     0.002 A 
ENDROOT
BRANCH   2  14
ATOM     14  C   UNL d   1      51.277  33.986  52.432  0.00  0.00     0.231 C 
ATOM     15  O   UNL d   1      51.411  34.373  51.725  0.00  0.00    -0.643 OA
ATOM     16  O   UNL d   1      50.550  34.070  52.814  0.00  0.00    -0.643 OA
ENDBRANCH   2  14
TORSDOF 1
ENDMDL
MODEL 5
REMARK VINA RESULT:      -9.0      1.959      2.583
REMARK  1 active torsions:
REMARK  status: ('A' for Active; 'I' for Inactive)
REMARK    1  A    between atoms: C_7  and  C_2 
ROOT
ATOM      1  C   UNL d   1      53.714  33.694  54.323  0.00  0.00     0.070 A 
ATOM      2  C   UNL d   1      54.354  33.272  54.566  0.00  0.00     0.170 A 
ATOM      3  C   UNL d   1      53.337  33.296  53.702  0.00  0.00     0.108 A 
ATOM      4  N   UNL d   1      54.399  32.576  54.092  0.00  0.00    -0.142 NA
ATOM      5  N   UNL d   1      53.763  32.604  53.562  0.00  0.00    -0.148 NA
ATOM      6  C   UNL d   1      52.659  33.627  53.359  0.00  0.00     0.042 A 
ATOM      7  C   UNL d   1      53.418  34.414  54.596  0.00  0.00     0.126 A 
ATOM      8  O   UNL d   1      52.741  34.745  54.254  0.00  0.00    -0.305 OA
ATOM      9  C   UNL d   1      52.363  34.347  53.633  0.00  0.00     0.102 A 
ATOM     10  C   UNL d   1      52.282  33.228  52.739  0.00  0.00     0.004 A 
ATOM     11  C   UNL d   1      51.686  34.677  53.290  0.00  0.00     0.025 A 
ATOM     12  C   UNL d   1      51.613  33.560  52.404  0.00  0.00     0.000 A 
ATOM     13  C   UNL d   1      51.317  34.280  52.678  0.00  0.00     0.002 A 
ENDROOT
BRANCH   2  14
ATOM     14  C   UNL d   1      54.847  33.511  55.169  0.00  0.00     0.231 C 
ATOM     15  O   UNL d   1      54.723  33.244  55.931  0.00  0.00    -0.643 OA
ATOM     16  O   UNL d   1      55.475  34.024  55.011  0.00  0.00    -0.643 OA
ENDBRANCH   2  14
TORSDOF 1
ENDMDL
MODEL 6
REMARK VINA RESULT:      -6.7      1.782      2.564
REMARK  1 active torsions:
REMARK  status: ('A' for Active; 'I' for Inactive)
REMARK    1  A    between atoms: C_7  and  C_2 
ROOT
ATOM      1  C   UNL d   1      52.890  33.624  53.962  0.00  0.00     0.070 A 
ATOM      2  C   UNL d   1      53.640  33.388  54.129  0.00  0.00     0.170 A 
ATOM      3  C   UNL d   1      52.773  33.622  53.142  0.00  0.00     0.108 A 
ATOM      4  N   UNL d   1      54.028  33.225  53.398  0.00  0.00    -0.142 NA
ATOM      5  N   UNL d   1      53.479  33.375  52.795  0.00  0.00    -0.148 NA
ATOM      6  C   UNL d   1      52.037  33.846  52.835  0.00  0.00     0.042 A 
ATOM      7  C   UNL d   1      52.279  33.848  54.469  0.00  0.00     0.126 A 
ATOM      8  O   UNL d   1      51.543  34.072  54.162  0.00  0.00    -0.305 OA
ATOM      9  C   UNL d   1      51.426  34.070  53.343  0.00  0.00     0.102 A 
ATOM     10  C   UNL d   1      51.920  33.844  52.016  0.00  0.00     0.004 A 
ATOM     11  C   UNL d   1      50.690  34.295  53.036  0.00  0.00     0.025 A 
ATOM     12  C   UNL d   1      51.191  34.067  51.718  0.00  0.00     0.000 A 
ATOM     13  C   UNL d   1      50.580  34.291  52.225  0.00  0.00     0.002 A 
ENDROOT
BRANCH   2  14
ATOM     14  C   UNL d   1      53.935  33.329  54.886  0.00  0.00     0.231 C 
ATOM     15  O   UNL d   1      54.320  33.963  55.227  0.00  0.00    -0.643 OA
ATOM     16  O   UNL d   1      53.845  32.626  55.311  0.00  0.00    -0.643 OA
ENDBRANCH   2  14
TORSDOF 1
ENDMDL
MODEL 7
REMARK VINA RESULT:      -6.6      1.441      3.339
REMARK  1 active torsions:
REMARK  status: ('A' for Active; 'I' for Inactive)
REMARK    1  A    between atoms: C_7  and  C_2 
ROOT
ATOM      1  C   UNL d   1      53.243  32.823  53.309  0.00  0.00     0.070 A 
ATOM      2  C   UNL d   1      53.337  33.528  53.684  0.00  0.00     0.170 A 
ATOM      3  C   UNL d   1      53.333  32.204  53.853  0.00  0.00     0.108 A 
ATOM      4  N   UNL d   1      53.493  33.369  54.497  0.00  0.00    -0.142 NA
ATOM      5  N   UNL d   1      53.488  32.546  54.587  0.00  0.00    -0.148 NA
ATOM      6  C   UNL d   1      53.259  31.421  53.593  0.00  0.00     0.042 A 
ATOM      7  C   UNL d   1      53.082  32.660  52.517  0.00  0.00     0.126 A 
ATOM      8  O   UNL d   1      53.008  31.877  52.257  0.00  0.00    -0.305 OA
ATOM      9  C   UNL d   1      53.098  31.259  52.801  0.00  0.00     0.102 A 
ATOM     10  C   UNL d   1      53.349  30.803  54.137  0.00  0.00     0.004 A 
ATOM     11  C   UNL d   1      53.024  30.476  52.541  0.00  0.00     0.025 A 
ATOM     12  C   UNL d   1      53.275  30.030  53.875  0.00  0.00     0.000 A 
ATOM     13  C   UNL d   1      53.114  29.868  53.082  0.00  0.00     0.002 A 
ENDROOT
BRANCH   2  14
ATOM     14  C   UNL d   1      53.283  34.248  53.307  0.00  0.00     0.231 C 
ATOM     15  O   UNL d   1      52.569  34.495  52.995  0.00  0.00    -0.643 OA
ATOM     16  O   UNL d   1      53.950  34.730  53.238  0.00  0.00    -0.643 OA
ENDBRANCH   2  14
TORSDOF 1
ENDMDL
