MODEL 1
REMARK VINA RESULT:      65.1      0.000      0.000
REMARK  3 active torsions:
REMARK  status: ('A' for Active; 'I' for Inactive)
REMARK    1  A    between atoms: C_2  and  C_1 
REMARK    2  A    between atoms: C_13  and  N_4 
REMARK    3  A    between atoms: C_12  and  C_15 
ROOT
ATOM      1  C   UNL d   1     -50.634  25.924  33.606  0.00  0.00     0.106 A 
ATOM      2  C   UNL d   1     -49.322  26.171  33.512  0.00  0.00     0.206 A 
ATOM      3  N   UNL d   1     -49.665  26.793  33.931  0.00  0.00    -0.281 N 
ATOM      4  N   UNL d   1     -49.915  25.630  33.307  0.00  0.00    -0.217 NA
ATOM      5  C   UNL d   1     -50.475  26.642  33.990  0.00  0.00     0.102 A 
ATOM      6  S   UNL d   1     -48.523  26.097  33.325  0.00  0.00    -0.038 SA
ENDROOT
BRANCH   1   7
ATOM      7  C   UNL d   1     -51.369  25.568  33.534  0.00  0.00     0.083 A 
ATOM      8  C   UNL d   1     -52.041  26.032  33.386  0.00  0.00     0.302 A 
ATOM      9  O   UNL d   1     -52.786  25.666  33.312  0.00  0.00    -0.273 OA
ATOM     10  O   UNL d   1     -51.975  26.850  33.311  0.00  0.00    -0.259 OA
ATOM     11  C   UNL d   1     -52.859  24.848  33.386  0.00  0.00     0.103 A 
ATOM     12  C   UNL d   1     -52.187  24.384  33.534  0.00  0.00     0.023 A 
ATOM     13  C   UNL d   1     -53.596  24.493  33.313  0.00  0.00     0.025 A 
ATOM     14  C   UNL d   1     -51.436  24.744  33.609  0.00  0.00     0.009 A 
ATOM     15  C   UNL d   1     -52.257  23.568  33.608  0.00  0.00     0.002 A 
ATOM     16  C   UNL d   1     -52.995  23.213  33.534  0.00  0.00     0.000 A 
ATOM     17  C   UNL d   1     -53.667  23.677  33.386  0.00  0.00     0.002 A 
ENDBRANCH   1   7
BRANCH   3  18
ATOM     18  C   UNL d   1     -49.271  27.442  34.233  0.00  0.00     0.066 A 
ATOM     19  C   UNL d   1     -49.300  28.171  33.833  0.00  0.00     0.018 A 
ATOM     20  C   UNL d   1     -48.904  28.826  34.134  0.00  0.00     0.008 A 
ATOM     21  C   UNL d   1     -48.472  28.761  34.841  0.00  0.00     0.065 A 
ATOM     22  C   UNL d   1     -48.444  28.040  35.236  0.00  0.00     0.008 A 
ATOM     23  C   UNL d   1     -48.842  27.381  34.934  0.00  0.00     0.018 A 
BRANCH  21  24
ATOM     24  C   UNL d   1     -48.075  29.414  35.145  0.00  0.00     0.211 C 
ATOM     25  O   UNL d   1     -48.214  29.654  35.926  0.00  0.00    -0.644 OA
ATOM     26  O   UNL d   1     -47.541  29.831  34.677  0.00  0.00    -0.644 OA
ENDBRANCH  21  24
ENDBRANCH   3  18
TORSDOF 3
ENDMDL
