MODEL 1
REMARK VINA RESULT:      78.2      0.000      0.000
REMARK  6 active torsions:
REMARK  status: ('A' for Active; 'I' for Inactive)
REMARK    1  A    between atoms: O_4  and  C_1 
REMARK    2  A    between atoms: C_9  and  C_2 
REMARK    3  A    between atoms: C_5  and  O_4 
REMARK    4  A    between atoms: C_11  and  C_5 
REMARK    5  A    between atoms: N_10  and  C_9 
REMARK    6  A    between atoms: O_19  and  C_17 
ROOT
ATOM      1  C   UNL d   1     -56.118 -98.870 -43.849  0.00  0.00     0.122 A 
ATOM      2  C   UNL d   1     -56.928 -98.803 -43.709  0.00  0.00     0.043 A 
ATOM      3  C   UNL d   1     -55.835 -98.898 -44.623  0.00  0.00     0.105 A 
ATOM      4  C   UNL d   1     -56.361 -98.859 -45.256  0.00  0.00     0.030 A 
ATOM      5  C   UNL d   1     -57.165 -98.793 -45.109  0.00  0.00     0.059 A 
ATOM      6  C   UNL d   1     -57.454 -98.764 -44.342  0.00  0.00     0.015 A 
ATOM      7  N   UNL d   1     -55.031 -98.964 -44.758  0.00  0.00    -0.242 NA
ATOM      8 CL   UNL d   1     -57.679 -98.756 -45.766  0.00  0.00    -0.082 Cl
ATOM      9  C   UNL d   1     -56.078 -98.888 -46.018  0.00  0.00     0.004 A 
ATOM     10  C   UNL d   1     -54.748 -98.993 -45.532  0.00  0.00     0.099 A 
ATOM     11  C   UNL d   1     -55.274 -98.954 -46.165  0.00  0.00     0.021 A 
ENDROOT
BRANCH   1  12
ATOM     12  O   UNL d   1     -55.632 -98.905 -43.282  0.00  0.00    -0.271 OA
BRANCH  12  13
ATOM     13  C   UNL d   1     -55.313 -99.516 -42.608  0.00  0.00     0.300 C 
ATOM     14  O   UNL d   1     -55.166 -99.094 -41.709  0.00  0.00    -0.259 OA
BRANCH  13  15
ATOM     15  C   UNL d   1     -55.180-100.311 -42.778  0.00  0.00     0.066 A 
ATOM     16  C   UNL d   1     -55.379-100.893 -42.218  0.00  0.00     0.029 A 
ATOM     17  C   UNL d   1     -55.244-101.697 -42.393  0.00  0.00     0.094 A 
ATOM     18  C   UNL d   1     -54.909-101.920 -43.126  0.00  0.00     0.024 A 
ATOM     19  C   UNL d   1     -54.712-101.336 -43.681  0.00  0.00     0.002 A 
ATOM     20  C   UNL d   1     -54.848-100.533 -43.505  0.00  0.00     0.005 A 
BRANCH  17  21
ATOM     21  O   UNL d   1     -55.473-102.213 -41.775  0.00  0.00    -0.328 OA
ATOM     22  C   UNL d   1     -54.713-102.470 -41.510  0.00  0.00     0.181 C 
ENDBRANCH  17  21
ENDBRANCH  13  15
ENDBRANCH  12  13
ENDBRANCH   1  12
BRANCH   2  23
ATOM     23  C   UNL d   1     -57.417 -98.758 -42.943  0.00  0.00     0.082 C 
BRANCH  23  24
ATOM     24  N   UNL d   1     -58.236 -98.786 -42.985  0.00  0.00    -0.299 N 
ATOM     25  C   UNL d   1     -58.683 -98.842 -42.308  0.00  0.00     0.107 A 
ATOM     26  C   UNL d   1     -59.501 -98.870 -42.347  0.00  0.00     0.142 A 
ATOM     27  O   UNL d   1     -59.873 -98.840 -43.088  0.00  0.00    -0.300 OA
ATOM     28  C   UNL d   1     -59.430 -98.784 -43.771  0.00  0.00     0.142 A 
ATOM     29  C   UNL d   1     -58.606 -98.756 -43.713  0.00  0.00     0.107 A 
ENDBRANCH  23  24
ENDBRANCH   2  23
TORSDOF 6
ENDMDL
