MODEL 1
REMARK VINA RESULT:      37.7      0.000      0.000
REMARK  1 active torsions:
REMARK  status: ('A' for Active; 'I' for Inactive)
REMARK    1  A    between atoms: C_7  and  C_1 
ROOT
ATOM      1  C   UNL d   1      13.926  13.081  -2.783  0.00  0.00     0.103 A 
ATOM      2  C   UNL d   1      13.504  12.593  -3.319  0.00  0.00     0.067 A 
ATOM      3  C   UNL d   1      13.299  13.728  -4.191  0.00  0.00     0.062 A 
ATOM      4  C   UNL d   1      13.194  12.922  -4.019  0.00  0.00     0.200 A 
ATOM      5  O   UNL d   1      14.032  13.889  -2.953  0.00  0.00    -0.307 OA
ATOM      6  C   UNL d   1      13.721  14.209  -3.651  0.00  0.00     0.103 A 
ATOM      7  C   UNL d   1      12.992  14.049  -4.881  0.00  0.00     0.005 A 
ATOM      8  O   UNL d   1      12.779  12.442  -4.546  0.00  0.00    -0.286 OA
ATOM      9  C   UNL d   1      13.826  15.014  -3.822  0.00  0.00     0.025 A 
ATOM     10  C   UNL d   1      13.098  14.849  -5.047  0.00  0.00     0.000 A 
ATOM     11  C   UNL d   1      13.513  15.329  -4.521  0.00  0.00     0.002 A 
ATOM     12  C   UNL d   1      12.789  15.167  -5.741  0.00  0.00     0.000 C 
ENDROOT
BRANCH   1  13
ATOM     13  C   UNL d   1      14.230  12.757  -2.096  0.00  0.00     0.023 A 
ATOM     14  C   UNL d   1      13.865  12.100  -1.746  0.00  0.00     0.002 A 
ATOM     15  C   UNL d   1      14.177  11.779  -1.054  0.00  0.00     0.000 A 
ATOM     16  C   UNL d   1      14.849  12.111  -0.711  0.00  0.00     0.000 A 
ATOM     17  C   UNL d   1      15.210  12.764  -1.060  0.00  0.00     0.000 A 
ATOM     18  C   UNL d   1      15.160  11.786  -0.014  0.00  0.00     0.000 C 
ATOM     19  C   UNL d   1      14.900  13.084  -1.751  0.00  0.00     0.002 A 
ENDBRANCH   1  13
TORSDOF 1
ENDMDL
MODEL 2
REMARK VINA RESULT:      39.1      1.721      2.612
REMARK  1 active torsions:
REMARK  status: ('A' for Active; 'I' for Inactive)
REMARK    1  A    between atoms: C_7  and  C_1 
ROOT
ATOM      1  C   UNL d   1      14.415  13.966  -1.974  0.00  0.00     0.103 A 
ATOM      2  C   UNL d   1      14.468  13.164  -1.738  0.00  0.00     0.067 A 
ATOM      3  C   UNL d   1      13.776  12.763  -2.942  0.00  0.00     0.062 A 
ATOM      4  C   UNL d   1      14.147  12.569  -2.225  0.00  0.00     0.200 A 
ATOM      5  O   UNL d   1      14.044  14.164  -2.693  0.00  0.00    -0.307 OA
ATOM      6  C   UNL d   1      13.727  13.567  -3.172  0.00  0.00     0.103 A 
ATOM      7  C   UNL d   1      13.461  12.175  -3.420  0.00  0.00     0.005 A 
ATOM      8  O   UNL d   1      14.199  11.779  -1.992  0.00  0.00    -0.286 OA
ATOM      9  C   UNL d   1      13.356  13.762  -3.889  0.00  0.00     0.025 A 
ATOM     10  C   UNL d   1      13.094  12.372  -4.131  0.00  0.00     0.000 A 
ATOM     11  C   UNL d   1      13.042  13.161  -4.364  0.00  0.00     0.002 A 
ATOM     12  C   UNL d   1      12.779  11.779  -4.608  0.00  0.00     0.000 C 
ENDROOT
BRANCH   1  13
ATOM     13  C   UNL d   1      14.730  14.551  -1.495  0.00  0.00     0.023 A 
ATOM     14  C   UNL d   1      14.725  15.342  -1.743  0.00  0.00     0.002 A 
ATOM     15  C   UNL d   1      15.043  15.925  -1.256  0.00  0.00     0.000 A 
ATOM     16  C   UNL d   1      15.366  15.722  -0.525  0.00  0.00     0.000 A 
ATOM     17  C   UNL d   1      15.371  14.935  -0.280  0.00  0.00     0.000 A 
ATOM     18  C   UNL d   1      15.686  16.312  -0.037  0.00  0.00     0.000 C 
ATOM     19  C   UNL d   1      15.052  14.353  -0.767  0.00  0.00     0.002 A 
ENDBRANCH   1  13
TORSDOF 1
ENDMDL
MODEL 3
REMARK VINA RESULT:      40.3      1.287      3.745
REMARK  1 active torsions:
REMARK  status: ('A' for Active; 'I' for Inactive)
REMARK    1  A    between atoms: C_7  and  C_1 
ROOT
ATOM      1  C   UNL d   1      14.016  13.430  -3.232  0.00  0.00     0.103 A 
ATOM      2  C   UNL d   1      14.020  14.267  -3.245  0.00  0.00     0.067 A 
ATOM      3  C   UNL d   1      14.640  14.284  -1.939  0.00  0.00     0.062 A 
ATOM      4  C   UNL d   1      14.333  14.688  -2.596  0.00  0.00     0.200 A 
ATOM      5  O   UNL d   1      14.324  13.022  -2.575  0.00  0.00    -0.307 OA
ATOM      6  C   UNL d   1      14.633  13.446  -1.933  0.00  0.00     0.103 A 
ATOM      7  C   UNL d   1      14.947  14.700  -1.301  0.00  0.00     0.005 A 
ATOM      8  O   UNL d   1      14.337  15.512  -2.608  0.00  0.00    -0.286 OA
ATOM      9  C   UNL d   1      14.940  13.042  -1.277  0.00  0.00     0.025 A 
ATOM     10  C   UNL d   1      15.251  14.295  -0.651  0.00  0.00     0.000 A 
ATOM     11  C   UNL d   1      15.248  13.471  -0.639  0.00  0.00     0.002 A 
ATOM     12  C   UNL d   1      15.559  14.716  -0.014  0.00  0.00     0.000 C 
ENDROOT
BRANCH   1  13
ATOM     13  C   UNL d   1      13.709  13.017  -3.870  0.00  0.00     0.023 A 
ATOM     14  C   UNL d   1      13.549  12.206  -3.805  0.00  0.00     0.002 A 
ATOM     15  C   UNL d   1      13.239  11.798  -4.450  0.00  0.00     0.000 A 
ATOM     16  C   UNL d   1      13.090  12.195  -5.158  0.00  0.00     0.000 A 
ATOM     17  C   UNL d   1      13.250  13.000  -5.220  0.00  0.00     0.000 A 
ATOM     18  C   UNL d   1      12.779  11.780  -5.805  0.00  0.00     0.000 C 
ATOM     19  C   UNL d   1      13.559  13.408  -4.576  0.00  0.00     0.002 A 
ENDBRANCH   1  13
TORSDOF 1
ENDMDL
