MODEL 1
REMARK VINA RESULT:      -3.9      0.000      0.000
REMARK  1 active torsions:
REMARK  status: ('A' for Active; 'I' for Inactive)
REMARK    1  A    between atoms: C_10  and  N_2 
ROOT
ATOM      1  C   UNL d   1      57.210   0.376  33.280  0.00  0.00     0.759 A 
ATOM      2  N   UNL d   1      56.712   0.205  32.619  0.00  0.00    -0.103 N 
ATOM      3  N   UNL d   1      56.872   0.533  34.013  0.00  0.00    -0.038 N 
ATOM      4  C   UNL d   1      55.898   0.198  32.722  0.00  0.00     0.280 A 
ATOM      5  N   UNL d   1      58.034   0.423  33.350  0.00  0.00     0.066 NA
ATOM      6  C   UNL d   1      55.555   0.354  33.453  0.00  0.00     0.075 A 
ATOM      7  N   UNL d   1      57.507   0.681  34.551  0.00  0.00    -0.025 NA
ATOM      8  N   UNL d   1      58.202   0.613  34.142  0.00  0.00    -0.007 NA
ATOM      9  C   UNL d   1      56.054   0.525  34.113  0.00  0.00     0.107 A 
ATOM     10  O   UNL d   1      55.403   0.028  32.064  0.00  0.00    -0.266 OA
ATOM     11  C   UNL d   1      54.742   0.347  33.555  0.00  0.00     0.006 A 
ATOM     12  C   UNL d   1      55.715   0.682  34.846  0.00  0.00     0.020 A 
ATOM     13  C   UNL d   1      54.398   0.503  34.286  0.00  0.00     0.000 A 
ATOM     14  C   UNL d   1      54.896   0.674  34.947  0.00  0.00     0.002 A 
ENDROOT
BRANCH   2  15
ATOM     15  C   UNL d   1      57.049   0.050  31.892  0.00  0.00     0.084 A 
ATOM     16  C   UNL d   1      57.072  -0.713  31.584  0.00  0.00     0.017 A 
ATOM     17  C   UNL d   1      56.781  -1.280  31.970  0.00  0.00     0.002 C 
ATOM     18  C   UNL d   1      57.410  -0.871  30.854  0.00  0.00     0.002 A 
ATOM     19  C   UNL d   1      57.742  -0.239  30.409  0.00  0.00     0.000 A 
ATOM     20  C   UNL d   1      57.729   0.540  30.702  0.00  0.00     0.002 A 
ATOM     21  C   UNL d   1      57.381   0.682  31.448  0.00  0.00     0.018 A 
ENDBRANCH   2  15
TORSDOF 1
ENDMDL
MODEL 2
REMARK VINA RESULT:      -3.3      3.640      5.573
REMARK  1 active torsions:
REMARK  status: ('A' for Active; 'I' for Inactive)
REMARK    1  A    between atoms: C_10  and  N_2 
ROOT
ATOM      1  C   UNL d   1      59.856  -0.886  29.321  0.00  0.00     0.759 A 
ATOM      2  N   UNL d   1      59.040  -1.070  29.440  0.00  0.00    -0.103 N 
ATOM      3  N   UNL d   1      60.367  -1.469  29.048  0.00  0.00    -0.038 N 
ATOM      4  C   UNL d   1      58.772  -1.829  29.281  0.00  0.00     0.280 A 
ATOM      5  N   UNL d   1      60.283  -0.184  29.430  0.00  0.00     0.066 NA
ATOM      6  C   UNL d   1      59.280  -2.415  29.008  0.00  0.00     0.075 A 
ATOM      7  N   UNL d   1      61.133  -1.116  28.987  0.00  0.00    -0.025 NA
ATOM      8  N   UNL d   1      61.072  -0.343  29.219  0.00  0.00    -0.007 NA
ATOM      9  C   UNL d   1      60.096  -2.231  28.889  0.00  0.00     0.107 A 
ATOM     10  O   UNL d   1      57.960  -2.012  29.400  0.00  0.00    -0.266 OA
ATOM     11  C   UNL d   1      59.013  -3.174  28.850  0.00  0.00     0.006 A 
ATOM     12  C   UNL d   1      60.607  -2.814  28.616  0.00  0.00     0.020 A 
ATOM     13  C   UNL d   1      59.520  -3.761  28.576  0.00  0.00     0.000 A 
ATOM     14  C   UNL d   1      60.336  -3.577  28.457  0.00  0.00     0.002 A 
ENDROOT
BRANCH   2  15
ATOM     15  C   UNL d   1      58.533  -0.490  29.711  0.00  0.00     0.084 A 
ATOM     16  C   UNL d   1      58.175   0.042  29.195  0.00  0.00     0.017 A 
ATOM     17  C   UNL d   1      58.310  -0.000  28.463  0.00  0.00     0.002 C 
ATOM     18  C   UNL d   1      57.666   0.625  29.465  0.00  0.00     0.002 A 
ATOM     19  C   UNL d   1      57.506   0.682  30.289  0.00  0.00     0.000 A 
ATOM     20  C   UNL d   1      57.857   0.155  30.828  0.00  0.00     0.002 A 
ATOM     21  C   UNL d   1      58.373  -0.433  30.535  0.00  0.00     0.018 A 
ENDBRANCH   2  15
TORSDOF 1
ENDMDL
MODEL 3
REMARK VINA RESULT:      -3.0      2.560      4.685
REMARK  1 active torsions:
REMARK  status: ('A' for Active; 'I' for Inactive)
REMARK    1  A    between atoms: C_10  and  N_2 
ROOT
ATOM      1  C   UNL d   1      58.060   0.345  29.752  0.00  0.00     0.759 A 
ATOM      2  N   UNL d   1      58.257   0.197  30.560  0.00  0.00    -0.103 N 
ATOM      3  N   UNL d   1      58.659   0.500  29.211  0.00  0.00    -0.038 N 
ATOM      4  C   UNL d   1      59.043   0.211  30.790  0.00  0.00     0.280 A 
ATOM      5  N   UNL d   1      57.331   0.369  29.358  0.00  0.00     0.066 NA
ATOM      6  C   UNL d   1      59.646   0.365  30.252  0.00  0.00     0.075 A 
ATOM      7  N   UNL d   1      58.288   0.623  28.460  0.00  0.00    -0.025 NA
ATOM      8  N   UNL d   1      57.489   0.542  28.560  0.00  0.00    -0.007 NA
ATOM      9  C   UNL d   1      59.449   0.513  29.444  0.00  0.00     0.107 A 
ATOM     10  O   UNL d   1      59.239   0.064  31.595  0.00  0.00    -0.266 OA
ATOM     11  C   UNL d   1      60.433   0.379  30.483  0.00  0.00     0.006 A 
ATOM     12  C   UNL d   1      60.049   0.668  28.903  0.00  0.00     0.020 A 
ATOM     13  C   UNL d   1      61.037   0.533  29.945  0.00  0.00     0.000 A 
ATOM     14  C   UNL d   1      60.840   0.681  29.136  0.00  0.00     0.002 A 
ENDROOT
BRANCH   2  15
ATOM     15  C   UNL d   1      57.661   0.044  31.096  0.00  0.00     0.084 A 
ATOM     16  C   UNL d   1      57.395  -0.723  31.236  0.00  0.00     0.017 A 
ATOM     17  C   UNL d   1      57.701  -1.295  30.869  0.00  0.00     0.002 C 
ATOM     18  C   UNL d   1      56.797  -0.879  31.774  0.00  0.00     0.002 A 
ATOM     19  C   UNL d   1      56.445  -0.241  32.194  0.00  0.00     0.000 A 
ATOM     20  C   UNL d   1      56.697   0.542  32.068  0.00  0.00     0.002 A 
ATOM     21  C   UNL d   1      57.308   0.682  31.516  0.00  0.00     0.018 A 
ENDBRANCH   2  15
TORSDOF 1
ENDMDL
MODEL 4
REMARK VINA RESULT:      -2.5      2.915      4.269
REMARK  1 active torsions:
REMARK  status: ('A' for Active; 'I' for Inactive)
REMARK    1  A    between atoms: C_10  and  N_2 
ROOT
ATOM      1  C   UNL d   1      58.634  -0.642  29.244  0.00  0.00     0.759 A 
ATOM      2  N   UNL d   1      58.528  -1.388  29.625  0.00  0.00    -0.103 N 
ATOM      3  N   UNL d   1      58.306   0.034  29.578  0.00  0.00    -0.038 N 
ATOM      4  C   UNL d   1      58.099  -1.425  30.323  0.00  0.00     0.280 A 
ATOM      5  N   UNL d   1      59.031  -0.431  28.548  0.00  0.00     0.066 NA
ATOM      6  C   UNL d   1      57.770  -0.752  30.662  0.00  0.00     0.075 A 
ATOM      7  N   UNL d   1      58.507   0.682  29.073  0.00  0.00    -0.025 NA
ATOM      8  N   UNL d   1      58.943   0.391  28.456  0.00  0.00    -0.007 NA
ATOM      9  C   UNL d   1      57.876  -0.005  30.280  0.00  0.00     0.107 A 
ATOM     10  O   UNL d   1      57.994  -2.168  30.703  0.00  0.00    -0.266 OA
ATOM     11  C   UNL d   1      57.341  -0.788  31.360  0.00  0.00     0.006 A 
ATOM     12  C   UNL d   1      57.549   0.671  30.615  0.00  0.00     0.020 A 
ATOM     13  C   UNL d   1      57.012  -0.114  31.699  0.00  0.00     0.000 A 
ATOM     14  C   UNL d   1      57.118   0.632  31.317  0.00  0.00     0.002 A 
ENDROOT
BRANCH   2  15
ATOM     15  C   UNL d   1      58.853  -2.059  29.292  0.00  0.00     0.084 A 
ATOM     16  C   UNL d   1      59.640  -2.264  29.423  0.00  0.00     0.017 A 
ATOM     17  C   UNL d   1      60.070  -1.835  29.854  0.00  0.00     0.002 C 
ATOM     18  C   UNL d   1      59.968  -2.937  29.089  0.00  0.00     0.002 A 
ATOM     19  C   UNL d   1      59.492  -3.429  28.602  0.00  0.00     0.000 A 
ATOM     20  C   UNL d   1      58.695  -3.240  28.456  0.00  0.00     0.002 A 
ATOM     21  C   UNL d   1      58.377  -2.551  28.804  0.00  0.00     0.018 A 
ENDBRANCH   2  15
TORSDOF 1
ENDMDL
MODEL 5
REMARK VINA RESULT:      -2.4      2.808      4.134
REMARK  1 active torsions:
REMARK  status: ('A' for Active; 'I' for Inactive)
REMARK    1  A    between atoms: C_10  and  N_2 
ROOT
ATOM      1  C   UNL d   1      58.645  -1.276  29.778  0.00  0.00     0.759 A 
ATOM      2  N   UNL d   1      59.039  -0.545  29.934  0.00  0.00    -0.103 N 
ATOM      3  N   UNL d   1      57.974  -1.474  30.209  0.00  0.00    -0.038 N 
ATOM      4  C   UNL d   1      58.744  -0.046  30.513  0.00  0.00     0.280 A 
ATOM      5  N   UNL d   1      58.807  -1.884  29.239  0.00  0.00     0.066 NA
ATOM      6  C   UNL d   1      58.072  -0.240  30.947  0.00  0.00     0.075 A 
ATOM      7  N   UNL d   1      57.713  -2.228  29.926  0.00  0.00    -0.025 NA
ATOM      8  N   UNL d   1      58.222  -2.465  29.343  0.00  0.00    -0.007 NA
ATOM      9  C   UNL d   1      57.678  -0.971  30.791  0.00  0.00     0.107 A 
ATOM     10  O   UNL d   1      59.136   0.682  30.669  0.00  0.00    -0.266 OA
ATOM     11  C   UNL d   1      57.777   0.259  31.526  0.00  0.00     0.006 A 
ATOM     12  C   UNL d   1      57.007  -1.169  31.221  0.00  0.00     0.020 A 
ATOM     13  C   UNL d   1      57.104   0.065  31.960  0.00  0.00     0.000 A 
ATOM     14  C   UNL d   1      56.711  -0.666  31.804  0.00  0.00     0.002 A 
ENDROOT
BRANCH   2  15
ATOM     15  C   UNL d   1      59.706  -0.349  29.506  0.00  0.00     0.084 A 
ATOM     16  C   UNL d   1      59.675   0.192  28.886  0.00  0.00     0.017 A 
ATOM     17  C   UNL d   1      59.028   0.515  28.706  0.00  0.00     0.002 C 
ATOM     18  C   UNL d   1      60.343   0.390  28.455  0.00  0.00     0.002 A 
ATOM     19  C   UNL d   1      61.079   0.032  28.649  0.00  0.00     0.000 A 
ATOM     20  C   UNL d   1      61.133  -0.518  29.271  0.00  0.00     0.002 A 
ATOM     21  C   UNL d   1      60.442  -0.707  29.700  0.00  0.00     0.018 A 
ENDBRANCH   2  15
TORSDOF 1
ENDMDL
MODEL 6
REMARK VINA RESULT:      -2.4      1.484      2.224
REMARK  1 active torsions:
REMARK  status: ('A' for Active; 'I' for Inactive)
REMARK    1  A    between atoms: C_10  and  N_2 
ROOT
ATOM      1  C   UNL d   1      58.687   0.368  31.480  0.00  0.00     0.759 A 
ATOM      2  N   UNL d   1      58.074   0.186  30.928  0.00  0.00    -0.103 N 
ATOM      3  N   UNL d   1      58.495   0.519  32.264  0.00  0.00    -0.038 N 
ATOM      4  C   UNL d   1      57.296   0.162  31.187  0.00  0.00     0.280 A 
ATOM      5  N   UNL d   1      59.508   0.433  31.388  0.00  0.00     0.066 NA
ATOM      6  C   UNL d   1      57.099   0.311  31.971  0.00  0.00     0.075 A 
ATOM      7  N   UNL d   1      59.220   0.681  32.670  0.00  0.00    -0.025 NA
ATOM      8  N   UNL d   1      59.823   0.627  32.133  0.00  0.00    -0.007 NA
ATOM      9  C   UNL d   1      57.712   0.494  32.522  0.00  0.00     0.107 A 
ATOM     10  O   UNL d   1      56.685  -0.020  30.638  0.00  0.00    -0.266 OA
ATOM     11  C   UNL d   1      56.321   0.288  32.229  0.00  0.00     0.006 A 
ATOM     12  C   UNL d   1      57.520   0.645  33.307  0.00  0.00     0.020 A 
ATOM     13  C   UNL d   1      56.123   0.438  33.014  0.00  0.00     0.000 A 
ATOM     14  C   UNL d   1      56.737   0.620  33.566  0.00  0.00     0.002 A 
ENDROOT
BRANCH   2  15
ATOM     15  C   UNL d   1      58.266   0.036  30.149  0.00  0.00     0.084 A 
ATOM     16  C   UNL d   1      58.349  -0.733  29.867  0.00  0.00     0.017 A 
ATOM     17  C   UNL d   1      58.249  -1.311  30.326  0.00  0.00     0.002 C 
ATOM     18  C   UNL d   1      58.543  -0.884  29.085  0.00  0.00     0.002 A 
ATOM     19  C   UNL d   1      58.659  -0.240  28.557  0.00  0.00     0.000 A 
ATOM     20  C   UNL d   1      58.580   0.545  28.821  0.00  0.00     0.002 A 
ATOM     21  C   UNL d   1      58.382   0.681  29.621  0.00  0.00     0.018 A 
ENDBRANCH   2  15
TORSDOF 1
ENDMDL
MODEL 7
REMARK VINA RESULT:      -2.4      2.812      5.082
REMARK  1 active torsions:
REMARK  status: ('A' for Active; 'I' for Inactive)
REMARK    1  A    between atoms: C_10  and  N_2 
ROOT
ATOM      1  C   UNL d   1      58.431  -1.232  29.853  0.00  0.00     0.759 A 
ATOM      2  N   UNL d   1      58.525  -0.484  30.235  0.00  0.00    -0.103 N 
ATOM      3  N   UNL d   1      59.036  -1.524  29.379  0.00  0.00    -0.038 N 
ATOM      4  C   UNL d   1      59.220  -0.062  30.125  0.00  0.00     0.280 A 
ATOM      5  N   UNL d   1      57.807  -1.777  29.857  0.00  0.00     0.066 NA
ATOM      6  C   UNL d   1      59.827  -0.350  29.651  0.00  0.00     0.075 A 
ATOM      7  N   UNL d   1      58.776  -2.272  29.080  0.00  0.00    -0.025 NA
ATOM      8  N   UNL d   1      58.036  -2.415  29.374  0.00  0.00    -0.007 NA
ATOM      9  C   UNL d   1      59.733  -1.098  29.270  0.00  0.00     0.107 A 
ATOM     10  O   UNL d   1      59.313   0.682  30.505  0.00  0.00    -0.266 OA
ATOM     11  C   UNL d   1      60.522   0.072  29.542  0.00  0.00     0.006 A 
ATOM     12  C   UNL d   1      60.338  -1.390  28.795  0.00  0.00     0.020 A 
ATOM     13  C   UNL d   1      61.130  -0.216  29.068  0.00  0.00     0.000 A 
ATOM     14  C   UNL d   1      61.036  -0.964  28.686  0.00  0.00     0.002 A 
ENDROOT
BRANCH   2  15
ATOM     15  C   UNL d   1      57.924  -0.196  30.706  0.00  0.00     0.084 A 
ATOM     16  C   UNL d   1      57.413   0.391  30.437  0.00  0.00     0.017 A 
ATOM     17  C   UNL d   1      57.494   0.671  29.751  0.00  0.00     0.002 C 
ATOM     18  C   UNL d   1      56.808   0.682  30.909  0.00  0.00     0.002 A 
ATOM     19  C   UNL d   1      56.707   0.374  31.685  0.00  0.00     0.000 A 
ATOM     20  C   UNL d   1      57.213  -0.219  31.976  0.00  0.00     0.002 A 
ATOM     21  C   UNL d   1      57.823  -0.504  31.482  0.00  0.00     0.018 A 
ENDBRANCH   2  15
TORSDOF 1
ENDMDL
MODEL 8
REMARK VINA RESULT:      -2.3      9.446     10.617
REMARK  1 active torsions:
REMARK  status: ('A' for Active; 'I' for Inactive)
REMARK    1  A    between atoms: C_10  and  N_2 
ROOT
ATOM      1  C   UNL d   1      58.885  -9.342  33.412  0.00  0.00     0.759 A 
ATOM      2  N   UNL d   1      59.599  -9.282  33.861  0.00  0.00    -0.103 N 
ATOM      3  N   UNL d   1      58.926  -9.489  32.604  0.00  0.00    -0.038 N 
ATOM      4  C   UNL d   1      60.320  -9.372  33.481  0.00  0.00     0.280 A 
ATOM      5  N   UNL d   1      58.089  -9.278  33.633  0.00  0.00     0.066 NA
ATOM      6  C   UNL d   1      60.366  -9.520  32.674  0.00  0.00     0.075 A 
ATOM      7  N   UNL d   1      58.130  -9.517  32.318  0.00  0.00    -0.025 NA
ATOM      8  N   UNL d   1      57.635  -9.389  32.945  0.00  0.00    -0.007 NA
ATOM      9  C   UNL d   1      59.652  -9.579  32.225  0.00  0.00     0.107 A 
ATOM     10  O   UNL d   1      61.030  -9.313  33.928  0.00  0.00    -0.266 OA
ATOM     11  C   UNL d   1      61.087  -9.610  32.294  0.00  0.00     0.006 A 
ATOM     12  C   UNL d   1      59.693  -9.727  31.417  0.00  0.00     0.020 A 
ATOM     13  C   UNL d   1      61.133  -9.757  31.486  0.00  0.00     0.000 A 
ATOM     14  C   UNL d   1      60.420  -9.817  31.037  0.00  0.00     0.002 A 
ENDROOT
BRANCH   2  15
ATOM     15  C   UNL d   1      59.557  -9.136  34.663  0.00  0.00     0.084 A 
ATOM     16  C   UNL d   1      59.788  -8.412  34.980  0.00  0.00     0.017 A 
ATOM     17  C   UNL d   1      60.042  -7.874  34.532  0.00  0.00     0.002 C 
ATOM     18  C   UNL d   1      59.747  -8.264  35.785  0.00  0.00     0.002 A 
ATOM     19  C   UNL d   1      59.461  -8.864  36.300  0.00  0.00     0.000 A 
ATOM     20  C   UNL d   1      59.223  -9.603  36.001  0.00  0.00     0.002 A 
ATOM     21  C   UNL d   1      59.272  -9.737  35.178  0.00  0.00     0.018 A 
ENDBRANCH   2  15
TORSDOF 1
ENDMDL
