MODEL 1
REMARK VINA RESULT:       6.0      0.000      0.000
REMARK  5 active torsions:
REMARK  status: ('A' for Active; 'I' for Inactive)
REMARK    1  A    between atoms: C_11  and  C_1 
REMARK    2  A    between atoms: O_19  and  C_11 
REMARK    3  A    between atoms: C_16  and  N_12 
REMARK    4  A    between atoms: C_18  and  C_16 
REMARK    5  A    between atoms: C_26  and  O_19 
ROOT
ATOM      1  C   UNL d   1      33.190  21.037 -23.539  0.00  0.00     0.088 A 
ATOM      2  C   UNL d   1      33.199  20.538 -22.892  0.00  0.00     0.033 A 
ATOM      3  C   UNL d   1      33.213  20.704 -22.068  0.00  0.00     0.043 A 
ATOM      4  C   UNL d   1      33.193  19.760 -23.163  0.00  0.00     0.100 A 
ATOM      5  C   UNL d   1      33.177  20.555 -24.226  0.00  0.00     0.105 A 
ATOM      6  O   UNL d   1      33.179  19.764 -23.983  0.00  0.00    -0.307 OA
ATOM      7  C   UNL d   1      33.220  20.077 -21.536  0.00  0.00     0.103 A 
ATOM      8  O   UNL d   1      33.234  20.229 -20.719  0.00  0.00    -0.288 OA
ATOM      9  C   UNL d   1      33.200  19.136 -22.610  0.00  0.00     0.025 A 
ATOM     10  C   UNL d   1      33.214  19.299 -21.799  0.00  0.00     0.025 A 
ATOM     11  N   UNL d   1      33.234  21.632 -20.996  0.00  0.00    -0.282 N 
ATOM     12  C   UNL d   1      33.220  21.473 -21.808  0.00  0.00     0.084 A 
ATOM     13  C   UNL d   1      33.241  21.008 -20.451  0.00  0.00     0.209 A 
ATOM     14  C   UNL d   1      33.165  20.827 -25.006  0.00  0.00     0.027 C 
ATOM     15  C   UNL d   1      33.193  18.358 -22.881  0.00  0.00     0.002 A 
ATOM     16  C   UNL d   1      33.221  18.684 -21.256  0.00  0.00     0.002 A 
ATOM     17  C   UNL d   1      33.200  17.739 -22.330  0.00  0.00     0.000 A 
ATOM     18  C   UNL d   1      33.214  17.901 -21.523  0.00  0.00     0.000 A 
ENDROOT
BRANCH  11  19
ATOM     19  C   UNL d   1      33.240  22.403 -20.722  0.00  0.00     0.084 C 
BRANCH  19  20
ATOM     20  C   UNL d   1      32.780  22.610 -20.062  0.00  0.00     0.037 A 
ATOM     21  C   UNL d   1      31.955  22.563 -20.103  0.00  0.00     0.100 A 
ATOM     22  N   UNL d   1      31.504  22.767 -19.451  0.00  0.00    -0.242 NA
ATOM     23  C   UNL d   1      31.865  23.020 -18.755  0.00  0.00     0.099 A 
ATOM     24  C   UNL d   1      32.682  23.065 -18.719  0.00  0.00     0.021 A 
ATOM     25  C   UNL d   1      33.145  22.861 -19.371  0.00  0.00     0.005 A 
ENDBRANCH  19  20
ENDBRANCH  11  19
BRANCH   1  26
ATOM     26  C   UNL d   1      33.193  21.856 -23.513  0.00  0.00     0.302 C 
ATOM     27  O   UNL d   1      33.215  22.253 -22.799  0.00  0.00    -0.259 OA
BRANCH  26  28
ATOM     28  O   UNL d   1      33.173  22.294 -24.219  0.00  0.00    -0.271 OA
BRANCH  28  29
ATOM     29  C   UNL d   1      32.736  22.982 -24.247  0.00  0.00     0.126 C 
ATOM     30  C   UNL d   1      32.780  23.475 -24.903  0.00  0.00     0.029 C 
ENDBRANCH  28  29
ENDBRANCH  26  28
ENDBRANCH   1  26
TORSDOF 5
ENDMDL
MODEL 2
REMARK VINA RESULT:       7.2      4.083      6.132
REMARK  5 active torsions:
REMARK  status: ('A' for Active; 'I' for Inactive)
REMARK    1  A    between atoms: C_11  and  C_1 
REMARK    2  A    between atoms: O_19  and  C_11 
REMARK    3  A    between atoms: C_16  and  N_12 
REMARK    4  A    between atoms: C_18  and  C_16 
REMARK    5  A    between atoms: C_26  and  O_19 
ROOT
ATOM      1  C   UNL d   1      32.066  16.409 -23.486  0.00  0.00     0.088 A 
ATOM      2  C   UNL d   1      31.911  17.107 -23.879  0.00  0.00     0.033 A 
ATOM      3  C   UNL d   1      31.223  17.373 -24.281  0.00  0.00     0.043 A 
ATOM      4  C   UNL d   1      32.582  17.585 -23.836  0.00  0.00     0.100 A 
ATOM      5  C   UNL d   1      32.852  16.455 -23.193  0.00  0.00     0.105 A 
ATOM      6  O   UNL d   1      33.163  17.188 -23.416  0.00  0.00    -0.307 OA
ATOM      7  C   UNL d   1      31.227  18.117 -24.631  0.00  0.00     0.103 A 
ATOM      8  O   UNL d   1      30.552  18.390 -25.031  0.00  0.00    -0.288 OA
ATOM      9  C   UNL d   1      32.570  18.336 -24.196  0.00  0.00     0.025 A 
ATOM     10  C   UNL d   1      31.892  18.598 -24.592  0.00  0.00     0.025 A 
ATOM     11  N   UNL d   1      29.889  17.163 -24.716  0.00  0.00    -0.282 N 
ATOM     12  C   UNL d   1      30.565  16.898 -24.319  0.00  0.00     0.084 A 
ATOM     13  C   UNL d   1      29.883  17.911 -25.072  0.00  0.00     0.209 A 
ATOM     14  C   UNL d   1      33.241  15.869 -22.760  0.00  0.00     0.027 C 
ATOM     15  C   UNL d   1      33.241  18.814 -24.154  0.00  0.00     0.002 A 
ATOM     16  C   UNL d   1      31.882  19.338 -24.946  0.00  0.00     0.002 A 
ATOM     17  C   UNL d   1      33.227  19.560 -24.513  0.00  0.00     0.000 A 
ATOM     18  C   UNL d   1      32.553  19.821 -24.906  0.00  0.00     0.000 A 
ENDROOT
BRANCH  11  19
ATOM     19  C   UNL d   1      29.221  16.693 -24.761  0.00  0.00     0.084 C 
BRANCH  19  20
ATOM     20  C   UNL d   1      28.577  16.841 -24.257  0.00  0.00     0.037 A 
ATOM     21  C   UNL d   1      28.273  17.607 -24.191  0.00  0.00     0.100 A 
ATOM     22  N   UNL d   1      27.639  17.751 -23.692  0.00  0.00    -0.242 NA
ATOM     23  C   UNL d   1      27.303  17.138 -23.257  0.00  0.00     0.099 A 
ATOM     24  C   UNL d   1      27.608  16.381 -23.326  0.00  0.00     0.021 A 
ATOM     25  C   UNL d   1      28.246  16.226 -23.825  0.00  0.00     0.005 A 
ENDBRANCH  19  20
ENDBRANCH  11  19
BRANCH   1  26
ATOM     26  C   UNL d   1      31.545  15.782 -23.398  0.00  0.00     0.302 C 
ATOM     27  O   UNL d   1      31.148  15.473 -24.042  0.00  0.00    -0.259 OA
BRANCH  26  28
ATOM     28  O   UNL d   1      31.414  15.453 -22.646  0.00  0.00    -0.271 OA
BRANCH  28  29
ATOM     29  C   UNL d   1      30.664  15.478 -22.327  0.00  0.00     0.126 C 
ATOM     30  C   UNL d   1      30.559  15.617 -21.524  0.00  0.00     0.029 C 
ENDBRANCH  28  29
ENDBRANCH  26  28
ENDBRANCH   1  26
TORSDOF 5
ENDMDL
