MODEL 1
REMARK VINA RESULT:      -8.4      0.000      0.000
REMARK  3 active torsions:
REMARK  status: ('A' for Active; 'I' for Inactive)
REMARK    1  A    between atoms: N_2  and  S_1 
REMARK    2  A    between atoms: C_4  and  S_1 
REMARK    3  A    between atoms: C_11  and  C_3 
ROOT
ATOM      1  N   UNL d   1     -49.041  14.645  22.990  0.00  0.00    -0.213 N 
ATOM      2  C   UNL d   1     -49.774  14.374  22.715  0.00  0.00     0.157 A 
ATOM      3  N   UNL d   1     -50.332  14.961  22.880  0.00  0.00    -0.224 NA
ATOM      4  C   UNL d   1     -49.150  15.393  23.321  0.00  0.00     0.114 A 
ATOM      5  C   UNL d   1     -49.949  15.586  23.252  0.00  0.00     0.120 A 
ENDROOT
BRANCH   1   6
ATOM      6  S   UNL d   1     -48.326  14.236  22.940  0.00  0.00     0.273 S 
ATOM      7  O   UNL d   1     -48.467  13.899  23.680  0.00  0.00    -0.200 OA
ATOM      8  O   UNL d   1     -48.185  14.572  22.204  0.00  0.00    -0.200 OA
BRANCH   6   9
ATOM      9  C   UNL d   1     -47.613  13.829  22.891  0.00  0.00     0.104 A 
ATOM     10  C   UNL d   1     -47.501  13.130  23.317  0.00  0.00     0.015 A 
ATOM     11  C   UNL d   1     -46.788  12.715  23.273  0.00  0.00     0.028 A 
ATOM     12  C   UNL d   1     -46.681  12.023  23.698  0.00  0.00     0.002 C 
ATOM     13  C   UNL d   1     -46.180  13.010  22.791  0.00  0.00     0.140 A 
ATOM     14  C   UNL d   1     -46.287  13.702  22.367  0.00  0.00     0.030 A 
ATOM     15  F   UNL d   1     -45.467  12.603  22.742  0.00  0.00    -0.204 F 
ATOM     16  C   UNL d   1     -47.003  14.111  22.416  0.00  0.00     0.015 A 
ENDBRANCH   6   9
ENDBRANCH   1   6
BRANCH   2  17
ATOM     17  C   UNL d   1     -49.920  13.652  22.345  0.00  0.00     0.035 A 
ATOM     18  C   UNL d   1     -50.165  13.001  22.791  0.00  0.00     0.003 A 
ATOM     19  C   UNL d   1     -50.313  12.277  22.424  0.00  0.00     0.000 A 
ATOM     20  C   UNL d   1     -50.213  12.207  21.609  0.00  0.00     0.000 A 
ATOM     21  C   UNL d   1     -49.968  12.859  21.163  0.00  0.00     0.000 A 
ATOM     22  C   UNL d   1     -49.822  13.580  21.532  0.00  0.00     0.003 A 
ENDBRANCH   2  17
TORSDOF 3
ENDMDL
MODEL 2
REMARK VINA RESULT:      -8.1      1.914      3.778
REMARK  3 active torsions:
REMARK  status: ('A' for Active; 'I' for Inactive)
REMARK    1  A    between atoms: N_2  and  S_1 
REMARK    2  A    between atoms: C_4  and  S_1 
REMARK    3  A    between atoms: C_11  and  C_3 
ROOT
ATOM      1  N   UNL d   1     -47.967  11.912  23.112  0.00  0.00    -0.213 N 
ATOM      2  C   UNL d   1     -47.168  12.112  23.203  0.00  0.00     0.157 A 
ATOM      3  N   UNL d   1     -46.792  11.472  23.566  0.00  0.00    -0.224 NA
ATOM      4  C   UNL d   1     -48.079  11.154  23.418  0.00  0.00     0.114 A 
ATOM      5  C   UNL d   1     -47.351  10.884  23.698  0.00  0.00     0.120 A 
ENDROOT
BRANCH   1   6
ATOM      6  S   UNL d   1     -48.549  12.389  22.775  0.00  0.00     0.273 S 
ATOM      7  O   UNL d   1     -48.724  12.702  23.518  0.00  0.00    -0.200 OA
ATOM      8  O   UNL d   1     -48.376  12.078  22.035  0.00  0.00    -0.200 OA
BRANCH   6   9
ATOM      9  C   UNL d   1     -49.129  12.865  22.438  0.00  0.00     0.104 A 
ATOM     10  C   UNL d   1     -49.532  13.421  22.898  0.00  0.00     0.015 A 
ATOM     11  C   UNL d   1     -50.116  13.903  22.568  0.00  0.00     0.028 A 
ATOM     12  C   UNL d   1     -50.513  14.453  23.028  0.00  0.00     0.002 C 
ATOM     13  C   UNL d   1     -50.296  13.822  21.762  0.00  0.00     0.140 A 
ATOM     14  C   UNL d   1     -49.899  13.272  21.302  0.00  0.00     0.030 A 
ATOM     15  F   UNL d   1     -50.876  14.298  21.425  0.00  0.00    -0.204 F 
ATOM     16  C   UNL d   1     -49.316  12.794  21.640  0.00  0.00     0.015 A 
ENDBRANCH   6   9
ENDBRANCH   1   6
BRANCH   2  17
ATOM     17  C   UNL d   1     -46.814  12.820  22.974  0.00  0.00     0.035 A 
ATOM     18  C   UNL d   1     -46.805  13.465  23.491  0.00  0.00     0.003 A 
ATOM     19  C   UNL d   1     -46.451  14.175  23.264  0.00  0.00     0.000 A 
ATOM     20  C   UNL d   1     -46.105  14.237  22.518  0.00  0.00     0.000 A 
ATOM     21  C   UNL d   1     -46.114  13.591  22.001  0.00  0.00     0.000 A 
ATOM     22  C   UNL d   1     -46.468  12.884  22.230  0.00  0.00     0.003 A 
ENDBRANCH   2  17
TORSDOF 3
ENDMDL
MODEL 3
REMARK VINA RESULT:      -7.7      1.854      3.242
REMARK  3 active torsions:
REMARK  status: ('A' for Active; 'I' for Inactive)
REMARK    1  A    between atoms: N_2  and  S_1 
REMARK    2  A    between atoms: C_4  and  S_1 
REMARK    3  A    between atoms: C_11  and  C_3 
ROOT
ATOM      1  N   UNL d   1     -47.306  13.818  22.664  0.00  0.00    -0.213 N 
ATOM      2  C   UNL d   1     -47.135  13.010  22.729  0.00  0.00     0.157 A 
ATOM      3  N   UNL d   1     -46.315  12.926  22.674  0.00  0.00    -0.224 NA
ATOM      4  C   UNL d   1     -46.594  14.226  22.569  0.00  0.00     0.114 A 
ATOM      5  C   UNL d   1     -45.983  13.671  22.575  0.00  0.00     0.120 A 
ENDROOT
BRANCH   1   6
ATOM      6  S   UNL d   1     -48.058  14.157  22.690  0.00  0.00     0.273 S 
ATOM      7  O   UNL d   1     -48.022  14.173  23.514  0.00  0.00    -0.200 OA
ATOM      8  O   UNL d   1     -48.093  14.140  21.870  0.00  0.00    -0.200 OA
BRANCH   6   9
ATOM      9  C   UNL d   1     -48.807  14.493  22.715  0.00  0.00     0.104 A 
ATOM     10  C   UNL d   1     -49.361  14.326  22.125  0.00  0.00     0.015 A 
ATOM     11  C   UNL d   1     -50.116  14.660  22.143  0.00  0.00     0.028 A 
ATOM     12  C   UNL d   1     -50.662  14.492  21.556  0.00  0.00     0.002 C 
ATOM     13  C   UNL d   1     -50.315  15.171  22.767  0.00  0.00     0.140 A 
ATOM     14  C   UNL d   1     -49.769  15.340  23.354  0.00  0.00     0.030 A 
ATOM     15  F   UNL d   1     -51.064  15.508  22.792  0.00  0.00    -0.204 F 
ATOM     16  C   UNL d   1     -49.016  15.001  23.328  0.00  0.00     0.015 A 
ENDBRANCH   6   9
ENDBRANCH   1   6
BRANCH   2  17
ATOM     17  C   UNL d   1     -47.682  12.403  22.831  0.00  0.00     0.035 A 
ATOM     18  C   UNL d   1     -47.883  12.150  23.592  0.00  0.00     0.003 A 
ATOM     19  C   UNL d   1     -48.430  11.542  23.698  0.00  0.00     0.000 A 
ATOM     20  C   UNL d   1     -48.776  11.187  23.039  0.00  0.00     0.000 A 
ATOM     21  C   UNL d   1     -48.575  11.441  22.277  0.00  0.00     0.000 A 
ATOM     22  C   UNL d   1     -48.028  12.047  22.175  0.00  0.00     0.003 A 
ENDBRANCH   2  17
TORSDOF 3
ENDMDL
MODEL 4
REMARK VINA RESULT:      -6.7      8.657      9.950
REMARK  3 active torsions:
REMARK  status: ('A' for Active; 'I' for Inactive)
REMARK    1  A    between atoms: N_2  and  S_1 
REMARK    2  A    between atoms: C_4  and  S_1 
REMARK    3  A    between atoms: C_11  and  C_3 
ROOT
ATOM      1  N   UNL d   1     -40.531  15.261  17.891  0.00  0.00    -0.213 N 
ATOM      2  C   UNL d   1     -40.067  14.942  17.283  0.00  0.00     0.157 A 
ATOM      3  N   UNL d   1     -40.389  15.198  16.566  0.00  0.00    -0.224 NA
ATOM      4  C   UNL d   1     -41.133  15.710  17.547  0.00  0.00     0.114 A 
ATOM      5  C   UNL d   1     -41.043  15.669  16.728  0.00  0.00     0.120 A 
ENDROOT
BRANCH   1   6
ATOM      6  S   UNL d   1     -40.411  15.150  18.699  0.00  0.00     0.273 S 
ATOM      7  O   UNL d   1     -40.872  14.466  18.673  0.00  0.00    -0.200 OA
ATOM      8  O   UNL d   1     -39.952  15.830  18.725  0.00  0.00    -0.200 OA
BRANCH   6   9
ATOM      9  C   UNL d   1     -40.291  15.038  19.505  0.00  0.00     0.104 A 
ATOM     10  C   UNL d   1     -39.777  15.533  19.923  0.00  0.00     0.015 A 
ATOM     11  C   UNL d   1     -39.651  15.428  20.733  0.00  0.00     0.028 A 
ATOM     12  C   UNL d   1     -39.142  15.920  21.143  0.00  0.00     0.002 C 
ATOM     13  C   UNL d   1     -40.050  14.814  21.126  0.00  0.00     0.140 A 
ATOM     14  C   UNL d   1     -40.559  14.322  20.715  0.00  0.00     0.030 A 
ATOM     15  F   UNL d   1     -39.930  14.703  21.931  0.00  0.00    -0.204 F 
ATOM     16  C   UNL d   1     -40.680  14.434  19.905  0.00  0.00     0.015 A 
ENDBRANCH   6   9
ENDBRANCH   1   6
BRANCH   2  17
ATOM     17  C   UNL d   1     -39.406  14.459  17.376  0.00  0.00     0.035 A 
ATOM     18  C   UNL d   1     -39.496  13.639  17.416  0.00  0.00     0.003 A 
ATOM     19  C   UNL d   1     -38.837  13.152  17.509  0.00  0.00     0.000 A 
ATOM     20  C   UNL d   1     -38.086  13.489  17.562  0.00  0.00     0.000 A 
ATOM     21  C   UNL d   1     -37.997  14.311  17.521  0.00  0.00     0.000 A 
ATOM     22  C   UNL d   1     -38.656  14.794  17.428  0.00  0.00     0.003 A 
ENDBRANCH   2  17
TORSDOF 3
ENDMDL
MODEL 5
REMARK VINA RESULT:      -5.5      8.371     10.079
REMARK  3 active torsions:
REMARK  status: ('A' for Active; 'I' for Inactive)
REMARK    1  A    between atoms: N_2  and  S_1 
REMARK    2  A    between atoms: C_4  and  S_1 
REMARK    3  A    between atoms: C_11  and  C_3 
ROOT
ATOM      1  N   UNL d   1     -39.113  13.755  18.387  0.00  0.00    -0.213 N 
ATOM      2  C   UNL d   1     -39.271  13.938  17.595  0.00  0.00     0.157 A 
ATOM      3  N   UNL d   1     -38.913  13.356  17.130  0.00  0.00    -0.224 NA
ATOM      4  C   UNL d   1     -38.661  13.065  18.407  0.00  0.00     0.114 A 
ATOM      5  C   UNL d   1     -38.539  12.820  17.629  0.00  0.00     0.120 A 
ENDROOT
BRANCH   1   6
ATOM      6  S   UNL d   1     -39.365  14.189  19.043  0.00  0.00     0.273 S 
ATOM      7  O   UNL d   1     -40.064  13.751  19.064  0.00  0.00    -0.200 OA
ATOM      8  O   UNL d   1     -38.669  14.624  19.021  0.00  0.00    -0.200 OA
BRANCH   6   9
ATOM      9  C   UNL d   1     -39.615  14.621  19.695  0.00  0.00     0.104 A 
ATOM     10  C   UNL d   1     -40.338  14.449  20.057  0.00  0.00     0.015 A 
ATOM     11  C   UNL d   1     -40.598  14.879  20.714  0.00  0.00     0.028 A 
ATOM     12  C   UNL d   1     -41.315  14.705  21.069  0.00  0.00     0.002 C 
ATOM     13  C   UNL d   1     -40.120  15.490  21.009  0.00  0.00     0.140 A 
ATOM     14  C   UNL d   1     -39.403  15.663  20.654  0.00  0.00     0.030 A 
ATOM     15  F   UNL d   1     -40.371  15.922  21.662  0.00  0.00    -0.204 F 
ATOM     16  C   UNL d   1     -39.151  15.229  19.997  0.00  0.00     0.015 A 
ENDBRANCH   6   9
ENDBRANCH   1   6
BRANCH   2  17
ATOM     17  C   UNL d   1     -39.706  14.582  17.320  0.00  0.00     0.035 A 
ATOM     18  C   UNL d   1     -40.528  14.529  17.254  0.00  0.00     0.003 A 
ATOM     19  C   UNL d   1     -40.966  15.172  16.980  0.00  0.00     0.000 A 
ATOM     20  C   UNL d   1     -40.578  15.869  16.771  0.00  0.00     0.000 A 
ATOM     21  C   UNL d   1     -39.755  15.922  16.838  0.00  0.00     0.000 A 
ATOM     22  C   UNL d   1     -39.321  15.279  17.112  0.00  0.00     0.003 A 
ENDBRANCH   2  17
TORSDOF 3
ENDMDL
