MODEL 1
REMARK VINA RESULT:      -6.5      0.000      0.000
REMARK  4 active torsions:
REMARK  status: ('A' for Active; 'I' for Inactive)
REMARK    1  A    between atoms: N_2  and  C_1 
REMARK    2  A    between atoms: N_3  and  C_1 
REMARK       I    between atoms: C_4  and  N_2 
REMARK    3  A    between atoms: C_5  and  N_3 
REMARK    4  A    between atoms: C_9  and  C_4 
ROOT
ATOM      1  C   UNL d   1     -47.761  12.394  23.249  0.00  0.00     0.276 C 
ATOM      2  S   UNL d   1     -47.408  11.784  23.677  0.00  0.00    -0.023 SA
ENDROOT
BRANCH   1   3
ATOM      3  N   UNL d   1     -47.289  12.916  22.821  0.00  0.00    -0.168 NA
ATOM      4  C   UNL d   1     -46.502  13.051  23.040  0.00  0.00     0.282 C 
ATOM      5  O   UNL d   1     -46.193  12.656  23.696  0.00  0.00    -0.265 OA
BRANCH   4   6
ATOM      6  C   UNL d   1     -46.031  13.575  22.608  0.00  0.00     0.058 C 
ATOM      7  C   UNL d   1     -45.389  13.294  22.197  0.00  0.00     0.005 C 
ATOM      8  C   UNL d   1     -46.218  14.378  22.600  0.00  0.00     0.005 C 
ENDBRANCH   4   6
ENDBRANCH   1   3
BRANCH   1   9
ATOM      9  N   UNL d   1     -48.583  12.485  23.248  0.00  0.00    -0.353 NA
BRANCH   9  10
ATOM     10  C   UNL d   1     -49.400  12.575  23.248  0.00  0.00     0.216 A 
ATOM     11  N   UNL d   1     -49.745  13.179  23.698  0.00  0.00    -0.215 NA
ATOM     12  C   UNL d   1     -50.564  13.267  23.697  0.00  0.00     0.102 A 
ATOM     13  C   UNL d   1     -51.034  12.755  23.249  0.00  0.00     0.021 A 
ATOM     14  C   UNL d   1     -50.692  12.161  22.807  0.00  0.00     0.006 A 
ATOM     15  C   UNL d   1     -49.873  12.061  22.799  0.00  0.00     0.052 A 
ENDBRANCH   9  10
ENDBRANCH   1   9
TORSDOF 4
ENDMDL
MODEL 2
REMARK VINA RESULT:      -6.4      1.788      2.196
REMARK  4 active torsions:
REMARK  status: ('A' for Active; 'I' for Inactive)
REMARK    1  A    between atoms: N_2  and  C_1 
REMARK    2  A    between atoms: N_3  and  C_1 
REMARK       I    between atoms: C_4  and  N_2 
REMARK    3  A    between atoms: C_5  and  N_3 
REMARK    4  A    between atoms: C_9  and  C_4 
ROOT
ATOM      1  C   UNL d   1     -47.430  13.670  22.909  0.00  0.00     0.276 C 
ATOM      2  S   UNL d   1     -46.715  14.075  22.842  0.00  0.00    -0.023 SA
ENDROOT
BRANCH   1   3
ATOM      3  N   UNL d   1     -47.426  12.859  23.053  0.00  0.00    -0.168 NA
ATOM      4  C   UNL d   1     -46.791  12.504  23.447  0.00  0.00     0.282 C 
ATOM      5  O   UNL d   1     -46.158  12.972  23.697  0.00  0.00    -0.265 OA
BRANCH   4   6
ATOM      6  C   UNL d   1     -46.789  11.690  23.591  0.00  0.00     0.058 C 
ATOM      7  C   UNL d   1     -47.494  11.299  23.697  0.00  0.00     0.005 C 
ATOM      8  C   UNL d   1     -46.073  11.284  23.623  0.00  0.00     0.005 C 
ENDBRANCH   4   6
ENDBRANCH   1   3
BRANCH   1   9
ATOM      9  N   UNL d   1     -48.149  14.072  22.832  0.00  0.00    -0.353 NA
BRANCH   9  10
ATOM     10  C   UNL d   1     -48.864  14.470  22.754  0.00  0.00     0.216 A 
ATOM     11  N   UNL d   1     -49.036  15.104  23.260  0.00  0.00    -0.215 NA
ATOM     12  C   UNL d   1     -49.753  15.501  23.180  0.00  0.00     0.102 A 
ATOM     13  C   UNL d   1     -50.293  15.268  22.600  0.00  0.00     0.021 A 
ATOM     14  C   UNL d   1     -50.121  14.643  22.103  0.00  0.00     0.006 A 
ATOM     15  C   UNL d   1     -49.407  14.236  22.172  0.00  0.00     0.052 A 
ENDBRANCH   9  10
ENDBRANCH   1   9
TORSDOF 4
ENDMDL
MODEL 3
REMARK VINA RESULT:      -6.1      1.179      3.793
REMARK  4 active torsions:
REMARK  status: ('A' for Active; 'I' for Inactive)
REMARK    1  A    between atoms: N_2  and  C_1 
REMARK    2  A    between atoms: N_3  and  C_1 
REMARK       I    between atoms: C_4  and  N_2 
REMARK    3  A    between atoms: C_5  and  N_3 
REMARK    4  A    between atoms: C_9  and  C_4 
ROOT
ATOM      1  C   UNL d   1     -48.414  12.204  23.452  0.00  0.00     0.276 C 
ATOM      2  S   UNL d   1     -48.302  11.425  23.698  0.00  0.00    -0.023 SA
ENDROOT
BRANCH   1   3
ATOM      3  N   UNL d   1     -49.175  12.519  23.434  0.00  0.00    -0.168 NA
ATOM      4  C   UNL d   1     -49.784  12.130  23.030  0.00  0.00     0.282 C 
ATOM      5  O   UNL d   1     -49.620  11.419  22.642  0.00  0.00    -0.265 OA
BRANCH   4   6
ATOM      6  C   UNL d   1     -50.546  12.448  23.014  0.00  0.00     0.058 C 
ATOM      7  C   UNL d   1     -50.828  12.784  22.330  0.00  0.00     0.005 C 
ATOM      8  C   UNL d   1     -51.012  12.421  23.693  0.00  0.00     0.005 C 
ENDBRANCH   4   6
ENDBRANCH   1   3
BRANCH   1   9
ATOM      9  N   UNL d   1     -47.769  12.670  23.224  0.00  0.00    -0.353 NA
BRANCH   9  10
ATOM     10  C   UNL d   1     -47.129  13.134  22.999  0.00  0.00     0.216 A 
ATOM     11  N   UNL d   1     -46.411  12.771  22.802  0.00  0.00    -0.215 NA
ATOM     12  C   UNL d   1     -45.771  13.238  22.577  0.00  0.00     0.102 A 
ATOM     13  C   UNL d   1     -45.848  14.060  22.548  0.00  0.00     0.021 A 
ATOM     14  C   UNL d   1     -46.557  14.415  22.741  0.00  0.00     0.006 A 
ATOM     15  C   UNL d   1     -47.207  13.959  22.969  0.00  0.00     0.052 A 
ENDBRANCH   9  10
ENDBRANCH   1   9
TORSDOF 4
ENDMDL
MODEL 4
REMARK VINA RESULT:      -6.0      1.957      3.562
REMARK  4 active torsions:
REMARK  status: ('A' for Active; 'I' for Inactive)
REMARK    1  A    between atoms: N_2  and  C_1 
REMARK    2  A    between atoms: N_3  and  C_1 
REMARK       I    between atoms: C_4  and  N_2 
REMARK    3  A    between atoms: C_5  and  N_3 
REMARK    4  A    between atoms: C_9  and  C_4 
ROOT
ATOM      1  C   UNL d   1     -49.140  13.368  22.432  0.00  0.00     0.276 C 
ATOM      2  S   UNL d   1     -49.333  13.293  21.634  0.00  0.00    -0.023 SA
ENDROOT
BRANCH   1   3
ATOM      3  N   UNL d   1     -49.586  13.866  22.914  0.00  0.00    -0.168 NA
ATOM      4  C   UNL d   1     -49.790  14.627  22.661  0.00  0.00     0.282 C 
ATOM      5  O   UNL d   1     -49.540  14.885  21.917  0.00  0.00    -0.265 OA
BRANCH   4   6
ATOM      6  C   UNL d   1     -50.238  15.124  23.146  0.00  0.00     0.058 C 
ATOM      7  C   UNL d   1     -51.049  15.073  23.134  0.00  0.00     0.005 C 
ATOM      8  C   UNL d   1     -49.856  15.665  23.636  0.00  0.00     0.005 C 
ENDBRANCH   4   6
ENDBRANCH   1   3
BRANCH   1   9
ATOM      9  N   UNL d   1     -48.503  12.947  22.751  0.00  0.00    -0.353 NA
BRANCH   9  10
ATOM     10  C   UNL d   1     -47.870  12.528  23.067  0.00  0.00     0.216 A 
ATOM     11  N   UNL d   1     -47.114  12.867  23.067  0.00  0.00    -0.215 NA
ATOM     12  C   UNL d   1     -46.482  12.445  23.384  0.00  0.00     0.102 A 
ATOM     13  C   UNL d   1     -46.604  11.691  23.698  0.00  0.00     0.021 A 
ATOM     14  C   UNL d   1     -47.350  11.359  23.697  0.00  0.00     0.006 A 
ATOM     15  C   UNL d   1     -47.993  11.770  23.383  0.00  0.00     0.052 A 
ENDBRANCH   9  10
ENDBRANCH   1   9
TORSDOF 4
ENDMDL
