MODEL 1
REMARK VINA RESULT:      66.1      0.000      0.000
REMARK  7 active torsions:
REMARK  status: ('A' for Active; 'I' for Inactive)
REMARK    1  A    between atoms: C_5  and  C_1 
REMARK    2  A    between atoms: N_6  and  C_2 
REMARK    3  A    between atoms: C_7  and  C_5 
REMARK    4  A    between atoms: C_8  and  C_5 
REMARK       I    between atoms: N_13  and  C_7 
REMARK    5  A    between atoms: C_17  and  N_13 
REMARK    6  A    between atoms: C_23  and  C_17 
REMARK    7  A    between atoms: C_18  and  C_23 
ROOT
ATOM      1  C   UNL d   1      59.589  49.347  50.587  0.00  0.00     0.117 A 
ATOM      2  C   UNL d   1      59.409  49.531  51.371  0.00  0.00     0.145 A 
ATOM      3  N   UNL d   1      58.621  49.644  51.596  0.00  0.00    -0.230 NA
ATOM      4  N   UNL d   1      58.983  49.277  50.029  0.00  0.00    -0.241 NA
ATOM      5  C   UNL d   1      58.019  49.573  51.040  0.00  0.00     0.100 A 
ATOM      6  C   UNL d   1      58.200  49.390  50.256  0.00  0.00     0.099 A 
ATOM      7  C   UNL d   1      57.236  49.686  51.267  0.00  0.00     0.021 A 
ATOM      8  C   UNL d   1      57.598  49.319  49.699  0.00  0.00     0.021 A 
ATOM      9  C   UNL d   1      56.625  49.616  50.709  0.00  0.00     0.002 A 
ATOM     10  C   UNL d   1      56.806  49.432  49.925  0.00  0.00     0.002 A 
ENDROOT
BRANCH   1  11
ATOM     11  C   UNL d   1      60.405  49.269  50.530  0.00  0.00     0.099 C 
BRANCH  11  12
ATOM     12  C   UNL d   1      60.888  48.806  50.028  0.00  0.00     0.282 C 
ATOM     13  O   UNL d   1      61.397  49.176  49.483  0.00  0.00    -0.265 OA
ATOM     14  N   UNL d   1      60.855  47.980  50.075  0.00  0.00    -0.206 NA
BRANCH  14  15
ATOM     15  C   UNL d   1      61.337  47.521  49.573  0.00  0.00     0.102 C 
BRANCH  15  16
ATOM     16  C   UNL d   1      61.964  47.018  49.772  0.00  0.00     0.021 C 
BRANCH  16  17
ATOM     17  C   UNL d   1      62.001  46.259  49.459  0.00  0.00     0.002 A 
ATOM     18  C   UNL d   1      61.310  45.832  49.366  0.00  0.00     0.000 A 
ATOM     19  C   UNL d   1      61.348  45.067  49.051  0.00  0.00     0.000 A 
ATOM     20  C   UNL d   1      62.074  44.743  48.834  0.00  0.00     0.000 A 
ATOM     21  C   UNL d   1      62.762  45.190  48.934  0.00  0.00     0.000 A 
ATOM     22  C   UNL d   1      62.724  45.943  49.245  0.00  0.00     0.000 A 
ENDBRANCH  16  17
ENDBRANCH  15  16
ENDBRANCH  14  15
ENDBRANCH  11  12
BRANCH  11  23
ATOM     23  C   UNL d   1      60.864  49.708  51.044  0.00  0.00     0.129 C 
ATOM     24  N   UNL d   1      61.635  49.655  51.333  0.00  0.00    -0.146 N 
ENDBRANCH  11  23
ENDBRANCH   1  11
BRANCH   2  25
ATOM     25  N   UNL d   1      60.113  49.565  51.797  0.00  0.00    -0.188 NA
ATOM     26  C   UNL d   1      60.145  49.559  52.616  0.00  0.00     0.083 A 
ATOM     27  C   UNL d   1      61.245  49.618  52.637  0.00  0.00     0.136 A 
ATOM     28  O   UNL d   1      61.662  49.636  53.169  0.00  0.00    -0.301 OA
ATOM     29  C   UNL d   1      61.583  49.641  52.279  0.00  0.00     0.136 A 
ATOM     30  C   UNL d   1      60.557  49.584  52.287  0.00  0.00     0.083 A 
ENDBRANCH   2  25
TORSDOF 7
ENDMDL
