MODEL 1
REMARK VINA RESULT:      -5.5      0.000      0.000
REMARK  2 active torsions:
REMARK  status: ('A' for Active; 'I' for Inactive)
REMARK    1  A    between atoms: C_4  and  C_1 
REMARK       I    between atoms: N_8  and  C_4 
REMARK    2  A    between atoms: O_12  and  C_11 
ROOT
ATOM      1  C   UNL d   1      56.415  -0.243  32.347  0.00  0.00     0.120 A 
ATOM      2  C   UNL d   1      56.519  -1.044  32.177  0.00  0.00     0.305 A 
ATOM      3  O   UNL d   1      56.989  -1.272  31.527  0.00  0.00    -0.271 OA
ATOM      4  C   UNL d   1      56.778   0.340  31.874  0.00  0.00     0.012 A 
ATOM      5  C   UNL d   1      57.347  -0.704  31.061  0.00  0.00     0.125 A 
ATOM      6  C   UNL d   1      57.242   0.104  31.234  0.00  0.00     0.025 A 
ATOM      7  O   UNL d   1      56.162  -1.615  32.642  0.00  0.00    -0.259 OA
ATOM      8  C   UNL d   1      57.816  -0.920  30.415  0.00  0.00     0.117 A 
ATOM      9  C   UNL d   1      57.604   0.679  30.762  0.00  0.00     0.002 A 
ATOM     10  C   UNL d   1      58.068   0.447  30.122  0.00  0.00     0.002 A 
ATOM     11  C   UNL d   1      58.173  -0.349  29.949  0.00  0.00     0.026 A 
ENDROOT
BRANCH   1  12
ATOM     12  C   UNL d   1      55.953  -0.019  32.986  0.00  0.00     0.270 C 
ATOM     13  N   UNL d   1      56.291   0.344  33.636  0.00  0.00    -0.269 N 
ATOM     14  C   UNL d   1      57.100   0.482  33.646  0.00  0.00     0.102 C 
ATOM     15  C   UNL d   1      55.829   0.568  34.275  0.00  0.00     0.102 C 
ATOM     16  O   UNL d   1      55.143  -0.158  32.976  0.00  0.00    -0.266 OA
ENDBRANCH   1  12
BRANCH   8  17
ATOM     17  O   UNL d   1      57.921  -1.716  30.242  0.00  0.00    -0.326 OA
ATOM     18  C   UNL d   1      58.417  -1.940  29.630  0.00  0.00     0.181 C 
ENDBRANCH   8  17
TORSDOF 2
ENDMDL
MODEL 2
REMARK VINA RESULT:      -5.3      1.302      3.193
REMARK  2 active torsions:
REMARK  status: ('A' for Active; 'I' for Inactive)
REMARK    1  A    between atoms: C_4  and  C_1 
REMARK       I    between atoms: N_8  and  C_4 
REMARK    2  A    between atoms: O_12  and  C_11 
ROOT
ATOM      1  C   UNL d   1      57.594  -0.167  30.747  0.00  0.00     0.120 A 
ATOM      2  C   UNL d   1      57.441  -0.972  30.846  0.00  0.00     0.305 A 
ATOM      3  O   UNL d   1      56.957  -1.227  31.474  0.00  0.00    -0.271 OA
ATOM      4  C   UNL d   1      57.266   0.393  31.271  0.00  0.00     0.012 A 
ATOM      5  C   UNL d   1      56.633  -0.683  31.990  0.00  0.00     0.125 A 
ATOM      6  C   UNL d   1      56.787   0.130  31.890  0.00  0.00     0.025 A 
ATOM      7  O   UNL d   1      57.764  -1.520  30.330  0.00  0.00    -0.259 OA
ATOM      8  C   UNL d   1      56.151  -0.927  32.616  0.00  0.00     0.117 A 
ATOM      9  C   UNL d   1      56.460   0.681  32.412  0.00  0.00     0.002 A 
ATOM     10  C   UNL d   1      55.982   0.421  33.030  0.00  0.00     0.002 A 
ATOM     11  C   UNL d   1      55.828  -0.378  33.132  0.00  0.00     0.026 A 
ENDROOT
BRANCH   1  12
ATOM     12  C   UNL d   1      58.071   0.085  30.129  0.00  0.00     0.270 C 
ATOM     13  N   UNL d   1      58.806   0.412  30.279  0.00  0.00    -0.269 N 
ATOM     14  C   UNL d   1      59.063   0.487  31.055  0.00  0.00     0.102 C 
ATOM     15  C   UNL d   1      59.283   0.664  29.663  0.00  0.00     0.102 C 
ATOM     16  O   UNL d   1      57.813   0.009  29.353  0.00  0.00    -0.266 OA
ENDBRANCH   1  12
BRANCH   8  17
ATOM     17  O   UNL d   1      55.997  -1.727  32.718  0.00  0.00    -0.326 OA
ATOM     18  C   UNL d   1      55.511  -1.977  33.328  0.00  0.00     0.181 C 
ENDBRANCH   8  17
TORSDOF 2
ENDMDL
MODEL 3
REMARK VINA RESULT:      -3.4      1.405      1.750
REMARK  2 active torsions:
REMARK  status: ('A' for Active; 'I' for Inactive)
REMARK    1  A    between atoms: C_4  and  C_1 
REMARK       I    between atoms: N_8  and  C_4 
REMARK    2  A    between atoms: O_12  and  C_11 
ROOT
ATOM      1  C   UNL d   1      56.776   0.110  32.291  0.00  0.00     0.120 A 
ATOM      2  C   UNL d   1      57.463   0.411  32.636  0.00  0.00     0.305 A 
ATOM      3  O   UNL d   1      58.152   0.502  32.176  0.00  0.00    -0.271 OA
ATOM      4  C   UNL d   1      56.767  -0.104  31.485  0.00  0.00     0.012 A 
ATOM      5  C   UNL d   1      58.148   0.294  31.386  0.00  0.00     0.125 A 
ATOM      6  C   UNL d   1      57.455  -0.010  31.038  0.00  0.00     0.025 A 
ATOM      7  O   UNL d   1      57.470   0.620  33.428  0.00  0.00    -0.259 OA
ATOM      8  C   UNL d   1      58.827   0.380  30.922  0.00  0.00     0.117 A 
ATOM      9  C   UNL d   1      57.450  -0.220  30.239  0.00  0.00     0.002 A 
ATOM     10  C   UNL d   1      58.135  -0.128  29.790  0.00  0.00     0.002 A 
ATOM     11  C   UNL d   1      58.820   0.171  30.130  0.00  0.00     0.026 A 
ENDROOT
BRANCH   1  12
ATOM     12  C   UNL d   1      56.098   0.021  32.743  0.00  0.00     0.270 C 
ATOM     13  N   UNL d   1      55.831  -0.725  32.947  0.00  0.00    -0.269 N 
ATOM     14  C   UNL d   1      56.248  -1.386  32.696  0.00  0.00     0.102 C 
ATOM     15  C   UNL d   1      55.154  -0.816  33.399  0.00  0.00     0.102 C 
ATOM     16  O   UNL d   1      55.681   0.682  32.995  0.00  0.00    -0.266 OA
ENDBRANCH   1  12
BRANCH   8  17
ATOM     17  O   UNL d   1      59.512   0.679  31.262  0.00  0.00    -0.326 OA
ATOM     18  C   UNL d   1      60.215   0.671  30.841  0.00  0.00     0.181 C 
ENDBRANCH   8  17
TORSDOF 2
ENDMDL
MODEL 4
REMARK VINA RESULT:      -3.1      1.188      1.812
REMARK  2 active torsions:
REMARK  status: ('A' for Active; 'I' for Inactive)
REMARK    1  A    between atoms: C_4  and  C_1 
REMARK       I    between atoms: N_8  and  C_4 
REMARK    2  A    between atoms: O_12  and  C_11 
ROOT
ATOM      1  C   UNL d   1      57.532  -0.174  30.904  0.00  0.00     0.120 A 
ATOM      2  C   UNL d   1      57.554  -0.981  30.732  0.00  0.00     0.305 A 
ATOM      3  O   UNL d   1      58.021  -1.258  30.100  0.00  0.00    -0.271 OA
ATOM      4  C   UNL d   1      57.975   0.367  30.450  0.00  0.00     0.012 A 
ATOM      5  C   UNL d   1      58.457  -0.731  29.652  0.00  0.00     0.125 A 
ATOM      6  C   UNL d   1      58.436   0.083  29.826  0.00  0.00     0.025 A 
ATOM      7  O   UNL d   1      57.118  -1.511  31.179  0.00  0.00    -0.259 OA
ATOM      8  C   UNL d   1      58.925  -0.996  29.023  0.00  0.00     0.117 A 
ATOM      9  C   UNL d   1      58.877   0.615  29.373  0.00  0.00     0.002 A 
ATOM     10  C   UNL d   1      59.337   0.336  28.750  0.00  0.00     0.002 A 
ATOM     11  C   UNL d   1      59.361  -0.466  28.576  0.00  0.00     0.026 A 
ENDROOT
BRANCH   1  12
ATOM     12  C   UNL d   1      57.072   0.098  31.525  0.00  0.00     0.270 C 
ATOM     13  N   UNL d   1      57.422   0.410  32.196  0.00  0.00    -0.269 N 
ATOM     14  C   UNL d   1      58.241   0.449  32.242  0.00  0.00     0.102 C 
ATOM     15  C   UNL d   1      56.963   0.682  32.817  0.00  0.00     0.102 C 
ATOM     16  O   UNL d   1      56.253   0.059  31.479  0.00  0.00    -0.266 OA
ENDBRANCH   1  12
BRANCH   8  17
ATOM     17  O   UNL d   1      58.949  -1.798  28.848  0.00  0.00    -0.326 OA
ATOM     18  C   UNL d   1      59.595  -2.113  28.455  0.00  0.00     0.181 C 
ENDBRANCH   8  17
TORSDOF 2
ENDMDL
MODEL 5
REMARK VINA RESULT:      -3.1      1.465      3.837
REMARK  2 active torsions:
REMARK  status: ('A' for Active; 'I' for Inactive)
REMARK    1  A    between atoms: C_4  and  C_1 
REMARK       I    between atoms: N_8  and  C_4 
REMARK    2  A    between atoms: O_12  and  C_11 
ROOT
ATOM      1  C   UNL d   1      56.860   0.176  32.324  0.00  0.00     0.120 A 
ATOM      2  C   UNL d   1      57.353   0.301  32.973  0.00  0.00     0.305 A 
ATOM      3  O   UNL d   1      57.021   0.429  33.727  0.00  0.00    -0.271 OA
ATOM      4  C   UNL d   1      56.031   0.177  32.415  0.00  0.00     0.012 A 
ATOM      5  C   UNL d   1      56.209   0.431  33.822  0.00  0.00     0.125 A 
ATOM      6  C   UNL d   1      55.712   0.305  33.166  0.00  0.00     0.025 A 
ATOM      7  O   UNL d   1      58.167   0.300  32.882  0.00  0.00    -0.259 OA
ATOM      8  C   UNL d   1      55.870   0.557  34.566  0.00  0.00     0.117 A 
ATOM      9  C   UNL d   1      54.891   0.307  33.262  0.00  0.00     0.002 A 
ATOM     10  C   UNL d   1      54.569   0.434  34.009  0.00  0.00     0.002 A 
ATOM     11  C   UNL d   1      55.056   0.558  34.658  0.00  0.00     0.026 A 
ENDROOT
BRANCH   1  12
ATOM     12  C   UNL d   1      57.187   0.050  31.583  0.00  0.00     0.270 C 
ATOM     13  N   UNL d   1      57.167  -0.693  31.241  0.00  0.00    -0.269 N 
ATOM     14  C   UNL d   1      56.816  -1.314  31.647  0.00  0.00     0.102 C 
ATOM     15  C   UNL d   1      57.493  -0.820  30.500  0.00  0.00     0.102 C 
ATOM     16  O   UNL d   1      57.538   0.671  31.177  0.00  0.00    -0.266 OA
ENDBRANCH   1  12
BRANCH   8  17
ATOM     17  O   UNL d   1      56.357   0.682  35.215  0.00  0.00    -0.326 OA
ATOM     18  C   UNL d   1      56.074   0.546  35.972  0.00  0.00     0.181 C 
ENDBRANCH   8  17
TORSDOF 2
ENDMDL
MODEL 6
REMARK VINA RESULT:      -2.6      3.106      4.768
REMARK  2 active torsions:
REMARK  status: ('A' for Active; 'I' for Inactive)
REMARK    1  A    between atoms: C_4  and  C_1 
REMARK       I    between atoms: N_8  and  C_4 
REMARK    2  A    between atoms: O_12  and  C_11 
ROOT
ATOM      1  C   UNL d   1      59.630  -2.376  28.958  0.00  0.00     0.120 A 
ATOM      2  C   UNL d   1      58.900  -2.289  29.332  0.00  0.00     0.305 A 
ATOM      3  O   UNL d   1      58.574  -1.528  29.433  0.00  0.00    -0.271 OA
ATOM      4  C   UNL d   1      60.044  -1.708  28.679  0.00  0.00     0.012 A 
ATOM      5  C   UNL d   1      58.977  -0.871  29.162  0.00  0.00     0.125 A 
ATOM      6  C   UNL d   1      59.714  -0.959  28.784  0.00  0.00     0.025 A 
ATOM      7  O   UNL d   1      58.494  -2.946  29.605  0.00  0.00    -0.259 OA
ATOM      8  C   UNL d   1      58.662  -0.112  29.258  0.00  0.00     0.117 A 
ATOM      9  C   UNL d   1      60.121  -0.295  28.510  0.00  0.00     0.002 A 
ATOM     10  C   UNL d   1      59.794   0.454  28.613  0.00  0.00     0.002 A 
ATOM     11  C   UNL d   1      59.068   0.545  28.985  0.00  0.00     0.026 A 
ENDROOT
BRANCH   1  12
ATOM     12  C   UNL d   1      59.950  -3.124  28.858  0.00  0.00     0.270 C 
ATOM     13  N   UNL d   1      60.690  -3.302  29.159  0.00  0.00    -0.269 N 
ATOM     14  C   UNL d   1      61.111  -2.724  29.562  0.00  0.00     0.102 C 
ATOM     15  C   UNL d   1      61.011  -4.049  29.060  0.00  0.00     0.102 C 
ATOM     16  O   UNL d   1      59.529  -3.702  28.455  0.00  0.00    -0.266 OA
ENDBRANCH   1  12
BRANCH   8  17
ATOM     17  O   UNL d   1      57.936  -0.021  29.630  0.00  0.00    -0.326 OA
ATOM     18  C   UNL d   1      57.755   0.682  30.010  0.00  0.00     0.181 C 
ENDBRANCH   8  17
TORSDOF 2
ENDMDL
