MODEL 1
REMARK VINA RESULT:      -3.3      0.000      0.000
REMARK  1 active torsions:
REMARK  status: ('A' for Active; 'I' for Inactive)
REMARK    1  A    between atoms: C_12  and  N_4 
ROOT
ATOM      1  C   UNL d   1      30.636  16.561 -23.865  0.00  0.00     0.081 A 
ATOM      2  C   UNL d   1      31.021  15.959 -23.465  0.00  0.00     0.118 A 
ATOM      3  C   UNL d   1      31.088  17.168 -24.229  0.00  0.00     0.268 A 
ATOM      4  N   UNL d   1      31.909  17.157 -24.184  0.00  0.00    -0.249 N 
ATOM      5  N   UNL d   1      31.840  15.928 -23.407  0.00  0.00    -0.212 NA
ATOM      6  C   UNL d   1      32.292  16.535 -23.771  0.00  0.00     0.209 A 
ATOM      7  S   UNL d   1      30.408  15.453 -23.172  0.00  0.00    -0.068 SA
ATOM      8  C   UNL d   1      29.823  16.431 -23.820  0.00  0.00     0.013 A 
ATOM      9  C   UNL d   1      29.711  15.727 -23.378  0.00  0.00     0.031 A 
ATOM     10  S   UNL d   1      33.125  16.490 -23.704  0.00  0.00    -0.038 SA
ATOM     11  O   UNL d   1      30.712  17.803 -24.649  0.00  0.00    -0.267 OA
ATOM     12  C   UNL d   1      29.176  16.847 -24.114  0.00  0.00     0.001 A 
ATOM     13  C   UNL d   1      28.937  15.453 -23.241  0.00  0.00     0.006 A 
ATOM     14  C   UNL d   1      28.417  16.572 -23.975  0.00  0.00     0.000 A 
ATOM     15  C   UNL d   1      28.294  15.882 -23.542  0.00  0.00     0.001 A 
ENDROOT
BRANCH   4  16
ATOM     16  C   UNL d   1      32.346  17.765 -24.549  0.00  0.00     0.085 C 
ATOM     17  C   UNL d   1      32.579  18.424 -24.120  0.00  0.00     0.021 C 
ENDBRANCH   4  16
TORSDOF 1
ENDMDL
MODEL 2
REMARK VINA RESULT:      -3.3      1.181      1.573
REMARK  1 active torsions:
REMARK  status: ('A' for Active; 'I' for Inactive)
REMARK    1  A    between atoms: C_12  and  N_4 
ROOT
ATOM      1  C   UNL d   1      30.566  16.738 -24.052  0.00  0.00     0.081 A 
ATOM      2  C   UNL d   1      30.365  17.291 -24.621  0.00  0.00     0.118 A 
ATOM      3  C   UNL d   1      31.368  16.664 -23.814  0.00  0.00     0.268 A 
ATOM      4  N   UNL d   1      31.946  17.144 -24.150  0.00  0.00    -0.249 N 
ATOM      5  N   UNL d   1      30.925  17.781 -24.971  0.00  0.00    -0.212 NA
ATOM      6  C   UNL d   1      31.727  17.708 -24.733  0.00  0.00     0.209 A 
ATOM      7  S   UNL d   1      29.527  17.217 -24.725  0.00  0.00    -0.068 SA
ATOM      8  C   UNL d   1      29.883  16.341 -23.816  0.00  0.00     0.013 A 
ATOM      9  C   UNL d   1      29.246  16.664 -24.257  0.00  0.00     0.031 A 
ATOM     10  S   UNL d   1      32.286  18.213 -25.097  0.00  0.00    -0.038 SA
ATOM     11  O   UNL d   1      31.601  16.098 -23.226  0.00  0.00    -0.267 OA
ATOM     12  C   UNL d   1      29.749  15.738 -23.270  0.00  0.00     0.001 A 
ATOM     13  C   UNL d   1      28.477  16.368 -24.136  0.00  0.00     0.006 A 
ATOM     14  C   UNL d   1      28.990  15.453 -23.157  0.00  0.00     0.000 A 
ATOM     15  C   UNL d   1      28.357  15.761 -23.583  0.00  0.00     0.001 A 
ENDROOT
BRANCH   4  16
ATOM     16  C   UNL d   1      32.738  17.062 -23.906  0.00  0.00     0.085 C 
ATOM     17  C   UNL d   1      33.039  17.537 -23.310  0.00  0.00     0.021 C 
ENDBRANCH   4  16
TORSDOF 1
ENDMDL
MODEL 3
REMARK VINA RESULT:      -2.7      4.354      5.606
REMARK  1 active torsions:
REMARK  status: ('A' for Active; 'I' for Inactive)
REMARK    1  A    between atoms: C_12  and  N_4 
ROOT
ATOM      1  C   UNL d   1      33.239  20.759 -22.058  0.00  0.00     0.081 A 
ATOM      2  C   UNL d   1      33.239  20.465 -21.294  0.00  0.00     0.118 A 
ATOM      3  C   UNL d   1      33.239  21.590 -22.180  0.00  0.00     0.268 A 
ATOM      4  N   UNL d   1      33.239  22.103 -21.537  0.00  0.00    -0.249 N 
ATOM      5  N   UNL d   1      33.238  20.959 -20.636  0.00  0.00    -0.212 NA
ATOM      6  C   UNL d   1      33.238  21.790 -20.759  0.00  0.00     0.209 A 
ATOM      7  S   UNL d   1      33.239  19.622 -21.374  0.00  0.00    -0.068 SA
ATOM      8  C   UNL d   1      33.240  20.124 -22.585  0.00  0.00     0.013 A 
ATOM      9  C   UNL d   1      33.239  19.423 -22.125  0.00  0.00     0.031 A 
ATOM     10  S   UNL d   1      33.238  22.281 -20.081  0.00  0.00    -0.038 SA
ATOM     11  O   UNL d   1      33.240  21.918 -22.963  0.00  0.00    -0.267 OA
ATOM     12  C   UNL d   1      33.240  20.084 -23.408  0.00  0.00     0.001 A 
ATOM     13  C   UNL d   1      33.239  18.685 -22.510  0.00  0.00     0.006 A 
ATOM     14  C   UNL d   1      33.240  19.355 -23.780  0.00  0.00     0.000 A 
ATOM     15  C   UNL d   1      33.240  18.659 -23.339  0.00  0.00     0.001 A 
ENDROOT
BRANCH   4  16
ATOM     16  C   UNL d   1      33.239  22.925 -21.672  0.00  0.00     0.085 C 
ATOM     17  C   UNL d   1      32.542  23.353 -21.623  0.00  0.00     0.021 C 
ENDBRANCH   4  16
TORSDOF 1
ENDMDL
MODEL 4
REMARK VINA RESULT:      -2.5      3.804      4.854
REMARK  1 active torsions:
REMARK  status: ('A' for Active; 'I' for Inactive)
REMARK    1  A    between atoms: C_12  and  N_4 
ROOT
ATOM      1  C   UNL d   1      33.238  19.667 -22.679  0.00  0.00     0.081 A 
ATOM      2  C   UNL d   1      33.240  20.185 -23.312  0.00  0.00     0.118 A 
ATOM      3  C   UNL d   1      33.237  19.972 -21.896  0.00  0.00     0.268 A 
ATOM      4  N   UNL d   1      33.238  20.785 -21.769  0.00  0.00    -0.249 N 
ATOM      5  N   UNL d   1      33.241  21.001 -23.209  0.00  0.00    -0.212 NA
ATOM      6  C   UNL d   1      33.240  21.306 -22.426  0.00  0.00     0.209 A 
ATOM      7  S   UNL d   1      33.241  19.698 -24.005  0.00  0.00    -0.068 SA
ATOM      8  C   UNL d   1      33.238  18.894 -22.969  0.00  0.00     0.013 A 
ATOM      9  C   UNL d   1      33.240  18.947 -23.806  0.00  0.00     0.031 A 
ATOM     10  S   UNL d   1      33.241  22.138 -22.336  0.00  0.00    -0.038 SA
ATOM     11  O   UNL d   1      33.235  19.454 -21.223  0.00  0.00    -0.267 OA
ATOM     12  C   UNL d   1      33.236  18.160 -22.596  0.00  0.00     0.001 A 
ATOM     13  C   UNL d   1      33.240  18.246 -24.256  0.00  0.00     0.006 A 
ATOM     14  C   UNL d   1      33.236  17.475 -23.045  0.00  0.00     0.000 A 
ATOM     15  C   UNL d   1      33.238  17.513 -23.868  0.00  0.00     0.001 A 
ENDROOT
BRANCH   4  16
ATOM     16  C   UNL d   1      33.237  21.075 -20.988  0.00  0.00     0.085 C 
ATOM     17  C   UNL d   1      32.554  21.395 -20.666  0.00  0.00     0.021 C 
ENDBRANCH   4  16
TORSDOF 1
ENDMDL
MODEL 5
REMARK VINA RESULT:      -2.3      2.741      4.781
REMARK  1 active torsions:
REMARK  status: ('A' for Active; 'I' for Inactive)
REMARK    1  A    between atoms: C_12  and  N_4 
ROOT
ATOM      1  C   UNL d   1      33.110  19.537 -22.874  0.00  0.00     0.081 A 
ATOM      2  C   UNL d   1      33.130  19.963 -23.573  0.00  0.00     0.118 A 
ATOM      3  C   UNL d   1      33.057  18.699 -22.903  0.00  0.00     0.268 A 
ATOM      4  N   UNL d   1      33.025  18.311 -23.628  0.00  0.00    -0.249 N 
ATOM      5  N   UNL d   1      33.100  19.596 -24.309  0.00  0.00    -0.212 NA
ATOM      6  C   UNL d   1      33.047  18.758 -24.338  0.00  0.00     0.209 A 
ATOM      7  S   UNL d   1      33.184  20.776 -23.343  0.00  0.00    -0.068 SA
ATOM      8  C   UNL d   1      33.149  20.065 -22.242  0.00  0.00     0.013 A 
ATOM      9  C   UNL d   1      33.195  20.836 -22.569  0.00  0.00     0.031 A 
ATOM     10  S   UNL d   1      33.017  18.398 -25.093  0.00  0.00    -0.038 SA
ATOM     11  O   UNL d   1      33.034  18.236 -22.192  0.00  0.00    -0.267 OA
ATOM     12  C   UNL d   1      33.150  19.956 -21.425  0.00  0.00     0.001 A 
ATOM     13  C   UNL d   1      33.241  21.491 -22.057  0.00  0.00     0.006 A 
ATOM     14  C   UNL d   1      33.196  20.605 -20.928  0.00  0.00     0.000 A 
ATOM     15  C   UNL d   1      33.241  21.368 -21.237  0.00  0.00     0.001 A 
ENDROOT
BRANCH   4  16
ATOM     16  C   UNL d   1      32.973  17.479 -23.643  0.00  0.00     0.085 C 
ATOM     17  C   UNL d   1      32.241  17.111 -23.670  0.00  0.00     0.021 C 
ENDBRANCH   4  16
TORSDOF 1
ENDMDL
MODEL 6
REMARK VINA RESULT:      -1.3      5.667      6.706
REMARK  1 active torsions:
REMARK  status: ('A' for Active; 'I' for Inactive)
REMARK    1  A    between atoms: C_12  and  N_4 
ROOT
ATOM      1  C   UNL d   1      32.946  22.257 -21.675  0.00  0.00     0.081 A 
ATOM      2  C   UNL d   1      32.958  21.441 -21.610  0.00  0.00     0.118 A 
ATOM      3  C   UNL d   1      33.034  22.611 -22.432  0.00  0.00     0.268 A 
ATOM      4  N   UNL d   1      33.132  22.142 -23.100  0.00  0.00    -0.249 N 
ATOM      5  N   UNL d   1      33.055  20.952 -22.264  0.00  0.00    -0.212 NA
ATOM      6  C   UNL d   1      33.143  21.307 -23.020  0.00  0.00     0.209 A 
ATOM      7  S   UNL d   1      32.856  21.277 -20.785  0.00  0.00    -0.068 SA
ATOM      8  C   UNL d   1      32.841  22.581 -20.924  0.00  0.00     0.013 A 
ATOM      9  C   UNL d   1      32.787  21.939 -20.386  0.00  0.00     0.031 A 
ATOM     10  S   UNL d   1      33.241  20.797 -23.677  0.00  0.00    -0.038 SA
ATOM     11  O   UNL d   1      33.025  23.455 -22.524  0.00  0.00    -0.267 OA
ATOM     12  C   UNL d   1      32.786  23.358 -20.655  0.00  0.00     0.001 A 
ATOM     13  C   UNL d   1      32.679  22.098 -19.576  0.00  0.00     0.006 A 
ATOM     14  C   UNL d   1      32.680  23.506 -19.857  0.00  0.00     0.000 A 
ATOM     15  C   UNL d   1      32.626  22.885 -19.319  0.00  0.00     0.001 A 
ENDROOT
BRANCH   4  16
ATOM     16  C   UNL d   1      33.219  22.505 -23.845  0.00  0.00     0.085 C 
ATOM     17  C   UNL d   1      32.560  22.741 -24.270  0.00  0.00     0.021 C 
ENDBRANCH   4  16
TORSDOF 1
ENDMDL
MODEL 7
REMARK VINA RESULT:      -1.2      0.930      3.113
REMARK  1 active torsions:
REMARK  status: ('A' for Active; 'I' for Inactive)
REMARK    1  A    between atoms: C_12  and  N_4 
ROOT
ATOM      1  C   UNL d   1      31.039  17.019 -24.174  0.00  0.00     0.081 A 
ATOM      2  C   UNL d   1      31.288  16.439 -23.651  0.00  0.00     0.118 A 
ATOM      3  C   UNL d   1      30.222  17.089 -24.353  0.00  0.00     0.268 A 
ATOM      4  N   UNL d   1      29.676  16.579 -24.007  0.00  0.00    -0.249 N 
ATOM      5  N   UNL d   1      30.761  15.919 -23.294  0.00  0.00    -0.212 NA
ATOM      6  C   UNL d   1      29.943  15.989 -23.474  0.00  0.00     0.209 A 
ATOM      7  S   UNL d   1      32.128  16.525 -23.599  0.00  0.00    -0.068 SA
ATOM      8  C   UNL d   1      31.698  17.443 -24.431  0.00  0.00     0.013 A 
ATOM      9  C   UNL d   1      32.368  17.109 -24.052  0.00  0.00     0.031 A 
ATOM     10  S   UNL d   1      29.418  15.452 -23.103  0.00  0.00    -0.038 SA
ATOM     11  O   UNL d   1      29.940  17.682 -24.891  0.00  0.00    -0.267 OA
ATOM     12  C   UNL d   1      31.784  18.077 -24.949  0.00  0.00     0.001 A 
ATOM     13  C   UNL d   1      33.122  17.427 -24.207  0.00  0.00     0.006 A 
ATOM     14  C   UNL d   1      32.529  18.385 -25.096  0.00  0.00     0.000 A 
ATOM     15  C   UNL d   1      33.194  18.066 -24.731  0.00  0.00     0.001 A 
ENDROOT
BRANCH   4  16
ATOM     16  C   UNL d   1      28.868  16.658 -24.194  0.00  0.00     0.085 C 
ATOM     17  C   UNL d   1      28.364  17.062 -23.689  0.00  0.00     0.021 C 
ENDBRANCH   4  16
TORSDOF 1
ENDMDL
MODEL 8
REMARK VINA RESULT:      -1.1      4.436      5.650
REMARK  1 active torsions:
REMARK  status: ('A' for Active; 'I' for Inactive)
REMARK    1  A    between atoms: C_12  and  N_4 
ROOT
ATOM      1  C   UNL d   1      33.002  21.092 -22.215  0.00  0.00     0.081 A 
ATOM      2  C   UNL d   1      32.996  20.332 -21.909  0.00  0.00     0.118 A 
ATOM      3  C   UNL d   1      33.084  21.202 -23.044  0.00  0.00     0.268 A 
ATOM      4  N   UNL d   1      33.157  20.552 -23.543  0.00  0.00    -0.249 N 
ATOM      5  N   UNL d   1      33.068  19.669 -22.389  0.00  0.00    -0.212 NA
ATOM      6  C   UNL d   1      33.150  19.779 -23.218  0.00  0.00     0.209 A 
ATOM      7  S   UNL d   1      32.907  20.424 -21.072  0.00  0.00    -0.068 SA
ATOM      8  C   UNL d   1      32.920  21.628 -21.593  0.00  0.00     0.013 A 
ATOM      9  C   UNL d   1      32.862  21.178 -20.888  0.00  0.00     0.031 A 
ATOM     10  S   UNL d   1      33.222  19.094 -23.694  0.00  0.00    -0.038 SA
ATOM     11  O   UNL d   1      33.093  21.980 -23.384  0.00  0.00    -0.267 OA
ATOM     12  C   UNL d   1      32.889  22.451 -21.568  0.00  0.00     0.001 A 
ATOM     13  C   UNL d   1      32.773  21.573 -20.161  0.00  0.00     0.006 A 
ATOM     14  C   UNL d   1      32.802  22.833 -20.849  0.00  0.00     0.000 A 
ATOM     15  C   UNL d   1      32.744  22.402 -20.149  0.00  0.00     0.001 A 
ENDROOT
BRANCH   4  16
ATOM     16  C   UNL d   1      33.238  20.675 -24.363  0.00  0.00     0.085 C 
ATOM     17  C   UNL d   1      32.579  20.829 -24.826  0.00  0.00     0.021 C 
ENDBRANCH   4  16
TORSDOF 1
ENDMDL
MODEL 9
REMARK VINA RESULT:      -0.7      5.779      6.524
REMARK  1 active torsions:
REMARK  status: ('A' for Active; 'I' for Inactive)
REMARK    1  A    between atoms: C_12  and  N_4 
ROOT
ATOM      1  C   UNL d   1      33.118  21.827 -22.640  0.00  0.00     0.081 A 
ATOM      2  C   UNL d   1      33.036  22.619 -22.451  0.00  0.00     0.118 A 
ATOM      3  C   UNL d   1      33.156  21.258 -22.023  0.00  0.00     0.268 A 
ATOM      4  N   UNL d   1      33.109  21.496 -21.237  0.00  0.00    -0.249 N 
ATOM      5  N   UNL d   1      32.988  22.880 -21.673  0.00  0.00    -0.212 NA
ATOM      6  C   UNL d   1      33.025  22.311 -21.056  0.00  0.00     0.209 A 
ATOM      7  S   UNL d   1      33.017  23.029 -23.192  0.00  0.00    -0.068 SA
ATOM      8  C   UNL d   1      33.149  21.752 -23.461  0.00  0.00     0.013 A 
ATOM      9  C   UNL d   1      33.084  22.525 -23.780  0.00  0.00     0.031 A 
ATOM     10  S   UNL d   1      32.975  22.591 -20.269  0.00  0.00    -0.038 SA
ATOM     11  O   UNL d   1      33.241  20.431 -22.194  0.00  0.00    -0.267 OA
ATOM     12  C   UNL d   1      33.227  21.100 -23.958  0.00  0.00     0.001 A 
ATOM     13  C   UNL d   1      33.098  22.625 -24.606  0.00  0.00     0.006 A 
ATOM     14  C   UNL d   1      33.241  21.206 -24.770  0.00  0.00     0.000 A 
ATOM     15  C   UNL d   1      33.177  21.960 -25.095  0.00  0.00     0.001 A 
ENDROOT
BRANCH   4  16
ATOM     16  C   UNL d   1      33.148  20.922 -20.634  0.00  0.00     0.085 C 
ATOM     17  C   UNL d   1      32.475  20.719 -20.212  0.00  0.00     0.021 C 
ENDBRANCH   4  16
TORSDOF 1
ENDMDL
