MODEL 1
REMARK VINA RESULT:     105.5      0.000      0.000
REMARK  6 active torsions:
REMARK  status: ('A' for Active; 'I' for Inactive)
REMARK    1  A    between atoms: N_7  and  C_1 
REMARK    2  A    between atoms: C_6  and  C_4 
REMARK    3  A    between atoms: C_19  and  N_9 
REMARK    4  A    between atoms: C_21  and  C_13 
REMARK    5  A    between atoms: O_20  and  C_21 
REMARK    6  A    between atoms: C_22  and  O_20 
ROOT
ATOM      1  C   UNL d   1     -55.383-101.192 -41.686  0.00  0.00     0.198 A 
ATOM      2  C   UNL d   1     -55.129-100.713 -41.017  0.00  0.00     0.191 A 
ATOM      3  O   UNL d   1     -55.522-101.956 -41.388  0.00  0.00    -0.268 OA
ATOM      4  C   UNL d   1     -55.364-101.945 -40.598  0.00  0.00     0.208 A 
ATOM      5  N   UNL d   1     -55.133-101.217 -40.372  0.00  0.00    -0.206 NA
ATOM      6  C   UNL d   1     -54.930 -99.914 -41.058  0.00  0.00     0.124 C 
ATOM      7  N   UNL d   1     -54.724 -99.106 -41.067  0.00  0.00    -0.190 NA
ENDROOT
BRANCH   1   8
ATOM      8  N   UNL d   1     -55.441-100.857 -42.426  0.00  0.00    -0.280 N 
ATOM      9  C   UNL d   1     -54.823-100.895 -42.965  0.00  0.00     0.101 A 
ATOM     10  C   UNL d   1     -54.881-100.560 -43.703  0.00  0.00     0.100 A 
ATOM     11  N   UNL d   1     -55.582-100.173 -43.912  0.00  0.00    -0.301 N 
ATOM     12  C   UNL d   1     -56.220-100.124 -43.378  0.00  0.00     0.100 A 
ATOM     13  C   UNL d   1     -56.142-100.469 -42.634  0.00  0.00     0.101 A 
BRANCH  11  14
ATOM     14  C   UNL d   1     -55.660 -99.828 -44.656  0.00  0.00     0.064 A 
ATOM     15  C   UNL d   1     -56.374 -99.459 -44.896  0.00  0.00     0.018 A 
ATOM     16  C   UNL d   1     -56.452 -99.114 -45.639  0.00  0.00     0.002 A 
ATOM     17  C   UNL d   1     -55.808 -99.133 -46.161  0.00  0.00     0.000 A 
ATOM     18  C   UNL d   1     -55.100 -99.492 -45.939  0.00  0.00     0.002 A 
ATOM     19  C   UNL d   1     -55.016 -99.847 -45.178  0.00  0.00     0.018 A 
ENDBRANCH  11  14
ENDBRANCH   1   8
BRANCH   4  20
ATOM     20  C   UNL d   1     -55.283-102.211 -39.830  0.00  0.00     0.141 A 
ATOM     21  O   UNL d   1     -55.158-102.826 -39.267  0.00  0.00    -0.301 OA
ATOM     22  C   UNL d   1     -55.171-102.492 -38.511  0.00  0.00     0.125 A 
ATOM     23  C   UNL d   1     -55.297-101.701 -38.569  0.00  0.00     0.029 A 
ATOM     24  C   UNL d   1     -55.365-101.542 -39.399  0.00  0.00     0.030 A 
BRANCH  22  25
ATOM     25  C   UNL d   1     -55.073-102.874 -37.786  0.00  0.00     0.147 C 
BRANCH  25  26
ATOM     26  O   UNL d   1     -54.720-102.500 -37.137  0.00  0.00    -0.303 OA
BRANCH  26  27
ATOM     27  C   UNL d   1     -55.155-102.159 -36.538  0.00  0.00     0.100 A 
ATOM     28  C   UNL d   1     -55.094-101.367 -36.334  0.00  0.00     0.025 A 
ATOM     29  C   UNL d   1     -55.540-101.042 -35.728  0.00  0.00     0.002 A 
ATOM     30  C   UNL d   1     -55.490-100.241 -35.509  0.00  0.00     0.000 C 
ATOM     31  C   UNL d   1     -56.060-101.522 -35.317  0.00  0.00     0.000 A 
ATOM     32  C   UNL d   1     -56.134-102.343 -35.516  0.00  0.00     0.002 A 
ATOM     33  C   UNL d   1     -55.686-102.656 -36.120  0.00  0.00     0.025 A 
ENDBRANCH  26  27
ENDBRANCH  25  26
ENDBRANCH  22  25
ENDBRANCH   4  20
TORSDOF 6
ENDMDL
