MODEL 1
REMARK VINA RESULT:      -5.3      0.000      0.000
REMARK  3 active torsions:
REMARK  status: ('A' for Active; 'I' for Inactive)
REMARK    1  A    between atoms: C_6  and  C_2 
REMARK    2  A    between atoms: C_8  and  C_3 
REMARK    3  A    between atoms: C_7  and  C_6 
ROOT
ATOM      1  N   UNL d   1      57.451  -0.199  30.613  0.00  0.00    -0.238 NA
ATOM      2  C   UNL d   1      58.103   0.094  30.207  0.00  0.00     0.113 A 
ATOM      3  C   UNL d   1      57.415   0.157  31.381  0.00  0.00     0.088 A 
ATOM      4  S   UNL d   1      58.477   0.631  30.713  0.00  0.00    -0.066 SA
ATOM      5  C   UNL d   1      58.082   0.682  31.416  0.00  0.00     0.056 A 
ENDROOT
BRANCH   3   6
ATOM      6  C   UNL d   1      56.831  -0.017  31.922  0.00  0.00     0.018 A 
ATOM      7  C   UNL d   1      56.650  -0.779  32.133  0.00  0.00     0.002 A 
ATOM      8  C   UNL d   1      56.067  -0.952  32.674  0.00  0.00     0.011 A 
ATOM      9  C   UNL d   1      55.639  -0.319  33.025  0.00  0.00     0.058 A 
ATOM     10  C   UNL d   1      55.813   0.457  32.819  0.00  0.00     0.011 A 
ATOM     11 CL   UNL d   1      55.041  -0.464  33.577  0.00  0.00    -0.082 Cl
ATOM     12  C   UNL d   1      56.409   0.620  32.268  0.00  0.00     0.002 A 
ENDBRANCH   3   6
BRANCH   2  13
ATOM     13  C   UNL d   1      58.350  -0.099  29.444  0.00  0.00     0.058 C 
BRANCH  13  14
ATOM     14  C   UNL d   1      58.967  -0.623  29.330  0.00  0.00     0.159 C 
ATOM     15  S   UNL d   1      59.801  -0.407  29.272  0.00  0.00    -0.055 SA
ATOM     16  N   UNL d   1      58.750  -1.357  29.274  0.00  0.00    -0.136 N 
ENDBRANCH  13  14
ENDBRANCH   2  13
TORSDOF 3
ENDMDL
MODEL 2
REMARK VINA RESULT:      -3.9      1.058      1.521
REMARK  3 active torsions:
REMARK  status: ('A' for Active; 'I' for Inactive)
REMARK    1  A    between atoms: C_6  and  C_2 
REMARK    2  A    between atoms: C_8  and  C_3 
REMARK    3  A    between atoms: C_7  and  C_6 
ROOT
ATOM      1  N   UNL d   1      58.081  -1.158  29.884  0.00  0.00    -0.238 NA
ATOM      2  C   UNL d   1      58.701  -1.148  29.343  0.00  0.00     0.113 A 
ATOM      3  C   UNL d   1      58.109  -0.453  30.354  0.00  0.00     0.088 A 
ATOM      4  S   UNL d   1      59.116  -0.444  29.469  0.00  0.00    -0.066 SA
ATOM      5  C   UNL d   1      58.779  -0.018  30.067  0.00  0.00     0.056 A 
ENDROOT
BRANCH   3   6
ATOM      6  C   UNL d   1      57.569  -0.294  30.944  0.00  0.00     0.018 A 
ATOM      7  C   UNL d   1      57.242  -0.879  31.400  0.00  0.00     0.002 A 
ATOM      8  C   UNL d   1      56.704  -0.720  31.989  0.00  0.00     0.011 A 
ATOM      9  C   UNL d   1      56.480   0.079  32.128  0.00  0.00     0.058 A 
ATOM     10  C   UNL d   1      56.804   0.681  31.672  0.00  0.00     0.011 A 
ATOM     11 CL   UNL d   1      55.935   0.272  32.719  0.00  0.00    -0.082 Cl
ATOM     12  C   UNL d   1      57.351   0.505  31.076  0.00  0.00     0.002 A 
ENDBRANCH   3   6
BRANCH   2  13
ATOM     13  C   UNL d   1      58.885  -1.720  28.778  0.00  0.00     0.058 C 
BRANCH  13  14
ATOM     14  C   UNL d   1      59.444  -2.295  28.939  0.00  0.00     0.159 C 
ATOM     15  S   UNL d   1      60.298  -2.197  28.857  0.00  0.00    -0.055 SA
ATOM     16  N   UNL d   1      59.149  -2.962  29.180  0.00  0.00    -0.136 N 
ENDBRANCH  13  14
ENDBRANCH   2  13
TORSDOF 3
ENDMDL
MODEL 3
REMARK VINA RESULT:      -3.6      2.239      3.821
REMARK  3 active torsions:
REMARK  status: ('A' for Active; 'I' for Inactive)
REMARK    1  A    between atoms: C_6  and  C_2 
REMARK    2  A    between atoms: C_8  and  C_3 
REMARK    3  A    between atoms: C_7  and  C_6 
ROOT
ATOM      1  N   UNL d   1      56.911  -0.144  31.402  0.00  0.00    -0.238 NA
ATOM      2  C   UNL d   1      56.653   0.139  32.130  0.00  0.00     0.113 A 
ATOM      3  C   UNL d   1      57.673   0.186  31.228  0.00  0.00     0.088 A 
ATOM      4  S   UNL d   1      57.245   0.642  32.414  0.00  0.00    -0.066 SA
ATOM      5  C   UNL d   1      57.859   0.682  31.891  0.00  0.00     0.056 A 
ENDROOT
BRANCH   3   6
ATOM      6  C   UNL d   1      58.082   0.015  30.545  0.00  0.00     0.018 A 
ATOM      7  C   UNL d   1      58.191  -0.745  30.284  0.00  0.00     0.002 A 
ATOM      8  C   UNL d   1      58.600  -0.915  29.602  0.00  0.00     0.011 A 
ATOM      9  C   UNL d   1      58.921  -0.280  29.153  0.00  0.00     0.058 A 
ATOM     10  C   UNL d   1      58.818   0.494  29.407  0.00  0.00     0.011 A 
ATOM     11 CL   UNL d   1      59.341  -0.422  28.455  0.00  0.00    -0.082 Cl
ATOM     12  C   UNL d   1      58.399   0.654  30.103  0.00  0.00     0.002 A 
ENDBRANCH   3   6
BRANCH   2  13
ATOM     13  C   UNL d   1      55.944  -0.036  32.515  0.00  0.00     0.058 C 
BRANCH  13  14
ATOM     14  C   UNL d   1      55.929  -0.577  33.128  0.00  0.00     0.159 C 
ATOM     15  S   UNL d   1      55.922  -0.379  33.968  0.00  0.00    -0.055 SA
ATOM     16  N   UNL d   1      55.922  -1.310  32.899  0.00  0.00    -0.136 N 
ENDBRANCH  13  14
ENDBRANCH   2  13
TORSDOF 3
ENDMDL
MODEL 4
REMARK VINA RESULT:      -2.8      2.425      4.134
REMARK  3 active torsions:
REMARK  status: ('A' for Active; 'I' for Inactive)
REMARK    1  A    between atoms: C_6  and  C_2 
REMARK    2  A    between atoms: C_8  and  C_3 
REMARK    3  A    between atoms: C_7  and  C_6 
ROOT
ATOM      1  N   UNL d   1      58.354  -0.528  30.049  0.00  0.00    -0.238 NA
ATOM      2  C   UNL d   1      58.069   0.241  29.974  0.00  0.00     0.113 A 
ATOM      3  C   UNL d   1      58.742  -0.753  29.330  0.00  0.00     0.088 A 
ATOM      4  S   UNL d   1      58.275   0.498  29.216  0.00  0.00    -0.066 SA
ATOM      5  C   UNL d   1      58.676  -0.079  28.818  0.00  0.00     0.056 A 
ENDROOT
BRANCH   3   6
ATOM      6  C   UNL d   1      59.086  -1.484  29.224  0.00  0.00     0.018 A 
ATOM      7  C   UNL d   1      58.650  -2.167  29.193  0.00  0.00     0.002 A 
ATOM      8  C   UNL d   1      58.994  -2.897  29.087  0.00  0.00     0.011 A 
ATOM      9  C   UNL d   1      59.830  -2.943  29.008  0.00  0.00     0.058 A 
ATOM     10  C   UNL d   1      60.283  -2.258  29.038  0.00  0.00     0.011 A 
ATOM     11 CL   UNL d   1      60.208  -3.670  28.899  0.00  0.00    -0.082 Cl
ATOM     12  C   UNL d   1      59.921  -1.521  29.146  0.00  0.00     0.002 A 
ENDBRANCH   3   6
BRANCH   2  13
ATOM     13  C   UNL d   1      57.656   0.681  30.537  0.00  0.00     0.058 C 
BRANCH  13  14
ATOM     14  C   UNL d   1      57.634   0.438  31.317  0.00  0.00     0.159 C 
ATOM     15  S   UNL d   1      57.004  -0.032  31.676  0.00  0.00    -0.055 SA
ATOM     16  N   UNL d   1      58.238   0.663  31.734  0.00  0.00    -0.136 N 
ENDBRANCH  13  14
ENDBRANCH   2  13
TORSDOF 3
ENDMDL
MODEL 5
REMARK VINA RESULT:      -2.8      8.726      9.367
REMARK  3 active torsions:
REMARK  status: ('A' for Active; 'I' for Inactive)
REMARK    1  A    between atoms: C_6  and  C_2 
REMARK    2  A    between atoms: C_8  and  C_3 
REMARK    3  A    between atoms: C_7  and  C_6 
ROOT
ATOM      1  N   UNL d   1      59.631  -8.598  34.524  0.00  0.00    -0.238 NA
ATOM      2  C   UNL d   1      59.327  -9.361  34.462  0.00  0.00     0.113 A 
ATOM      3  C   UNL d   1      59.601  -8.350  35.334  0.00  0.00     0.088 A 
ATOM      4  S   UNL d   1      59.107  -9.592  35.225  0.00  0.00    -0.066 SA
ATOM      5  C   UNL d   1      59.263  -9.005  35.756  0.00  0.00     0.056 A 
ENDROOT
BRANCH   3   6
ATOM      6  C   UNL d   1      59.862  -7.620  35.582  0.00  0.00     0.018 A 
ATOM      7  C   UNL d   1      60.640  -7.475  35.758  0.00  0.00     0.002 A 
ATOM      8  C   UNL d   1      60.900  -6.745  36.005  0.00  0.00     0.011 A 
ATOM      9  C   UNL d   1      60.342  -6.120  36.081  0.00  0.00     0.058 A 
ATOM     10  C   UNL d   1      59.551  -6.254  35.905  0.00  0.00     0.011 A 
ATOM     11 CL   UNL d   1      60.577  -5.367  36.330  0.00  0.00    -0.082 Cl
ATOM     12  C   UNL d   1      59.299  -7.002  35.654  0.00  0.00     0.002 A 
ENDBRANCH   3   6
BRANCH   2  13
ATOM     13  C   UNL d   1      59.250  -9.818  33.779  0.00  0.00     0.058 C 
BRANCH  13  14
ATOM     14  C   UNL d   1      58.907  -9.502  33.107  0.00  0.00     0.159 C 
ATOM     15  S   UNL d   1      59.334  -9.268  32.393  0.00  0.00    -0.055 SA
ATOM     16  N   UNL d   1      58.145  -9.422  33.150  0.00  0.00    -0.136 N 
ENDBRANCH  13  14
ENDBRANCH   2  13
TORSDOF 3
ENDMDL
