MODEL 1
REMARK VINA RESULT:      -7.7      0.000      0.000
REMARK  3 active torsions:
REMARK  status: ('A' for Active; 'I' for Inactive)
REMARK    1  A    between atoms: S_11  and  C_1 
REMARK    2  A    between atoms: C_7  and  C_13 
REMARK    3  A    between atoms: C_13  and  S_11 
ROOT
ATOM      1  C   UNL d   1      52.843  32.657  53.453  0.00  0.00     0.141 A 
ATOM      2  N   UNL d   1      53.259  32.967  54.094  0.00  0.00    -0.232 NA
ATOM      3  S   UNL d   1      52.477  33.273  53.062  0.00  0.00    -0.060 SA
ATOM      4  C   UNL d   1      53.150  33.784  54.101  0.00  0.00     0.088 A 
ATOM      5  C   UNL d   1      52.658  33.979  53.453  0.00  0.00     0.049 A 
ATOM      6  C   UNL d   1      53.424  34.381  54.599  0.00  0.00     0.020 A 
ATOM      7  C   UNL d   1      52.452  34.761  53.316  0.00  0.00     0.008 A 
ATOM      8  C   UNL d   1      52.726  35.363  53.814  0.00  0.00     0.001 A 
ATOM      9  C   UNL d   1      53.215  35.171  54.460  0.00  0.00     0.002 A 
ENDROOT
BRANCH   1  10
ATOM     10  S   UNL d   1      52.806  31.857  53.247  0.00  0.00    -0.057 SA
BRANCH  10  11
ATOM     11  C   UNL d   1      53.422  31.351  53.457  0.00  0.00     0.084 C 
BRANCH  11  12
ATOM     12  C   UNL d   1      53.273  30.555  53.580  0.00  0.00     0.212 A 
ATOM     13  O   UNL d   1      53.505  30.111  54.233  0.00  0.00    -0.259 OA
ATOM     14  C   UNL d   1      53.240  29.338  54.127  0.00  0.00     0.262 A 
ATOM     15  S   UNL d   1      53.354  28.716  54.650  0.00  0.00    -0.029 SA
ATOM     16  N   UNL d   1      52.843  29.302  53.408  0.00  0.00    -0.109 NA
ATOM     17  N   UNL d   1      52.861  30.053  53.066  0.00  0.00    -0.119 NA
ENDBRANCH  11  12
ENDBRANCH  10  11
ENDBRANCH   1  10
TORSDOF 3
ENDMDL
MODEL 2
REMARK VINA RESULT:      -7.5      2.760      4.226
REMARK  3 active torsions:
REMARK  status: ('A' for Active; 'I' for Inactive)
REMARK    1  A    between atoms: S_11  and  C_1 
REMARK    2  A    between atoms: C_7  and  C_13 
REMARK    3  A    between atoms: C_13  and  S_11 
ROOT
ATOM      1  C   UNL d   1      52.343  33.957  53.449  0.00  0.00     0.141 A 
ATOM      2  N   UNL d   1      52.619  33.184  53.527  0.00  0.00    -0.232 NA
ATOM      3  S   UNL d   1      52.806  34.442  53.914  0.00  0.00    -0.060 SA
ATOM      4  C   UNL d   1      53.260  33.189  54.044  0.00  0.00     0.088 A 
ATOM      5  C   UNL d   1      53.380  33.980  54.290  0.00  0.00     0.049 A 
ATOM      6  C   UNL d   1      53.753  32.595  54.330  0.00  0.00     0.020 A 
ATOM      7  C   UNL d   1      53.986  34.160  54.812  0.00  0.00     0.008 A 
ATOM      8  C   UNL d   1      54.484  33.564  55.101  0.00  0.00     0.001 A 
ATOM      9  C   UNL d   1      54.366  32.777  54.859  0.00  0.00     0.002 A 
ENDROOT
BRANCH   1  10
ATOM     10  S   UNL d   1      51.705  34.194  52.980  0.00  0.00    -0.057 SA
BRANCH  10  11
ATOM     11  C   UNL d   1      50.935  34.009  53.210  0.00  0.00     0.084 C 
BRANCH  11  12
ATOM     12  C   UNL d   1      50.299  34.319  52.799  0.00  0.00     0.212 A 
ATOM     13  O   UNL d   1      49.705  34.798  53.109  0.00  0.00    -0.259 OA
ATOM     14  C   UNL d   1      49.179  34.982  52.502  0.00  0.00     0.262 A 
ATOM     15  S   UNL d   1      48.508  35.448  52.574  0.00  0.00    -0.029 SA
ATOM     16  N   UNL d   1      49.446  34.617  51.815  0.00  0.00    -0.109 NA
ATOM     17  N   UNL d   1      50.139  34.206  51.995  0.00  0.00    -0.119 NA
ENDBRANCH  11  12
ENDBRANCH  10  11
ENDBRANCH   1  10
TORSDOF 3
ENDMDL
MODEL 3
REMARK VINA RESULT:      -7.3      1.690      4.357
REMARK  3 active torsions:
REMARK  status: ('A' for Active; 'I' for Inactive)
REMARK    1  A    between atoms: S_11  and  C_1 
REMARK    2  A    between atoms: C_7  and  C_13 
REMARK    3  A    between atoms: C_13  and  S_11 
ROOT
ATOM      1  C   UNL d   1      53.149  32.016  53.358  0.00  0.00     0.141 A 
ATOM      2  N   UNL d   1      53.600  31.568  53.883  0.00  0.00    -0.232 NA
ATOM      3  S   UNL d   1      52.686  31.507  52.918  0.00  0.00    -0.060 SA
ATOM      4  C   UNL d   1      53.415  30.774  53.769  0.00  0.00     0.088 A 
ATOM      5  C   UNL d   1      52.840  30.732  53.161  0.00  0.00     0.049 A 
ATOM      6  C   UNL d   1      53.682  30.080  54.124  0.00  0.00     0.020 A 
ATOM      7  C   UNL d   1      52.546  30.004  52.924  0.00  0.00     0.008 A 
ATOM      8  C   UNL d   1      52.813  29.306  53.279  0.00  0.00     0.001 A 
ATOM      9  C   UNL d   1      53.384  29.344  53.883  0.00  0.00     0.002 A 
ENDROOT
BRANCH   1  10
ATOM     10  S   UNL d   1      53.167  32.840  53.292  0.00  0.00    -0.057 SA
BRANCH  10  11
ATOM     11  C   UNL d   1      52.582  33.293  53.657  0.00  0.00     0.084 C 
BRANCH  11  12
ATOM     12  C   UNL d   1      52.682  34.101  53.740  0.00  0.00     0.212 A 
ATOM     13  O   UNL d   1      52.933  34.494  54.419  0.00  0.00    -0.259 OA
ATOM     14  C   UNL d   1      52.956  35.301  54.256  0.00  0.00     0.262 A 
ATOM     15  S   UNL d   1      53.177  35.890  54.783  0.00  0.00    -0.029 SA
ATOM     16  N   UNL d   1      52.720  35.410  53.476  0.00  0.00    -0.109 NA
ATOM     17  N   UNL d   1      52.550  34.670  53.153  0.00  0.00    -0.119 NA
ENDBRANCH  11  12
ENDBRANCH  10  11
ENDBRANCH   1  10
TORSDOF 3
ENDMDL
MODEL 4
REMARK VINA RESULT:      -6.3      2.518      3.415
REMARK  3 active torsions:
REMARK  status: ('A' for Active; 'I' for Inactive)
REMARK    1  A    between atoms: S_11  and  C_1 
REMARK    2  A    between atoms: C_7  and  C_13 
REMARK    3  A    between atoms: C_13  and  S_11 
ROOT
ATOM      1  C   UNL d   1      51.631  34.096  52.922  0.00  0.00     0.141 A 
ATOM      2  N   UNL d   1      51.021  34.443  53.354  0.00  0.00    -0.232 NA
ATOM      3  S   UNL d   1      51.367  33.971  52.160  0.00  0.00    -0.060 SA
ATOM      4  C   UNL d   1      50.372  34.535  52.855  0.00  0.00     0.088 A 
ATOM      5  C   UNL d   1      50.587  34.239  52.103  0.00  0.00     0.049 A 
ATOM      6  C   UNL d   1      49.616  34.844  52.971  0.00  0.00     0.020 A 
ATOM      7  C   UNL d   1      50.047  34.257  51.485  0.00  0.00     0.008 A 
ATOM      8  C   UNL d   1      49.287  34.567  51.598  0.00  0.00     0.001 A 
ATOM      9  C   UNL d   1      49.071  34.861  52.346  0.00  0.00     0.002 A 
ENDROOT
BRANCH   1  10
ATOM     10  S   UNL d   1      52.381  33.908  53.216  0.00  0.00    -0.057 SA
BRANCH  10  11
ATOM     11  C   UNL d   1      52.455  33.573  53.966  0.00  0.00     0.084 C 
BRANCH  11  12
ATOM     12  C   UNL d   1      53.193  33.364  54.250  0.00  0.00     0.212 A 
ATOM     13  O   UNL d   1      53.706  33.845  54.679  0.00  0.00    -0.259 OA
ATOM     14  C   UNL d   1      54.385  33.411  54.850  0.00  0.00     0.262 A 
ATOM     15  S   UNL d   1      55.035  33.684  55.269  0.00  0.00    -0.029 SA
ATOM     16  N   UNL d   1      54.294  32.660  54.527  0.00  0.00    -0.109 NA
ATOM     17  N   UNL d   1      53.559  32.627  54.155  0.00  0.00    -0.119 NA
ENDBRANCH  11  12
ENDBRANCH  10  11
ENDBRANCH   1  10
TORSDOF 3
ENDMDL
MODEL 5
REMARK VINA RESULT:      -6.1      1.754      2.188
REMARK  3 active torsions:
REMARK  status: ('A' for Active; 'I' for Inactive)
REMARK    1  A    between atoms: S_11  and  C_1 
REMARK    2  A    between atoms: C_7  and  C_13 
REMARK    3  A    between atoms: C_13  and  S_11 
ROOT
ATOM      1  C   UNL d   1      51.948  33.151  52.953  0.00  0.00     0.141 A 
ATOM      2  N   UNL d   1      51.735  33.367  52.186  0.00  0.00    -0.232 NA
ATOM      3  S   UNL d   1      51.426  33.502  53.473  0.00  0.00    -0.060 SA
ATOM      4  C   UNL d   1      51.075  33.858  52.231  0.00  0.00     0.088 A 
ATOM      5  C   UNL d   1      50.878  33.945  53.040  0.00  0.00     0.049 A 
ATOM      6  C   UNL d   1      50.622  34.240  51.658  0.00  0.00     0.020 A 
ATOM      7  C   UNL d   1      50.238  34.408  53.259  0.00  0.00     0.008 A 
ATOM      8  C   UNL d   1      49.780  34.793  52.685  0.00  0.00     0.001 A 
ATOM      9  C   UNL d   1      49.974  34.709  51.881  0.00  0.00     0.002 A 
ENDROOT
BRANCH   1  10
ATOM     10  S   UNL d   1      52.583  32.661  53.154  0.00  0.00    -0.057 SA
BRANCH  10  11
ATOM     11  C   UNL d   1      52.671  31.931  52.781  0.00  0.00     0.084 C 
BRANCH  11  12
ATOM     12  C   UNL d   1      53.068  31.323  53.160  0.00  0.00     0.212 A 
ATOM     13  O   UNL d   1      52.773  30.570  53.315  0.00  0.00    -0.259 OA
ATOM     14  C   UNL d   1      53.358  30.139  53.704  0.00  0.00     0.262 A 
ATOM     15  S   UNL d   1      53.291  29.362  53.959  0.00  0.00    -0.029 SA
ATOM     16  N   UNL d   1      54.016  30.625  53.791  0.00  0.00    -0.109 NA
ATOM     17  N   UNL d   1      53.841  31.358  53.456  0.00  0.00    -0.119 NA
ENDBRANCH  11  12
ENDBRANCH  10  11
ENDBRANCH   1  10
TORSDOF 3
ENDMDL
MODEL 6
REMARK VINA RESULT:      -6.0      2.736      3.606
REMARK  3 active torsions:
REMARK  status: ('A' for Active; 'I' for Inactive)
REMARK    1  A    between atoms: S_11  and  C_1 
REMARK    2  A    between atoms: C_7  and  C_13 
REMARK    3  A    between atoms: C_13  and  S_11 
ROOT
ATOM      1  C   UNL d   1      50.877  34.195  52.568  0.00  0.00     0.141 A 
ATOM      2  N   UNL d   1      50.552  34.102  51.816  0.00  0.00    -0.232 NA
ATOM      3  S   UNL d   1      50.331  34.581  53.037  0.00  0.00    -0.060 SA
ATOM      4  C   UNL d   1      49.798  34.433  51.818  0.00  0.00     0.088 A 
ATOM      5  C   UNL d   1      49.656  34.735  52.585  0.00  0.00     0.049 A 
ATOM      6  C   UNL d   1      49.217  34.506  51.238  0.00  0.00     0.020 A 
ATOM      7  C   UNL d   1      48.942  35.101  52.756  0.00  0.00     0.008 A 
ATOM      8  C   UNL d   1      48.357  35.176  52.176  0.00  0.00     0.001 A 
ATOM      9  C   UNL d   1      48.495  34.876  51.412  0.00  0.00     0.002 A 
ENDROOT
BRANCH   1  10
ATOM     10  S   UNL d   1      51.628  33.940  52.801  0.00  0.00    -0.057 SA
BRANCH  10  11
ATOM     11  C   UNL d   1      51.726  33.178  53.101  0.00  0.00     0.084 C 
BRANCH  11  12
ATOM     12  C   UNL d   1      52.472  32.915  53.312  0.00  0.00     0.212 A 
ATOM     13  O   UNL d   1      52.870  33.086  54.012  0.00  0.00    -0.259 OA
ATOM     14  C   UNL d   1      53.601  32.708  53.993  0.00  0.00     0.262 A 
ATOM     15  S   UNL d   1      54.170  32.735  54.584  0.00  0.00    -0.029 SA
ATOM     16  N   UNL d   1      53.658  32.301  53.281  0.00  0.00    -0.109 NA
ATOM     17  N   UNL d   1      52.962  32.426  52.856  0.00  0.00    -0.119 NA
ENDBRANCH  11  12
ENDBRANCH  10  11
ENDBRANCH   1  10
TORSDOF 3
ENDMDL
MODEL 7
REMARK VINA RESULT:      -5.6     10.459     10.796
REMARK  3 active torsions:
REMARK  status: ('A' for Active; 'I' for Inactive)
REMARK    1  A    between atoms: S_11  and  C_1 
REMARK    2  A    between atoms: C_7  and  C_13 
REMARK    3  A    between atoms: C_13  and  S_11 
ROOT
ATOM      1  C   UNL d   1      44.418  29.946  60.049  0.00  0.00     0.141 A 
ATOM      2  N   UNL d   1      44.441  29.527  60.758  0.00  0.00    -0.232 NA
ATOM      3  S   UNL d   1      44.368  30.742  60.222  0.00  0.00    -0.060 SA
ATOM      4  C   UNL d   1      44.405  30.068  61.378  0.00  0.00     0.088 A 
ATOM      5  C   UNL d   1      44.359  30.834  61.043  0.00  0.00     0.049 A 
ATOM      6  C   UNL d   1      44.407  29.982  62.198  0.00  0.00     0.020 A 
ATOM      7  C   UNL d   1      44.316  31.493  61.530  0.00  0.00     0.008 A 
ATOM      8  C   UNL d   1      44.318  31.409  62.354  0.00  0.00     0.001 A 
ATOM      9  C   UNL d   1      44.363  30.649  62.690  0.00  0.00     0.002 A 
ENDROOT
BRANCH   1  10
ATOM     10  S   UNL d   1      44.442  29.611  59.293  0.00  0.00    -0.057 SA
BRANCH  10  11
ATOM     11  C   UNL d   1      45.160  29.346  58.985  0.00  0.00     0.084 C 
BRANCH  11  12
ATOM     12  C   UNL d   1      45.173  28.923  58.284  0.00  0.00     0.212 A 
ATOM     13  O   UNL d   1      45.335  28.120  58.202  0.00  0.00    -0.259 OA
ATOM     14  C   UNL d   1      45.288  27.927  57.403  0.00  0.00     0.262 A 
ATOM     15  S   UNL d   1      45.411  27.183  57.081  0.00  0.00    -0.029 SA
ATOM     16  N   UNL d   1      45.097  28.611  56.987  0.00  0.00    -0.109 NA
ATOM     17  N   UNL d   1      45.025  29.229  57.529  0.00  0.00    -0.119 NA
ENDBRANCH  11  12
ENDBRANCH  10  11
ENDBRANCH   1  10
TORSDOF 3
ENDMDL
MODEL 8
REMARK VINA RESULT:      -5.5      9.990     10.364
REMARK  3 active torsions:
REMARK  status: ('A' for Active; 'I' for Inactive)
REMARK    1  A    between atoms: S_11  and  C_1 
REMARK    2  A    between atoms: C_7  and  C_13 
REMARK    3  A    between atoms: C_13  and  S_11 
ROOT
ATOM      1  C   UNL d   1      44.871  28.994  58.794  0.00  0.00     0.141 A 
ATOM      2  N   UNL d   1      44.622  28.740  59.538  0.00  0.00    -0.232 NA
ATOM      3  S   UNL d   1      44.993  29.801  58.826  0.00  0.00    -0.060 SA
ATOM      4  C   UNL d   1      44.589  29.396  60.036  0.00  0.00     0.088 A 
ATOM      5  C   UNL d   1      44.822  30.065  59.591  0.00  0.00     0.049 A 
ATOM      6  C   UNL d   1      44.382  29.486  60.829  0.00  0.00     0.020 A 
ATOM      7  C   UNL d   1      44.843  30.805  59.943  0.00  0.00     0.008 A 
ATOM      8  C   UNL d   1      44.635  30.899  60.739  0.00  0.00     0.001 A 
ATOM      9  C   UNL d   1      44.404  30.235  61.184  0.00  0.00     0.002 A 
ENDROOT
BRANCH   1  10
ATOM     10  S   UNL d   1      44.978  28.510  58.132  0.00  0.00    -0.057 SA
BRANCH  10  11
ATOM     11  C   UNL d   1      45.180  27.717  58.233  0.00  0.00     0.084 C 
BRANCH  11  12
ATOM     12  C   UNL d   1      45.200  27.215  57.588  0.00  0.00     0.212 A 
ATOM     13  O   UNL d   1      44.690  26.585  57.443  0.00  0.00    -0.259 OA
ATOM     14  C   UNL d   1      44.911  26.231  56.732  0.00  0.00     0.262 A 
ATOM     15  S   UNL d   1      44.546  25.584  56.385  0.00  0.00    -0.029 SA
ATOM     16  N   UNL d   1      45.558  26.642  56.435  0.00  0.00    -0.109 NA
ATOM     17  N   UNL d   1      45.741  27.251  56.961  0.00  0.00    -0.119 NA
ENDBRANCH  11  12
ENDBRANCH  10  11
ENDBRANCH   1  10
TORSDOF 3
ENDMDL
MODEL 9
REMARK VINA RESULT:      -5.5     10.215     11.202
REMARK  3 active torsions:
REMARK  status: ('A' for Active; 'I' for Inactive)
REMARK    1  A    between atoms: S_11  and  C_1 
REMARK    2  A    between atoms: C_7  and  C_13 
REMARK    3  A    between atoms: C_13  and  S_11 
ROOT
ATOM      1  C   UNL d   1      44.661  28.989  59.209  0.00  0.00     0.141 A 
ATOM      2  N   UNL d   1      44.853  29.174  58.429  0.00  0.00    -0.232 NA
ATOM      3  S   UNL d   1      44.738  28.182  59.309  0.00  0.00    -0.060 SA
ATOM      4  C   UNL d   1      45.050  28.475  58.040  0.00  0.00     0.088 A 
ATOM      5  C   UNL d   1      44.979  27.849  58.591  0.00  0.00     0.049 A 
ATOM      6  C   UNL d   1      45.285  28.311  57.267  0.00  0.00     0.020 A 
ATOM      7  C   UNL d   1      45.142  27.079  58.361  0.00  0.00     0.008 A 
ATOM      8  C   UNL d   1      45.378  26.912  57.585  0.00  0.00     0.001 A 
ATOM      9  C   UNL d   1      45.450  27.532  57.035  0.00  0.00     0.002 A 
ENDROOT
BRANCH   1  10
ATOM     10  S   UNL d   1      44.431  29.532  59.788  0.00  0.00    -0.057 SA
BRANCH  10  11
ATOM     11  C   UNL d   1      44.995  30.024  60.136  0.00  0.00     0.084 C 
BRANCH  11  12
ATOM     12  C   UNL d   1      44.764  30.591  60.679  0.00  0.00     0.212 A 
ATOM     13  O   UNL d   1      44.715  30.494  61.495  0.00  0.00    -0.259 OA
ATOM     14  C   UNL d   1      44.459  31.205  61.824  0.00  0.00     0.262 A 
ATOM     15  S   UNL d   1      44.337  31.346  62.623  0.00  0.00    -0.029 SA
ATOM     16  N   UNL d   1      44.349  31.744  61.213  0.00  0.00    -0.109 NA
ATOM     17  N   UNL d   1      44.536  31.368  60.502  0.00  0.00    -0.119 NA
ENDBRANCH  11  12
ENDBRANCH  10  11
ENDBRANCH   1  10
TORSDOF 3
ENDMDL
