MODEL 1
REMARK VINA RESULT:      -5.8      0.000      0.000
REMARK  6 active torsions:
REMARK  status: ('A' for Active; 'I' for Inactive)
REMARK    1  A    between atoms: N_2  and  S_1 
REMARK    2  A    between atoms: C_16  and  S_1 
REMARK    3  A    between atoms: C_4  and  C_3 
REMARK       I    between atoms: N_6  and  C_4 
REMARK    4  A    between atoms: C_15  and  N_6 
REMARK    5  A    between atoms: C_9  and  C_15 
REMARK    6  A    between atoms: C_20  and  C_16 
ROOT
ATOM      1  N   UNL d   1     -41.969-123.126 -50.549  0.00  0.00    -0.229 N 
ATOM      2  C   UNL d   1     -41.463-122.378 -51.651  0.00  0.00     0.076 A 
ATOM      3  C   UNL d   1     -41.884-122.409 -50.951  0.00  0.00     0.096 A 
ATOM      4  C   UNL d   1     -41.633-123.809 -50.847  0.00  0.00     0.092 A 
ATOM      5  C   UNL d   1     -41.124-123.062 -51.953  0.00  0.00     0.008 A 
ATOM      6  C   UNL d   1     -41.209-123.779 -51.550  0.00  0.00     0.020 A 
ENDROOT
BRANCH   2   7
ATOM      7  C   UNL d   1     -41.373-121.665 -52.060  0.00  0.00     0.281 C 
ATOM      8  N   UNL d   1     -41.523-121.621 -52.869  0.00  0.00    -0.204 NA
ATOM      9  O   UNL d   1     -41.127-120.986 -51.644  0.00  0.00    -0.265 OA
BRANCH   8  10
ATOM     10  C   UNL d   1     -41.765-122.295 -53.276  0.00  0.00     0.127 C 
BRANCH  10  11
ATOM     11  C   UNL d   1     -42.042-122.229 -54.052  0.00  0.00     0.119 A 
ATOM     12  O   UNL d   1     -42.742-121.857 -54.284  0.00  0.00    -0.304 OA
ATOM     13  C   UNL d   1     -42.802-121.919 -55.105  0.00  0.00     0.123 A 
ATOM     14  C   UNL d   1     -42.138-122.330 -55.376  0.00  0.00     0.029 A 
ATOM     15  C   UNL d   1     -41.674-122.517 -54.721  0.00  0.00     0.028 A 
ENDBRANCH  10  11
ENDBRANCH   8  10
ENDBRANCH   2   7
BRANCH   1  16
ATOM     16  S   UNL d   1     -42.400-123.150 -49.837  0.00  0.00     0.272 S 
ATOM     17  O   UNL d   1     -41.779-122.812 -49.445  0.00  0.00    -0.200 OA
ATOM     18  O   UNL d   1     -43.033-123.498 -50.246  0.00  0.00    -0.200 OA
BRANCH  16  19
ATOM     19  C   UNL d   1     -42.822-123.171 -49.124  0.00  0.00     0.116 C 
BRANCH  19  20
ATOM     20  C   UNL d   1     -42.461-123.428 -48.425  0.00  0.00     0.014 C 
ATOM     21  C   UNL d   1     -42.908-123.494 -47.737  0.00  0.00     0.001 C 
ENDBRANCH  19  20
ENDBRANCH  16  19
ENDBRANCH   1  16
TORSDOF 6
ENDMDL
MODEL 2
REMARK VINA RESULT:      -5.4      1.244      4.434
REMARK  6 active torsions:
REMARK  status: ('A' for Active; 'I' for Inactive)
REMARK    1  A    between atoms: N_2  and  S_1 
REMARK    2  A    between atoms: C_16  and  S_1 
REMARK    3  A    between atoms: C_4  and  C_3 
REMARK       I    between atoms: N_6  and  C_4 
REMARK    4  A    between atoms: C_15  and  N_6 
REMARK    5  A    between atoms: C_9  and  C_15 
REMARK    6  A    between atoms: C_20  and  C_16 
ROOT
ATOM      1  N   UNL d   1     -41.662-122.444 -53.444  0.00  0.00    -0.229 N 
ATOM      2  C   UNL d   1     -41.413-122.317 -52.047  0.00  0.00     0.076 A 
ATOM      3  C   UNL d   1     -41.675-121.995 -52.750  0.00  0.00     0.096 A 
ATOM      4  C   UNL d   1     -41.387-123.214 -53.431  0.00  0.00     0.092 A 
ATOM      5  C   UNL d   1     -41.136-123.090 -52.031  0.00  0.00     0.008 A 
ATOM      6  C   UNL d   1     -41.123-123.539 -52.725  0.00  0.00     0.020 A 
ENDROOT
BRANCH   2   7
ATOM      7  C   UNL d   1     -41.423-121.874 -51.348  0.00  0.00     0.281 C 
ATOM      8  N   UNL d   1     -41.723-122.194 -50.650  0.00  0.00    -0.204 NA
ATOM      9  O   UNL d   1     -41.124-121.097 -51.356  0.00  0.00    -0.265 OA
BRANCH   8  10
ATOM     10  C   UNL d   1     -42.018-122.963 -50.648  0.00  0.00     0.127 C 
BRANCH  10  11
ATOM     11  C   UNL d   1     -42.468-123.228 -50.008  0.00  0.00     0.119 A 
ATOM     12  O   UNL d   1     -43.293-123.232 -49.968  0.00  0.00    -0.304 OA
ATOM     13  C   UNL d   1     -43.510-123.540 -49.233  0.00  0.00     0.123 A 
ATOM     14  C   UNL d   1     -42.817-123.725 -48.822  0.00  0.00     0.029 A 
ATOM     15  C   UNL d   1     -42.179-123.530 -49.306  0.00  0.00     0.028 A 
ENDBRANCH  10  11
ENDBRANCH   8  10
ENDBRANCH   2   7
BRANCH   1  16
ATOM     16  S   UNL d   1     -41.931-122.110 -54.157  0.00  0.00     0.272 S 
ATOM     17  O   UNL d   1     -42.694-122.153 -53.895  0.00  0.00    -0.200 OA
ATOM     18  O   UNL d   1     -41.145-122.069 -54.420  0.00  0.00    -0.200 OA
BRANCH  16  19
ATOM     19  C   UNL d   1     -42.207-121.777 -54.864  0.00  0.00     0.116 C 
BRANCH  19  20
ATOM     20  C   UNL d   1     -42.363-122.252 -55.523  0.00  0.00     0.014 C 
ATOM     21  C   UNL d   1     -42.493-121.901 -56.257  0.00  0.00     0.001 C 
ENDBRANCH  19  20
ENDBRANCH  16  19
ENDBRANCH   1  16
TORSDOF 6
ENDMDL
