MODEL 1
REMARK VINA RESULT:      -9.5      0.000      0.000
REMARK  4 active torsions:
REMARK  status: ('A' for Active; 'I' for Inactive)
REMARK    1  A    between atoms: S_11  and  C_2 
REMARK    2  A    between atoms: C_7  and  C_3 
REMARK    3  A    between atoms: C_17  and  S_11 
REMARK    4  A    between atoms: C_13  and  C_17 
ROOT
ATOM      1  C   UNL d   1      52.784  33.642  53.539  0.00  0.00     0.092 A 
ATOM      2  C   UNL d   1      52.183  33.475  53.018  0.00  0.00     0.124 A 
ATOM      3  C   UNL d   1      53.325  33.044  53.752  0.00  0.00     0.017 A 
ATOM      4  N   UNL d   1      52.112  32.707  52.701  0.00  0.00    -0.201 NA
ATOM      5  C   UNL d   1      52.649  32.119  52.916  0.00  0.00     0.280 A 
ATOM      6  C   UNL d   1      52.857  34.406  53.855  0.00  0.00     0.103 C 
ATOM      7  N   UNL d   1      52.924  35.172  54.168  0.00  0.00    -0.191 NA
ATOM      8  C   UNL d   1      53.250  32.286  53.436  0.00  0.00     0.063 A 
ATOM      9  O   UNL d   1      52.576  31.355  52.599  0.00  0.00    -0.265 OA
ENDROOT
BRANCH   2  10
ATOM     10  S   UNL d   1      51.644  34.069  52.804  0.00  0.00    -0.067 SA
BRANCH  10  11
ATOM     11  C   UNL d   1      50.923  33.869  52.435  0.00  0.00     0.037 C 
BRANCH  11  12
ATOM     12  C   UNL d   1      50.194  34.427  52.388  0.00  0.00     0.007 C 
ATOM     13  C   UNL d   1      49.504  34.454  51.652  0.00  0.00     0.001 C 
ENDBRANCH  11  12
ENDBRANCH  10  11
ENDBRANCH   2  10
BRANCH   3  14
ATOM     14  C   UNL d   1      53.933  33.213  54.279  0.00  0.00     0.011 A 
ATOM     15  C   UNL d   1      54.700  33.242  54.015  0.00  0.00     0.058 A 
ATOM     16 CL   UNL d   1      55.073  33.099  53.097  0.00  0.00    -0.082 Cl
ATOM     17  C   UNL d   1      55.308  33.415  54.564  0.00  0.00     0.011 A 
ATOM     18  C   UNL d   1      55.128  33.554  55.357  0.00  0.00     0.001 A 
ATOM     19  C   UNL d   1      54.358  33.521  55.603  0.00  0.00     0.000 A 
ATOM     20  C   UNL d   1      53.749  33.349  55.061  0.00  0.00     0.001 A 
ENDBRANCH   3  14
TORSDOF 4
ENDMDL
MODEL 2
REMARK VINA RESULT:      -8.3      1.924      3.615
REMARK  4 active torsions:
REMARK  status: ('A' for Active; 'I' for Inactive)
REMARK    1  A    between atoms: S_11  and  C_2 
REMARK    2  A    between atoms: C_7  and  C_3 
REMARK    3  A    between atoms: C_17  and  S_11 
REMARK    4  A    between atoms: C_13  and  C_17 
ROOT
ATOM      1  C   UNL d   1      52.830  32.208  53.322  0.00  0.00     0.092 A 
ATOM      2  C   UNL d   1      53.367  31.609  53.433  0.00  0.00     0.124 A 
ATOM      3  C   UNL d   1      53.096  32.997  53.267  0.00  0.00     0.017 A 
ATOM      4  N   UNL d   1      54.180  31.787  53.491  0.00  0.00    -0.201 NA
ATOM      5  C   UNL d   1      54.438  32.569  53.436  0.00  0.00     0.280 A 
ATOM      6  C   UNL d   1      52.021  32.034  53.264  0.00  0.00     0.103 C 
ATOM      7  N   UNL d   1      51.212  31.852  53.207  0.00  0.00    -0.191 NA
ATOM      8  C   UNL d   1      53.901  33.168  53.325  0.00  0.00     0.063 A 
ATOM      9  O   UNL d   1      55.247  32.743  53.494  0.00  0.00    -0.265 OA
ENDROOT
BRANCH   2  10
ATOM     10  S   UNL d   1      53.105  30.824  53.489  0.00  0.00    -0.067 SA
BRANCH  10  11
ATOM     11  C   UNL d   1      53.602  30.236  53.809  0.00  0.00     0.037 C 
BRANCH  11  12
ATOM     12  C   UNL d   1      53.359  29.355  53.919  0.00  0.00     0.007 C 
ATOM     13  C   UNL d   1      53.366  28.833  54.782  0.00  0.00     0.001 C 
ENDBRANCH  11  12
ENDBRANCH  10  11
ENDBRANCH   2  10
BRANCH   3  14
ATOM     14  C   UNL d   1      52.553  33.604  53.155  0.00  0.00     0.011 A 
ATOM     15  C   UNL d   1      52.425  34.146  53.745  0.00  0.00     0.058 A 
ATOM     16 CL   UNL d   1      52.837  34.220  54.654  0.00  0.00    -0.082 Cl
ATOM     17  C   UNL d   1      51.869  34.758  53.616  0.00  0.00     0.011 A 
ATOM     18  C   UNL d   1      51.459  34.807  52.902  0.00  0.00     0.001 A 
ATOM     19  C   UNL d   1      51.599  34.257  52.324  0.00  0.00     0.000 A 
ATOM     20  C   UNL d   1      52.152  33.646  52.448  0.00  0.00     0.001 A 
ENDBRANCH   3  14
TORSDOF 4
ENDMDL
MODEL 3
REMARK VINA RESULT:      -8.1      1.792      2.916
REMARK  4 active torsions:
REMARK  status: ('A' for Active; 'I' for Inactive)
REMARK    1  A    between atoms: S_11  and  C_2 
REMARK    2  A    between atoms: C_7  and  C_3 
REMARK    3  A    between atoms: C_17  and  S_11 
REMARK    4  A    between atoms: C_13  and  C_17 
ROOT
ATOM      1  C   UNL d   1      53.001  32.791  53.609  0.00  0.00     0.092 A 
ATOM      2  C   UNL d   1      52.704  32.091  53.327  0.00  0.00     0.124 A 
ATOM      3  C   UNL d   1      52.495  33.447  53.707  0.00  0.00     0.017 A 
ATOM      4  N   UNL d   1      51.894  32.031  53.137  0.00  0.00    -0.201 NA
ATOM      5  C   UNL d   1      51.396  32.683  53.235  0.00  0.00     0.280 A 
ATOM      6  C   UNL d   1      53.807  32.852  53.799  0.00  0.00     0.103 C 
ATOM      7  N   UNL d   1      54.614  32.906  53.987  0.00  0.00    -0.191 NA
ATOM      8  C   UNL d   1      51.694  33.384  53.517  0.00  0.00     0.063 A 
ATOM      9  O   UNL d   1      50.591  32.622  53.045  0.00  0.00    -0.265 OA
ENDROOT
BRANCH   2  10
ATOM     10  S   UNL d   1      53.205  31.437  53.229  0.00  0.00    -0.067 SA
BRANCH  10  11
ATOM     11  C   UNL d   1      52.890  30.666  53.197  0.00  0.00     0.037 C 
BRANCH  11  12
ATOM     12  C   UNL d   1      53.386  29.899  53.310  0.00  0.00     0.007 C 
ATOM     13  C   UNL d   1      53.300  29.233  54.062  0.00  0.00     0.001 C 
ENDBRANCH  11  12
ENDBRANCH  10  11
ENDBRANCH   2  10
BRANCH   3  14
ATOM     14  C   UNL d   1      52.796  34.156  53.992  0.00  0.00     0.011 A 
ATOM     15  C   UNL d   1      52.868  34.794  53.495  0.00  0.00     0.058 A 
ATOM     16 CL   UNL d   1      52.642  34.885  52.524  0.00  0.00    -0.082 Cl
ATOM     17  C   UNL d   1      53.177  35.510  53.801  0.00  0.00     0.011 A 
ATOM     18  C   UNL d   1      53.403  35.563  54.592  0.00  0.00     0.001 A 
ATOM     19  C   UNL d   1      53.324  34.917  55.074  0.00  0.00     0.000 A 
ATOM     20  C   UNL d   1      53.017  34.203  54.775  0.00  0.00     0.001 A 
ENDBRANCH   3  14
TORSDOF 4
ENDMDL
MODEL 4
REMARK VINA RESULT:      -7.8      1.189      3.620
REMARK  4 active torsions:
REMARK  status: ('A' for Active; 'I' for Inactive)
REMARK    1  A    between atoms: S_11  and  C_2 
REMARK    2  A    between atoms: C_7  and  C_3 
REMARK    3  A    between atoms: C_17  and  S_11 
REMARK    4  A    between atoms: C_13  and  C_17 
ROOT
ATOM      1  C   UNL d   1      52.455  33.685  53.580  0.00  0.00     0.092 A 
ATOM      2  C   UNL d   1      53.115  33.258  53.782  0.00  0.00     0.124 A 
ATOM      3  C   UNL d   1      51.885  33.349  53.071  0.00  0.00     0.017 A 
ATOM      4  N   UNL d   1      53.219  32.487  53.481  0.00  0.00    -0.201 NA
ATOM      5  C   UNL d   1      52.652  32.159  52.979  0.00  0.00     0.280 A 
ATOM      6  C   UNL d   1      52.350  34.452  53.878  0.00  0.00     0.103 C 
ATOM      7  N   UNL d   1      52.251  35.219  54.181  0.00  0.00    -0.191 NA
ATOM      8  C   UNL d   1      51.992  32.586  52.776  0.00  0.00     0.063 A 
ATOM      9  O   UNL d   1      52.758  31.392  52.680  0.00  0.00    -0.265 OA
ENDROOT
BRANCH   2  10
ATOM     10  S   UNL d   1      53.684  33.590  54.288  0.00  0.00    -0.067 SA
BRANCH  10  11
ATOM     11  C   UNL d   1      54.335  33.136  54.545  0.00  0.00     0.037 C 
BRANCH  11  12
ATOM     12  C   UNL d   1      54.887  33.372  55.241  0.00  0.00     0.007 C 
ATOM     13  C   UNL d   1      55.618  34.066  55.220  0.00  0.00     0.001 C 
ENDBRANCH  11  12
ENDBRANCH  10  11
ENDBRANCH   2  10
BRANCH   3  14
ATOM     14  C   UNL d   1      51.217  33.781  52.866  0.00  0.00     0.011 A 
ATOM     15  C   UNL d   1      51.183  34.156  52.147  0.00  0.00     0.058 A 
ATOM     16 CL   UNL d   1      51.855  34.193  51.406  0.00  0.00    -0.082 Cl
ATOM     17  C   UNL d   1      50.495  34.592  51.952  0.00  0.00     0.011 A 
ATOM     18  C   UNL d   1      49.866  34.639  52.482  0.00  0.00     0.001 A 
ATOM     19  C   UNL d   1      49.916  34.259  53.196  0.00  0.00     0.000 A 
ATOM     20  C   UNL d   1      50.599  33.823  53.394  0.00  0.00     0.001 A 
ENDBRANCH   3  14
TORSDOF 4
ENDMDL
MODEL 5
REMARK VINA RESULT:      -7.6      1.521      2.151
REMARK  4 active torsions:
REMARK  status: ('A' for Active; 'I' for Inactive)
REMARK    1  A    between atoms: S_11  and  C_2 
REMARK    2  A    between atoms: C_7  and  C_3 
REMARK    3  A    between atoms: C_17  and  S_11 
REMARK    4  A    between atoms: C_13  and  C_17 
ROOT
ATOM      1  C   UNL d   1      52.372  33.777  53.334  0.00  0.00     0.092 A 
ATOM      2  C   UNL d   1      51.764  34.309  53.252  0.00  0.00     0.124 A 
ATOM      3  C   UNL d   1      53.059  33.995  53.753  0.00  0.00     0.017 A 
ATOM      4  N   UNL d   1      51.832  35.070  53.588  0.00  0.00    -0.201 NA
ATOM      5  C   UNL d   1      52.514  35.281  54.002  0.00  0.00     0.280 A 
ATOM      6  C   UNL d   1      52.307  33.020  53.001  0.00  0.00     0.103 C 
ATOM      7  N   UNL d   1      52.235  32.264  52.664  0.00  0.00    -0.191 NA
ATOM      8  C   UNL d   1      53.121  34.748  54.084  0.00  0.00     0.063 A 
ATOM      9  O   UNL d   1      52.579  36.038  54.335  0.00  0.00    -0.265 OA
ENDROOT
BRANCH   2  10
ATOM     10  S   UNL d   1      51.080  34.095  52.835  0.00  0.00    -0.067 SA
BRANCH  10  11
ATOM     11  C   UNL d   1      50.405  34.584  52.855  0.00  0.00     0.037 C 
BRANCH  11  12
ATOM     12  C   UNL d   1      49.652  34.450  52.342  0.00  0.00     0.007 C 
ATOM     13  C   UNL d   1      48.852  35.060  52.278  0.00  0.00     0.001 C 
ENDBRANCH  11  12
ENDBRANCH  10  11
ENDBRANCH   2  10
BRANCH   3  14
ATOM     14  C   UNL d   1      53.674  33.456  53.837  0.00  0.00     0.011 A 
ATOM     15  C   UNL d   1      53.861  33.166  54.571  0.00  0.00     0.058 A 
ATOM     16 CL   UNL d   1      53.450  33.357  55.464  0.00  0.00    -0.082 Cl
ATOM     17  C   UNL d   1      54.490  32.617  54.640  0.00  0.00     0.011 A 
ATOM     18  C   UNL d   1      54.910  32.378  53.972  0.00  0.00     0.001 A 
ATOM     19  C   UNL d   1      54.710  32.677  53.247  0.00  0.00     0.000 A 
ATOM     20  C   UNL d   1      54.085  33.223  53.174  0.00  0.00     0.001 A 
ENDBRANCH   3  14
TORSDOF 4
ENDMDL
MODEL 6
REMARK VINA RESULT:      -7.1      1.941      3.079
REMARK  4 active torsions:
REMARK  status: ('A' for Active; 'I' for Inactive)
REMARK    1  A    between atoms: S_11  and  C_2 
REMARK    2  A    between atoms: C_7  and  C_3 
REMARK    3  A    between atoms: C_17  and  S_11 
REMARK    4  A    between atoms: C_13  and  C_17 
ROOT
ATOM      1  C   UNL d   1      53.033  32.535  53.451  0.00  0.00     0.092 A 
ATOM      2  C   UNL d   1      53.296  33.300  53.523  0.00  0.00     0.124 A 
ATOM      3  C   UNL d   1      53.582  31.907  53.461  0.00  0.00     0.017 A 
ATOM      4  N   UNL d   1      54.112  33.452  53.605  0.00  0.00    -0.201 NA
ATOM      5  C   UNL d   1      54.651  32.827  53.614  0.00  0.00     0.280 A 
ATOM      6  C   UNL d   1      52.222  32.382  53.370  0.00  0.00     0.103 C 
ATOM      7  N   UNL d   1      51.408  32.236  53.288  0.00  0.00    -0.191 NA
ATOM      8  C   UNL d   1      54.388  32.062  53.542  0.00  0.00     0.063 A 
ATOM      9  O   UNL d   1      55.462  32.980  53.695  0.00  0.00    -0.265 OA
ENDROOT
BRANCH   2  10
ATOM     10  S   UNL d   1      52.752  33.927  53.514  0.00  0.00    -0.067 SA
BRANCH  10  11
ATOM     11  C   UNL d   1      53.006  34.706  53.666  0.00  0.00     0.037 C 
BRANCH  11  12
ATOM     12  C   UNL d   1      52.487  35.351  54.067  0.00  0.00     0.007 C 
ATOM     13  C   UNL d   1      52.797  36.047  54.728  0.00  0.00     0.001 C 
ENDBRANCH  11  12
ENDBRANCH  10  11
ENDBRANCH   2  10
BRANCH   3  14
ATOM     14  C   UNL d   1      53.316  31.132  53.388  0.00  0.00     0.011 A 
ATOM     15  C   UNL d   1      53.314  30.644  54.036  0.00  0.00     0.058 A 
ATOM     16 CL   UNL d   1      53.596  30.822  54.980  0.00  0.00    -0.082 Cl
ATOM     17  C   UNL d   1      53.040  29.857  53.947  0.00  0.00     0.011 A 
ATOM     18  C   UNL d   1      52.778  29.587  53.213  0.00  0.00     0.001 A 
ATOM     19  C   UNL d   1      52.787  30.088  52.577  0.00  0.00     0.000 A 
ATOM     20  C   UNL d   1      53.059  30.871  52.661  0.00  0.00     0.001 A 
ENDBRANCH   3  14
TORSDOF 4
ENDMDL
