MODEL 1
REMARK VINA RESULT:      40.0      0.000      0.000
REMARK  6 active torsions:
REMARK  status: ('A' for Active; 'I' for Inactive)
REMARK    1  A    between atoms: C_3  and  N_1 
REMARK    2  A    between atoms: N_7  and  C_3 
REMARK    3  A    between atoms: C_10  and  C_4 
REMARK    4  A    between atoms: C_9  and  C_5 
REMARK    5  A    between atoms: C_13  and  N_7 
REMARK    6  A    between atoms: O_17  and  C_14 
ROOT
ATOM      1  N   UNL d   1      46.311 -17.584  43.667  0.00  0.00    -0.203 N 
ATOM      2  N   UNL d   1      46.518 -18.178  43.146  0.00  0.00    -0.163 NA
ATOM      3  C   UNL d   1      46.284 -17.961  42.408  0.00  0.00     0.103 A 
ATOM      4  C   UNL d   1      45.936 -16.975  43.250  0.00  0.00     0.087 A 
ATOM      5  C   UNL d   1      45.924 -17.218  42.466  0.00  0.00     0.040 A 
ENDROOT
BRANCH   1   6
ATOM      6  C   UNL d   1      46.465 -17.610  44.499  0.00  0.00     0.222 C 
ATOM      7  S   UNL d   1      46.434 -16.914  44.954  0.00  0.00    -0.037 SA
BRANCH   6   8
ATOM      8  N   UNL d   1      46.647 -18.320  44.865  0.00  0.00    -0.217 NA
BRANCH   8   9
ATOM      9  C   UNL d   1      46.171 -18.990  44.756  0.00  0.00     0.084 A 
ATOM     10  C   UNL d   1      45.377 -18.961  44.955  0.00  0.00     0.019 A 
ATOM     11  C   UNL d   1      44.899 -19.636  44.845  0.00  0.00     0.002 A 
ATOM     12  C   UNL d   1      45.233 -20.325  44.538  0.00  0.00     0.000 A 
ATOM     13  C   UNL d   1      46.028 -20.329  44.347  0.00  0.00     0.002 A 
ATOM     14  C   UNL d   1      46.506 -19.665  44.453  0.00  0.00     0.019 A 
ENDBRANCH   8   9
ENDBRANCH   6   8
ENDBRANCH   1   6
BRANCH   4  15
ATOM     15  C   UNL d   1      45.633 -16.265  43.541  0.00  0.00     0.018 A 
ATOM     16  C   UNL d   1      44.950 -16.276  44.013  0.00  0.00     0.004 A 
ATOM     17  C   UNL d   1      44.648 -15.585  44.300  0.00  0.00     0.024 A 
ATOM     18  C   UNL d   1      45.012 -14.849  44.131  0.00  0.00     0.094 A 
ATOM     19  C   UNL d   1      45.681 -14.853  43.667  0.00  0.00     0.024 A 
ATOM     20  C   UNL d   1      46.000 -15.562  43.365  0.00  0.00     0.004 A 
BRANCH  18  21
ATOM     21  O   UNL d   1      44.692 -14.140  44.433  0.00  0.00    -0.328 OA
ATOM     22  C   UNL d   1      45.138 -13.436  44.471  0.00  0.00     0.181 C 
ENDBRANCH  18  21
ENDBRANCH   4  15
BRANCH   3  23
ATOM     23  C   UNL d   1      46.399 -18.417  41.746  0.00  0.00     0.019 A 
ATOM     24  C   UNL d   1      46.516 -19.235  41.814  0.00  0.00     0.002 A 
ATOM     25  C   UNL d   1      46.632 -19.697  41.135  0.00  0.00     0.000 A 
ATOM     26  C   UNL d   1      46.631 -19.344  40.396  0.00  0.00     0.000 A 
ATOM     27  C   UNL d   1      46.514 -18.525  40.329  0.00  0.00     0.000 A 
ATOM     28  C   UNL d   1      46.398 -18.065  41.009  0.00  0.00     0.002 A 
ENDBRANCH   3  23
TORSDOF 6
ENDMDL
