MODEL 1
REMARK VINA RESULT:      35.0      0.000      0.000
REMARK  2 active torsions:
REMARK  status: ('A' for Active; 'I' for Inactive)
REMARK    1  A    between atoms: N_2  and  S_1 
REMARK    2  A    between atoms: C_3  and  S_1 
ROOT
ATOM      1  N   UNL d   1     -56.263 -99.313 -44.558  0.00  0.00    -0.231 N 
ATOM      2  C   UNL d   1     -55.912-100.020 -44.328  0.00  0.00     0.075 A 
ATOM      3  C   UNL d   1     -55.134-100.178 -44.549  0.00  0.00     0.017 A 
ATOM      4  C   UNL d   1     -55.844 -98.756 -45.011  0.00  0.00     0.092 A 
ATOM      5  C   UNL d   1     -56.329-100.579 -43.874  0.00  0.00     0.018 A 
ATOM      6  C   UNL d   1     -55.070 -98.916 -45.230  0.00  0.00     0.020 A 
ATOM      7  C   UNL d   1     -54.712 -99.631 -44.998  0.00  0.00     0.003 A 
ATOM      8  C   UNL d   1     -54.780-100.898 -44.313  0.00  0.00     0.002 A 
ATOM      9  C   UNL d   1     -55.983-101.292 -43.639  0.00  0.00     0.002 A 
ATOM     10  C   UNL d   1     -55.205-101.454 -43.858  0.00  0.00     0.000 A 
ENDROOT
BRANCH   1  11
ATOM     11  S   UNL d   1     -57.041 -99.157 -44.336  0.00  0.00     0.277 S 
ATOM     12  O   UNL d   1     -56.770 -98.783 -43.651  0.00  0.00    -0.199 OA
ATOM     13  O   UNL d   1     -57.308 -99.525 -45.010  0.00  0.00    -0.199 OA
BRANCH  11  14
ATOM     14  C   UNL d   1     -57.806 -99.004 -44.118  0.00  0.00     0.133 A 
ATOM     15  S   UNL d   1     -58.434 -98.908 -44.640  0.00  0.00    -0.074 SA
ATOM     16  C   UNL d   1     -59.132 -98.757 -44.172  0.00  0.00     0.036 A 
ATOM     17  C   UNL d   1     -58.889 -98.768 -43.389  0.00  0.00     0.008 A 
ATOM     18  C   UNL d   1     -58.105 -98.912 -43.318  0.00  0.00     0.020 A 
ENDBRANCH  11  14
ENDBRANCH   1  11
TORSDOF 2
ENDMDL
