MODEL 1
REMARK VINA RESULT:      -2.8      0.000      0.000
REMARK  5 active torsions:
REMARK  status: ('A' for Active; 'I' for Inactive)
REMARK    1  A    between atoms: C_7  and  C_3 
REMARK    2  A    between atoms: C_8  and  C_7 
REMARK       I    between atoms: N_14  and  C_8 
REMARK    3  A    between atoms: N_9  and  C_16 
REMARK    4  A    between atoms: C_15  and  N_14 
REMARK    5  A    between atoms: C_16  and  C_15 
ROOT
ATOM      1  C   UNL d   1      32.868  20.797 -21.629  0.00  0.00     0.281 C 
ATOM      2  O   UNL d   1      32.126  20.602 -21.327  0.00  0.00    -0.265 OA
ATOM      3  N   UNL d   1      33.241  20.293 -22.164  0.00  0.00    -0.205 NA
ENDROOT
BRANCH   1   4
ATOM      4  C   UNL d   1      33.237  21.494 -21.397  0.00  0.00     0.082 C 
BRANCH   4   5
ATOM      5  C   UNL d   1      32.855  22.220 -21.503  0.00  0.00     0.096 A 
ATOM      6  C   UNL d   1      32.861  22.584 -22.243  0.00  0.00     0.082 A 
ATOM      7  C   UNL d   1      32.482  23.312 -22.362  0.00  0.00     0.285 A 
ATOM      8  N   UNL d   1      32.098  23.662 -21.720  0.00  0.00    -0.152 NA
ATOM      9  O   UNL d   1      32.488  23.673 -23.095  0.00  0.00    -0.265 OA
ATOM     10  C   UNL d   1      32.092  23.298 -20.980  0.00  0.00     0.371 A 
ATOM     11  N   UNL d   1      32.469  22.581 -20.874  0.00  0.00    -0.191 NA
ATOM     12  O   UNL d   1      31.704  23.660 -20.346  0.00  0.00    -0.242 OA
ENDBRANCH   4   5
ENDBRANCH   1   4
BRANCH   3  13
ATOM     13  C   UNL d   1      32.872  19.595 -22.396  0.00  0.00     0.121 C 
BRANCH  13  14
ATOM     14  C   UNL d   1      33.238  19.092 -22.946  0.00  0.00     0.101 C 
BRANCH  14  15
ATOM     15  N   UNL d   1      32.857  18.420 -23.224  0.00  0.00    -0.298 N 
ATOM     16  C   UNL d   1      33.095  17.686 -22.931  0.00  0.00     0.107 A 
ATOM     17  C   UNL d   1      32.713  17.000 -23.210  0.00  0.00     0.142 A 
ATOM     18  O   UNL d   1      32.112  17.059 -23.765  0.00  0.00    -0.300 OA
ATOM     19  C   UNL d   1      31.889  17.802 -24.046  0.00  0.00     0.142 A 
ATOM     20  C   UNL d   1      32.263  18.480 -23.773  0.00  0.00     0.107 A 
ENDBRANCH  14  15
ENDBRANCH  13  14
ENDBRANCH   3  13
TORSDOF 5
ENDMDL
MODEL 2
REMARK VINA RESULT:      -2.6      1.251      5.176
REMARK  5 active torsions:
REMARK  status: ('A' for Active; 'I' for Inactive)
REMARK    1  A    between atoms: C_7  and  C_3 
REMARK    2  A    between atoms: C_8  and  C_7 
REMARK       I    between atoms: N_14  and  C_8 
REMARK    3  A    between atoms: N_9  and  C_16 
REMARK    4  A    between atoms: C_15  and  N_14 
REMARK    5  A    between atoms: C_16  and  C_15 
ROOT
ATOM      1  C   UNL d   1      33.028  18.930 -22.835  0.00  0.00     0.281 C 
ATOM      2  O   UNL d   1      33.240  19.321 -23.530  0.00  0.00    -0.265 OA
ATOM      3  N   UNL d   1      32.894  19.360 -22.145  0.00  0.00    -0.205 NA
ENDROOT
BRANCH   1   4
ATOM      4  C   UNL d   1      32.948  18.112 -22.830  0.00  0.00     0.082 C 
BRANCH   4   5
ATOM      5  C   UNL d   1      32.603  17.725 -23.474  0.00  0.00     0.096 A 
ATOM      6  C   UNL d   1      33.058  17.222 -23.944  0.00  0.00     0.082 A 
ATOM      7  C   UNL d   1      32.724  16.828 -24.593  0.00  0.00     0.285 A 
ATOM      8  N   UNL d   1      31.924  16.953 -24.756  0.00  0.00    -0.152 NA
ATOM      9  O   UNL d   1      33.174  16.330 -25.058  0.00  0.00    -0.265 OA
ATOM     10  C   UNL d   1      31.468  17.456 -24.286  0.00  0.00     0.371 A 
ATOM     11  N   UNL d   1      31.809  17.839 -23.649  0.00  0.00    -0.191 NA
ATOM     12  O   UNL d   1      30.669  17.572 -24.461  0.00  0.00    -0.242 OA
ENDBRANCH   4   5
ENDBRANCH   1   4
BRANCH   3  13
ATOM     13  C   UNL d   1      32.974  20.179 -22.150  0.00  0.00     0.121 C 
BRANCH  13  14
ATOM     14  C   UNL d   1      33.075  20.593 -21.438  0.00  0.00     0.101 C 
BRANCH  14  15
ATOM     15  N   UNL d   1      32.813  21.367 -21.357  0.00  0.00    -0.298 N 
ATOM     16  C   UNL d   1      33.177  21.952 -21.811  0.00  0.00     0.107 A 
ATOM     17  C   UNL d   1      32.915  22.740 -21.733  0.00  0.00     0.142 A 
ATOM     18  O   UNL d   1      32.309  22.924 -21.213  0.00  0.00    -0.300 OA
ATOM     19  C   UNL d   1      31.958  22.325 -20.768  0.00  0.00     0.142 A 
ATOM     20  C   UNL d   1      32.213  21.547 -20.842  0.00  0.00     0.107 A 
ENDBRANCH  14  15
ENDBRANCH  13  14
ENDBRANCH   3  13
TORSDOF 5
ENDMDL
MODEL 3
REMARK VINA RESULT:      -2.6      1.211      1.730
REMARK  5 active torsions:
REMARK  status: ('A' for Active; 'I' for Inactive)
REMARK    1  A    between atoms: C_7  and  C_3 
REMARK    2  A    between atoms: C_8  and  C_7 
REMARK       I    between atoms: N_14  and  C_8 
REMARK    3  A    between atoms: N_9  and  C_16 
REMARK    4  A    between atoms: C_15  and  N_14 
REMARK    5  A    between atoms: C_16  and  C_15 
ROOT
ATOM      1  C   UNL d   1      32.931  19.495 -22.536  0.00  0.00     0.281 C 
ATOM      2  O   UNL d   1      32.571  19.892 -23.164  0.00  0.00    -0.265 OA
ATOM      3  N   UNL d   1      32.983  18.674 -22.544  0.00  0.00    -0.205 NA
ENDROOT
BRANCH   1   4
ATOM      4  C   UNL d   1      33.238  19.920 -21.902  0.00  0.00     0.082 C 
BRANCH   4   5
ATOM      5  C   UNL d   1      32.927  20.662 -21.711  0.00  0.00     0.096 A 
ATOM      6  C   UNL d   1      33.237  21.341 -22.062  0.00  0.00     0.082 A 
ATOM      7  C   UNL d   1      32.934  22.091 -21.879  0.00  0.00     0.285 A 
ATOM      8  N   UNL d   1      32.314  22.139 -21.335  0.00  0.00    -0.152 NA
ATOM      9  O   UNL d   1      33.241  22.763 -22.227  0.00  0.00    -0.265 OA
ATOM     10  C   UNL d   1      32.003  21.461 -20.984  0.00  0.00     0.371 A 
ATOM     11  N   UNL d   1      32.310  20.727 -21.172  0.00  0.00    -0.191 NA
ATOM     12  O   UNL d   1      31.383  21.524 -20.442  0.00  0.00    -0.242 OA
ENDBRANCH   4   5
ENDBRANCH   1   4
BRANCH   3  13
ATOM     13  C   UNL d   1      32.676  18.249 -23.178  0.00  0.00     0.121 C 
BRANCH  13  14
ATOM     14  C   UNL d   1      32.834  17.437 -23.253  0.00  0.00     0.101 C 
BRANCH  14  15
ATOM     15  N   UNL d   1      32.466  16.985 -23.831  0.00  0.00    -0.298 N 
ATOM     16  C   UNL d   1      31.675  16.778 -23.722  0.00  0.00     0.107 A 
ATOM     17  C   UNL d   1      31.296  16.320 -24.306  0.00  0.00     0.142 A 
ATOM     18  O   UNL d   1      31.707  16.081 -24.975  0.00  0.00    -0.300 OA
ATOM     19  C   UNL d   1      32.498  16.299 -25.065  0.00  0.00     0.142 A 
ATOM     20  C   UNL d   1      32.874  16.751 -24.492  0.00  0.00     0.107 A 
ENDBRANCH  14  15
ENDBRANCH  13  14
ENDBRANCH   3  13
TORSDOF 5
ENDMDL
