MODEL 1
REMARK VINA RESULT:      -9.9      0.000      0.000
REMARK  4 active torsions:
REMARK  status: ('A' for Active; 'I' for Inactive)
REMARK    1  A    between atoms: S_4  and  C_3 
REMARK    2  A    between atoms: C_12  and  S_4 
REMARK    3  A    between atoms: C_23  and  N_6 
REMARK    4  A    between atoms: C_27  and  C_23 
ROOT
ATOM      1  C   UNL d   1      52.987  33.253  53.621  0.00  0.00     0.155 A 
ATOM      2  C   UNL d   1      52.730  33.998  53.850  0.00  0.00     0.092 A 
ATOM      3  C   UNL d   1      51.562  33.830  53.052  0.00  0.00     0.124 A 
ATOM      4  N   UNL d   1      53.702  32.959  53.904  0.00  0.00    -0.210 NA
ATOM      5  N   UNL d   1      52.535  32.799  53.110  0.00  0.00    -0.273 N 
ATOM      6  C   UNL d   1      51.818  33.090  52.824  0.00  0.00     0.181 A 
ATOM      7  C   UNL d   1      53.185  34.456  54.364  0.00  0.00     0.269 A 
ATOM      8  N   UNL d   1      53.899  34.162  54.647  0.00  0.00    -0.258 N 
ATOM      9  C   UNL d   1      52.015  34.292  53.567  0.00  0.00     0.022 A 
ATOM     10  C   UNL d   1      54.158  33.414  54.417  0.00  0.00     0.152 A 
ATOM     11  N   UNL d   1      51.364  32.627  52.309  0.00  0.00    -0.128 N 
ATOM     12  C   UNL d   1      54.353  34.624  55.162  0.00  0.00     0.084 A 
ATOM     13  O   UNL d   1      52.919  35.204  54.590  0.00  0.00    -0.266 OA
ATOM     14  C   UNL d   1      54.871  33.127  54.703  0.00  0.00     0.038 A 
ATOM     15  C   UNL d   1      55.064  34.322  55.439  0.00  0.00     0.019 A 
ATOM     16  C   UNL d   1      55.322  33.573  55.209  0.00  0.00     0.005 A 
ENDROOT
BRANCH   3  17
ATOM     17  S   UNL d   1      50.840  34.124  52.764  0.00  0.00     0.213 S 
ATOM     18  O   UNL d   1      50.449  33.760  53.386  0.00  0.00    -0.217 OA
ATOM     19  O   UNL d   1      51.247  34.491  52.136  0.00  0.00    -0.217 OA
BRANCH  17  20
ATOM     20  C   UNL d   1      50.126  34.421  52.470  0.00  0.00     0.088 A 
ATOM     21  C   UNL d   1      49.649  34.889  52.954  0.00  0.00     0.011 A 
ATOM     22  C   UNL d   1      48.942  35.184  52.665  0.00  0.00     0.001 A 
ATOM     23  C   UNL d   1      48.465  35.652  53.149  0.00  0.00     0.000 C 
ATOM     24  C   UNL d   1      48.705  35.013  51.889  0.00  0.00     0.000 A 
ATOM     25  C   UNL d   1      49.182  34.545  51.405  0.00  0.00     0.001 A 
ATOM     26  C   UNL d   1      47.988  35.313  51.597  0.00  0.00     0.000 C 
ATOM     27  C   UNL d   1      49.899  34.245  51.696  0.00  0.00     0.011 A 
ENDBRANCH  17  20
ENDBRANCH   3  17
BRANCH   5  28
ATOM     28  C   UNL d   1      52.801  32.051  52.885  0.00  0.00     0.083 C 
BRANCH  28  29
ATOM     29  C   UNL d   1      52.405  31.379  53.155  0.00  0.00     0.019 C 
ATOM     30  C   UNL d   1      52.697  30.627  52.982  0.00  0.00     0.002 C 
ENDBRANCH  28  29
ENDBRANCH   5  28
TORSDOF 4
ENDMDL
MODEL 2
REMARK VINA RESULT:      -9.1      1.041      2.529
REMARK  4 active torsions:
REMARK  status: ('A' for Active; 'I' for Inactive)
REMARK    1  A    between atoms: S_4  and  C_3 
REMARK    2  A    between atoms: C_12  and  S_4 
REMARK    3  A    between atoms: C_23  and  N_6 
REMARK    4  A    between atoms: C_27  and  C_23 
ROOT
ATOM      1  C   UNL d   1      52.711  32.884  53.415  0.00  0.00     0.155 A 
ATOM      2  C   UNL d   1      52.076  32.466  53.108  0.00  0.00     0.092 A 
ATOM      3  C   UNL d   1      51.348  33.683  52.976  0.00  0.00     0.124 A 
ATOM      4  N   UNL d   1      53.398  32.488  53.637  0.00  0.00    -0.210 NA
ATOM      5  N   UNL d   1      52.666  33.698  53.503  0.00  0.00    -0.273 N 
ATOM      6  C   UNL d   1      51.980  34.099  53.282  0.00  0.00     0.181 A 
ATOM      7  C   UNL d   1      52.120  31.646  53.018  0.00  0.00     0.269 A 
ATOM      8  N   UNL d   1      52.806  31.250  53.240  0.00  0.00    -0.258 N 
ATOM      9  C   UNL d   1      51.389  32.862  52.886  0.00  0.00     0.022 A 
ATOM     10  C   UNL d   1      53.445  31.670  53.549  0.00  0.00     0.152 A 
ATOM     11  N   UNL d   1      51.938  34.921  53.373  0.00  0.00    -0.128 N 
ATOM     12  C   UNL d   1      52.848  30.428  53.150  0.00  0.00     0.084 A 
ATOM     13  O   UNL d   1      51.477  31.232  52.708  0.00  0.00    -0.266 OA
ATOM     14  C   UNL d   1      54.125  31.269  53.768  0.00  0.00     0.038 A 
ATOM     15  C   UNL d   1      53.536  30.043  53.374  0.00  0.00     0.019 A 
ATOM     16  C   UNL d   1      54.175  30.463  53.683  0.00  0.00     0.005 A 
ENDROOT
BRANCH   3  17
ATOM     17  S   UNL d   1      50.657  34.087  52.754  0.00  0.00     0.213 S 
ATOM     18  O   UNL d   1      51.005  34.280  52.037  0.00  0.00    -0.217 OA
ATOM     19  O   UNL d   1      50.311  33.885  53.485  0.00  0.00    -0.217 OA
BRANCH  17  20
ATOM     20  C   UNL d   1      49.964  34.486  52.540  0.00  0.00     0.088 A 
ATOM     21  C   UNL d   1      49.655  34.390  51.782  0.00  0.00     0.011 A 
ATOM     22  C   UNL d   1      48.970  34.784  51.569  0.00  0.00     0.001 A 
ATOM     23  C   UNL d   1      48.661  34.688  50.810  0.00  0.00     0.000 C 
ATOM     24  C   UNL d   1      48.587  35.279  52.114  0.00  0.00     0.000 A 
ATOM     25  C   UNL d   1      48.896  35.376  52.873  0.00  0.00     0.001 A 
ATOM     26  C   UNL d   1      47.893  35.678  51.896  0.00  0.00     0.000 C 
ATOM     27  C   UNL d   1      49.591  34.977  53.090  0.00  0.00     0.011 A 
ENDBRANCH  17  20
ENDBRANCH   3  17
BRANCH   5  28
ATOM     28  C   UNL d   1      53.309  34.111  53.814  0.00  0.00     0.083 C 
BRANCH  28  29
ATOM     29  C   UNL d   1      53.251  34.455  54.562  0.00  0.00     0.019 C 
ATOM     30  C   UNL d   1      53.918  34.778  54.923  0.00  0.00     0.002 C 
ENDBRANCH  28  29
ENDBRANCH   5  28
TORSDOF 4
ENDMDL
