MODEL 1
REMARK VINA RESULT:      -2.4      0.000      0.000
REMARK  5 active torsions:
REMARK  status: ('A' for Active; 'I' for Inactive)
REMARK    1  A    between atoms: N_9  and  S_1 
REMARK    2  A    between atoms: C_11  and  S_1 
REMARK    3  A    between atoms: C_5  and  C_10 
REMARK    4  A    between atoms: C_12  and  N_9 
REMARK    5  A    between atoms: C_10  and  C_12 
ROOT
ATOM      1  C   UNL d   1      33.238  19.843 -21.833  0.00  0.00     0.041 C 
ENDROOT
BRANCH   1   2
ATOM      2  C   UNL d   1      32.998  20.598 -21.599  0.00  0.00     0.090 A 
ATOM      3  N   UNL d   1      33.235  21.307 -21.954  0.00  0.00    -0.238 NA
ATOM      4  C   UNL d   1      32.865  21.924 -21.545  0.00  0.00     0.111 A 
ATOM      5  C   UNL d   1      32.941  22.736 -21.710  0.00  0.00     0.028 C 
ATOM      6  S   UNL d   1      32.404  21.601 -20.943  0.00  0.00    -0.066 SA
ATOM      7  C   UNL d   1      32.488  20.775 -20.977  0.00  0.00     0.056 A 
ENDBRANCH   1   2
BRANCH   1   8
ATOM      8  C   UNL d   1      32.906  19.485 -22.491  0.00  0.00     0.114 C 
BRANCH   8   9
ATOM      9  N   UNL d   1      33.224  18.763 -22.776  0.00  0.00    -0.157 NA
BRANCH   9  10
ATOM     10  S   UNL d   1      32.831  18.359 -23.379  0.00  0.00     0.286 S 
ATOM     11  O   UNL d   1      33.152  18.887 -23.935  0.00  0.00    -0.198 OA
ATOM     12  O   UNL d   1      32.509  17.831 -22.827  0.00  0.00    -0.198 OA
BRANCH  10  13
ATOM     13  C   UNL d   1      32.442  17.962 -23.985  0.00  0.00     0.117 C 
ATOM     14  C   UNL d   1      32.740  17.253 -24.262  0.00  0.00     0.014 C 
ENDBRANCH  10  13
ENDBRANCH   9  10
ENDBRANCH   8   9
ENDBRANCH   1   8
TORSDOF 5
ENDMDL
MODEL 2
REMARK VINA RESULT:      -2.3      0.900      1.083
REMARK  5 active torsions:
REMARK  status: ('A' for Active; 'I' for Inactive)
REMARK    1  A    between atoms: N_9  and  S_1 
REMARK    2  A    between atoms: C_11  and  S_1 
REMARK    3  A    between atoms: C_5  and  C_10 
REMARK    4  A    between atoms: C_12  and  N_9 
REMARK    5  A    between atoms: C_10  and  C_12 
ROOT
ATOM      1  C   UNL d   1      33.241  19.508 -22.730  0.00  0.00     0.041 C 
ENDROOT
BRANCH   1   2
ATOM      2  C   UNL d   1      33.126  20.054 -22.121  0.00  0.00     0.090 A 
ATOM      3  N   UNL d   1      32.872  20.835 -22.221  0.00  0.00    -0.238 NA
ATOM      4  C   UNL d   1      32.833  21.180 -21.470  0.00  0.00     0.111 A 
ATOM      5  C   UNL d   1      32.603  21.962 -21.301  0.00  0.00     0.028 C 
ATOM      6  S   UNL d   1      33.059  20.619 -20.910  0.00  0.00    -0.066 SA
ATOM      7  C   UNL d   1      33.241  19.917 -21.316  0.00  0.00     0.056 A 
ENDBRANCH   1   2
BRANCH   1   8
ATOM      8  C   UNL d   1      32.742  18.864 -22.814  0.00  0.00     0.114 C 
BRANCH   8   9
ATOM      9  N   UNL d   1      32.804  18.376 -23.494  0.00  0.00    -0.157 NA
BRANCH   9  10
ATOM     10  S   UNL d   1      32.323  17.708 -23.556  0.00  0.00     0.286 S 
ATOM     11  O   UNL d   1      32.909  17.258 -23.174  0.00  0.00    -0.198 OA
ATOM     12  O   UNL d   1      31.737  18.154 -23.937  0.00  0.00    -0.198 OA
BRANCH  10  13
ATOM     13  C   UNL d   1      31.851  17.037 -23.614  0.00  0.00     0.117 C 
ATOM     14  C   UNL d   1      31.554  16.812 -24.341  0.00  0.00     0.014 C 
ENDBRANCH  10  13
ENDBRANCH   9  10
ENDBRANCH   8   9
ENDBRANCH   1   8
TORSDOF 5
ENDMDL
MODEL 3
REMARK VINA RESULT:      -2.3      1.537      4.122
REMARK  5 active torsions:
REMARK  status: ('A' for Active; 'I' for Inactive)
REMARK    1  A    between atoms: N_9  and  S_1 
REMARK    2  A    between atoms: C_11  and  S_1 
REMARK    3  A    between atoms: C_5  and  C_10 
REMARK    4  A    between atoms: C_12  and  N_9 
REMARK    5  A    between atoms: C_10  and  C_12 
ROOT
ATOM      1  C   UNL d   1      32.808  18.214 -23.390  0.00  0.00     0.041 C 
ENDROOT
BRANCH   1   2
ATOM      2  C   UNL d   1      32.220  17.693 -23.646  0.00  0.00     0.090 A 
ATOM      3  N   UNL d   1      32.059  16.954 -23.312  0.00  0.00    -0.238 NA
ATOM      4  C   UNL d   1      31.431  16.623 -23.737  0.00  0.00     0.111 A 
ATOM      5  C   UNL d   1      31.081  15.881 -23.597  0.00  0.00     0.028 C 
ATOM      6  S   UNL d   1      31.206  17.151 -24.329  0.00  0.00    -0.066 SA
ATOM      7  C   UNL d   1      31.698  17.818 -24.271  0.00  0.00     0.056 A 
ENDBRANCH   1   2
BRANCH   1   8
ATOM      8  C   UNL d   1      32.625  18.843 -22.899  0.00  0.00     0.114 C 
BRANCH   8   9
ATOM      9  N   UNL d   1      33.241  19.278 -22.531  0.00  0.00    -0.157 NA
BRANCH   9  10
ATOM     10  S   UNL d   1      33.059  19.975 -22.129  0.00  0.00     0.286 S 
ATOM     11  O   UNL d   1      32.875  19.529 -21.452  0.00  0.00    -0.198 OA
ATOM     12  O   UNL d   1      33.241  20.422 -22.802  0.00  0.00    -0.198 OA
BRANCH  10  13
ATOM     13  C   UNL d   1      32.875  20.665 -21.720  0.00  0.00     0.117 C 
ATOM     14  C   UNL d   1      33.223  20.812 -20.996  0.00  0.00     0.014 C 
ENDBRANCH  10  13
ENDBRANCH   9  10
ENDBRANCH   8   9
ENDBRANCH   1   8
TORSDOF 5
ENDMDL
MODEL 4
REMARK VINA RESULT:      -2.3      2.664      4.733
REMARK  5 active torsions:
REMARK  status: ('A' for Active; 'I' for Inactive)
REMARK    1  A    between atoms: N_9  and  S_1 
REMARK    2  A    between atoms: C_11  and  S_1 
REMARK    3  A    between atoms: C_5  and  C_10 
REMARK    4  A    between atoms: C_12  and  N_9 
REMARK    5  A    between atoms: C_10  and  C_12 
ROOT
ATOM      1  C   UNL d   1      30.998  16.919 -24.354  0.00  0.00     0.041 C 
ENDROOT
BRANCH   1   2
ATOM      2  C   UNL d   1      30.177  16.833 -24.321  0.00  0.00     0.090 A 
ATOM      3  N   UNL d   1      29.770  16.321 -23.814  0.00  0.00    -0.238 NA
ATOM      4  C   UNL d   1      28.963  16.414 -23.966  0.00  0.00     0.111 A 
ATOM      5  C   UNL d   1      28.342  16.008 -23.586  0.00  0.00     0.028 C 
ATOM      6  S   UNL d   1      28.869  16.977 -24.560  0.00  0.00    -0.066 SA
ATOM      7  C   UNL d   1      29.626  17.238 -24.780  0.00  0.00     0.056 A 
ENDBRANCH   1   2
BRANCH   1   8
ATOM      8  C   UNL d   1      31.368  17.551 -23.988  0.00  0.00     0.114 C 
BRANCH   8   9
ATOM      9  N   UNL d   1      32.204  17.569 -23.932  0.00  0.00    -0.157 NA
BRANCH   9  10
ATOM     10  S   UNL d   1      32.572  18.219 -23.581  0.00  0.00     0.286 S 
ATOM     11  O   UNL d   1      32.549  18.618 -24.309  0.00  0.00    -0.198 OA
ATOM     12  O   UNL d   1      32.596  17.824 -22.853  0.00  0.00    -0.198 OA
BRANCH  10  13
ATOM     13  C   UNL d   1      32.938  18.872 -23.238  0.00  0.00     0.117 C 
ATOM     14  C   UNL d   1      33.241  18.816 -22.482  0.00  0.00     0.014 C 
ENDBRANCH  10  13
ENDBRANCH   9  10
ENDBRANCH   8   9
ENDBRANCH   1   8
TORSDOF 5
ENDMDL
MODEL 5
REMARK VINA RESULT:      -1.7      2.909      4.934
REMARK  5 active torsions:
REMARK  status: ('A' for Active; 'I' for Inactive)
REMARK    1  A    between atoms: N_9  and  S_1 
REMARK    2  A    between atoms: C_11  and  S_1 
REMARK    3  A    between atoms: C_5  and  C_10 
REMARK    4  A    between atoms: C_12  and  N_9 
REMARK    5  A    between atoms: C_10  and  C_12 
ROOT
ATOM      1  C   UNL d   1      30.867  16.415 -24.130  0.00  0.00     0.041 C 
ENDROOT
BRANCH   1   2
ATOM      2  C   UNL d   1      30.138  16.159 -23.837  0.00  0.00     0.090 A 
ATOM      3  N   UNL d   1      29.409  16.522 -23.986  0.00  0.00    -0.238 NA
ATOM      4  C   UNL d   1      28.831  16.086 -23.586  0.00  0.00     0.111 A 
ATOM      5  C   UNL d   1      28.014  16.246 -23.577  0.00  0.00     0.028 C 
ATOM      6  S   UNL d   1      29.197  15.460 -23.194  0.00  0.00    -0.066 SA
ATOM      7  C   UNL d   1      30.012  15.506 -23.351  0.00  0.00     0.056 A 
ENDBRANCH   1   2
BRANCH   1   8
ATOM      8  C   UNL d   1      31.348  16.905 -23.685  0.00  0.00     0.114 C 
BRANCH   8   9
ATOM      9  N   UNL d   1      32.042  17.231 -24.027  0.00  0.00    -0.157 NA
BRANCH   9  10
ATOM     10  S   UNL d   1      32.485  17.779 -23.597  0.00  0.00     0.286 S 
ATOM     11  O   UNL d   1      32.845  17.155 -23.183  0.00  0.00    -0.198 OA
ATOM     12  O   UNL d   1      32.128  18.404 -24.008  0.00  0.00    -0.198 OA
BRANCH  10  13
ATOM     13  C   UNL d   1      32.930  18.318 -23.164  0.00  0.00     0.117 C 
ATOM     14  C   UNL d   1      33.241  18.977 -23.534  0.00  0.00     0.014 C 
ENDBRANCH  10  13
ENDBRANCH   9  10
ENDBRANCH   8   9
ENDBRANCH   1   8
TORSDOF 5
ENDMDL
MODEL 6
REMARK VINA RESULT:      -1.0      3.385      4.936
REMARK  5 active torsions:
REMARK  status: ('A' for Active; 'I' for Inactive)
REMARK    1  A    between atoms: N_9  and  S_1 
REMARK    2  A    between atoms: C_11  and  S_1 
REMARK    3  A    between atoms: C_5  and  C_10 
REMARK    4  A    between atoms: C_12  and  N_9 
REMARK    5  A    between atoms: C_10  and  C_12 
ROOT
ATOM      1  C   UNL d   1      32.495  21.906 -20.553  0.00  0.00     0.041 C 
ENDROOT
BRANCH   1   2
ATOM      2  C   UNL d   1      32.757  21.824 -21.332  0.00  0.00     0.090 A 
ATOM      3  N   UNL d   1      32.788  22.432 -21.893  0.00  0.00    -0.238 NA
ATOM      4  C   UNL d   1      33.083  22.106 -22.594  0.00  0.00     0.111 A 
ATOM      5  C   UNL d   1      33.209  22.513 -23.309  0.00  0.00     0.028 C 
ATOM      6  S   UNL d   1      33.233  21.305 -22.469  0.00  0.00    -0.066 SA
ATOM      7  C   UNL d   1      33.030  21.130 -21.683  0.00  0.00     0.056 A 
ENDBRANCH   1   2
BRANCH   1   8
ATOM      8  C   UNL d   1      32.768  22.519 -20.083  0.00  0.00     0.114 C 
BRANCH   8   9
ATOM      9  N   UNL d   1      32.873  22.398 -19.260  0.00  0.00    -0.157 NA
BRANCH   9  10
ATOM     10  S   UNL d   1      32.876  23.049 -18.753  0.00  0.00     0.286 S 
ATOM     11  O   UNL d   1      33.241  23.502 -19.346  0.00  0.00    -0.198 OA
ATOM     12  O   UNL d   1      32.512  22.599 -18.159  0.00  0.00    -0.198 OA
BRANCH  10  13
ATOM     13  C   UNL d   1      32.882  23.702 -18.253  0.00  0.00     0.117 C 
ATOM     14  C   UNL d   1      32.595  23.634 -17.491  0.00  0.00     0.014 C 
ENDBRANCH  10  13
ENDBRANCH   9  10
ENDBRANCH   8   9
ENDBRANCH   1   8
TORSDOF 5
ENDMDL
