MODEL 1
REMARK VINA RESULT:      -7.5      0.000      0.000
REMARK  5 active torsions:
REMARK  status: ('A' for Active; 'I' for Inactive)
REMARK    1  A    between atoms: C_2  and  C_1 
REMARK    2  A    between atoms: S_3  and  C_4 
REMARK    3  A    between atoms: C_7  and  S_3 
REMARK    4  A    between atoms: C_5  and  C_7 
REMARK    5  A    between atoms: C_6  and  C_5 
ROOT
ATOM      1  S   UNL d   1     -48.712  14.043  22.625  0.00  0.00    -0.083 SA
ENDROOT
BRANCH   1   2
ATOM      2  C   UNL d   1     -49.464  13.964  22.251  0.00  0.00     0.035 A 
ATOM      3  C   UNL d   1     -50.075  14.503  22.381  0.00  0.00     0.070 A 
ATOM      4  C   UNL d   1     -50.791  14.409  22.011  0.00  0.00     0.007 A 
ATOM      5  C   UNL d   1     -50.925  13.779  21.502  0.00  0.00     0.000 A 
ATOM      6  C   UNL d   1     -50.309  13.224  21.363  0.00  0.00     0.001 A 
ATOM      7  C   UNL d   1     -49.583  13.341  21.753  0.00  0.00     0.007 A 
BRANCH   3   8
ATOM      8  C   UNL d   1     -49.957  15.137  22.886  0.00  0.00     0.211 C 
ATOM      9  O   UNL d   1     -50.153  15.047  23.698  0.00  0.00    -0.644 OA
ATOM     10  O   UNL d   1     -49.650  15.852  22.604  0.00  0.00    -0.644 OA
ENDBRANCH   3   8
ENDBRANCH   1   2
BRANCH   1  11
ATOM     11  C   UNL d   1     -48.251  13.387  22.699  0.00  0.00     0.077 C 
BRANCH  11  12
ATOM     12  C   UNL d   1     -47.461  13.457  22.957  0.00  0.00     0.202 C 
ATOM     13  O   UNL d   1     -47.119  14.200  23.006  0.00  0.00    -0.286 OA
BRANCH  12  14
ATOM     14  C   UNL d   1     -47.063  12.765  23.149  0.00  0.00     0.040 A 
ATOM     15  C   UNL d   1     -46.251  12.717  22.948  0.00  0.00     0.003 A 
ATOM     16  C   UNL d   1     -45.837  12.029  23.135  0.00  0.00     0.000 A 
ATOM     17  C   UNL d   1     -46.208  11.429  23.498  0.00  0.00     0.000 A 
ATOM     18  C   UNL d   1     -47.019  11.479  23.698  0.00  0.00     0.000 A 
ATOM     19  C   UNL d   1     -45.785  10.721  23.691  0.00  0.00     0.000 C 
ATOM     20  C   UNL d   1     -47.431  12.180  23.505  0.00  0.00     0.003 A 
ENDBRANCH  12  14
ENDBRANCH  11  12
ENDBRANCH   1  11
TORSDOF 5
ENDMDL
MODEL 2
REMARK VINA RESULT:      -7.2      1.271      4.290
REMARK  5 active torsions:
REMARK  status: ('A' for Active; 'I' for Inactive)
REMARK    1  A    between atoms: C_2  and  C_1 
REMARK    2  A    between atoms: S_3  and  C_4 
REMARK    3  A    between atoms: C_7  and  S_3 
REMARK    4  A    between atoms: C_5  and  C_7 
REMARK    5  A    between atoms: C_6  and  C_5 
ROOT
ATOM      1  S   UNL d   1     -47.247  13.425  22.631  0.00  0.00    -0.083 SA
ENDROOT
BRANCH   1   2
ATOM      2  C   UNL d   1     -46.942  12.714  22.970  0.00  0.00     0.035 A 
ATOM      3  C   UNL d   1     -46.143  12.515  22.921  0.00  0.00     0.070 A 
ATOM      4  C   UNL d   1     -45.870  11.827  23.253  0.00  0.00     0.007 A 
ATOM      5  C   UNL d   1     -46.380  11.314  23.642  0.00  0.00     0.000 A 
ATOM      6  C   UNL d   1     -47.197  11.508  23.697  0.00  0.00     0.001 A 
ATOM      7  C   UNL d   1     -47.452  12.219  23.349  0.00  0.00     0.007 A 
BRANCH   3   8
ATOM      8  C   UNL d   1     -45.622  13.016  22.536  0.00  0.00     0.211 C 
ATOM      9  O   UNL d   1     -45.352  13.702  22.937  0.00  0.00    -0.644 OA
ATOM     10  O   UNL d   1     -45.367  12.851  21.766  0.00  0.00    -0.644 OA
ENDBRANCH   3   8
ENDBRANCH   1   2
BRANCH   1  11
ATOM     11  C   UNL d   1     -47.984  13.666  22.847  0.00  0.00     0.077 C 
BRANCH  11  12
ATOM     12  C   UNL d   1     -48.390  14.232  22.390  0.00  0.00     0.202 C 
ATOM     13  O   UNL d   1     -48.103  14.431  21.648  0.00  0.00    -0.286 OA
BRANCH  12  14
ATOM     14  C   UNL d   1     -49.066  14.566  22.715  0.00  0.00     0.040 A 
ATOM     15  C   UNL d   1     -49.037  15.380  22.917  0.00  0.00     0.003 A 
ATOM     16  C   UNL d   1     -49.708  15.730  23.243  0.00  0.00     0.000 A 
ATOM     17  C   UNL d   1     -50.363  15.298  23.361  0.00  0.00     0.000 A 
ATOM     18  C   UNL d   1     -50.390  14.487  23.159  0.00  0.00     0.000 A 
ATOM     19  C   UNL d   1     -51.054  15.656  23.697  0.00  0.00     0.000 C 
ATOM     20  C   UNL d   1     -49.705  14.140  22.828  0.00  0.00     0.003 A 
ENDBRANCH  12  14
ENDBRANCH  11  12
ENDBRANCH   1  11
TORSDOF 5
ENDMDL
MODEL 3
REMARK VINA RESULT:      -7.1      1.577      1.903
REMARK  5 active torsions:
REMARK  status: ('A' for Active; 'I' for Inactive)
REMARK    1  A    between atoms: C_2  and  C_1 
REMARK    2  A    between atoms: S_3  and  C_4 
REMARK    3  A    between atoms: C_7  and  S_3 
REMARK    4  A    between atoms: C_5  and  C_7 
REMARK    5  A    between atoms: C_6  and  C_5 
ROOT
ATOM      1  S   UNL d   1     -49.188  13.665  22.953  0.00  0.00    -0.083 SA
ENDROOT
BRANCH   1   2
ATOM      2  C   UNL d   1     -49.738  13.073  23.198  0.00  0.00     0.035 A 
ATOM      3  C   UNL d   1     -50.553  13.204  23.188  0.00  0.00     0.070 A 
ATOM      4  C   UNL d   1     -51.064  12.622  23.427  0.00  0.00     0.007 A 
ATOM      5  C   UNL d   1     -50.787  11.893  23.683  0.00  0.00     0.000 A 
ATOM      6  C   UNL d   1     -49.958  11.750  23.698  0.00  0.00     0.001 A 
ATOM      7  C   UNL d   1     -49.453  12.362  23.448  0.00  0.00     0.007 A 
BRANCH   3   8
ATOM      8  C   UNL d   1     -50.845  13.926  22.934  0.00  0.00     0.211 C 
ATOM      9  O   UNL d   1     -50.965  14.533  23.501  0.00  0.00    -0.644 OA
ATOM     10  O   UNL d   1     -51.019  14.055  22.135  0.00  0.00    -0.644 OA
ENDBRANCH   3   8
ENDBRANCH   1   2
BRANCH   1  11
ATOM     11  C   UNL d   1     -48.414  13.458  22.871  0.00  0.00     0.077 C 
BRANCH  11  12
ATOM     12  C   UNL d   1     -47.851  14.024  22.633  0.00  0.00     0.202 C 
ATOM     13  O   UNL d   1     -48.075  14.810  22.568  0.00  0.00    -0.286 OA
BRANCH  12  14
ATOM     14  C   UNL d   1     -47.090  13.759  22.475  0.00  0.00     0.040 A 
ATOM     15  C   UNL d   1     -46.478  14.011  22.990  0.00  0.00     0.003 A 
ATOM     16  C   UNL d   1     -45.709  13.753  22.845  0.00  0.00     0.000 A 
ATOM     17  C   UNL d   1     -45.560  13.276  22.227  0.00  0.00     0.000 A 
ATOM     18  C   UNL d   1     -46.173  13.026  21.715  0.00  0.00     0.000 A 
ATOM     19  C   UNL d   1     -44.770  13.010  22.076  0.00  0.00     0.000 C 
ATOM     20  C   UNL d   1     -46.950  13.292  21.870  0.00  0.00     0.003 A 
ENDBRANCH  12  14
ENDBRANCH  11  12
ENDBRANCH   1  11
TORSDOF 5
ENDMDL
MODEL 4
REMARK VINA RESULT:      -6.3      8.234      9.957
REMARK  5 active torsions:
REMARK  status: ('A' for Active; 'I' for Inactive)
REMARK    1  A    between atoms: C_2  and  C_1 
REMARK    2  A    between atoms: S_3  and  C_4 
REMARK    3  A    between atoms: C_7  and  S_3 
REMARK    4  A    between atoms: C_5  and  C_7 
REMARK    5  A    between atoms: C_6  and  C_5 
ROOT
ATOM      1  S   UNL d   1     -40.271  14.773  19.551  0.00  0.00    -0.083 SA
ENDROOT
BRANCH   1   2
ATOM      2  C   UNL d   1     -39.941  15.123  20.244  0.00  0.00     0.035 A 
ATOM      3  C   UNL d   1     -40.413  15.375  20.873  0.00  0.00     0.070 A 
ATOM      4  C   UNL d   1     -40.077  15.709  21.531  0.00  0.00     0.007 A 
ATOM      5  C   UNL d   1     -39.264  15.804  21.588  0.00  0.00     0.000 A 
ATOM      6  C   UNL d   1     -38.773  15.551  20.953  0.00  0.00     0.001 A 
ATOM      7  C   UNL d   1     -39.142  15.212  20.289  0.00  0.00     0.007 A 
BRANCH   3   8
ATOM      8  C   UNL d   1     -41.227  15.287  20.831  0.00  0.00     0.211 C 
ATOM      9  O   UNL d   1     -41.686  15.922  20.529  0.00  0.00    -0.644 OA
ATOM     10  O   UNL d   1     -41.590  14.586  21.080  0.00  0.00    -0.644 OA
ENDBRANCH   3   8
ENDBRANCH   1   2
BRANCH   1  11
ATOM     11  C   UNL d   1     -39.768  14.507  18.982  0.00  0.00     0.077 C 
BRANCH  11  12
ATOM     12  C   UNL d   1     -40.069  14.185  18.274  0.00  0.00     0.202 C 
ATOM     13  O   UNL d   1     -40.873  14.039  18.209  0.00  0.00    -0.286 OA
BRANCH  12  14
ATOM     14  C   UNL d   1     -39.534  14.031  17.671  0.00  0.00     0.040 A 
ATOM     15  C   UNL d   1     -39.477  14.592  17.050  0.00  0.00     0.003 A 
ATOM     16  C   UNL d   1     -38.945  14.452  16.437  0.00  0.00     0.000 A 
ATOM     17  C   UNL d   1     -38.498  13.795  16.442  0.00  0.00     0.000 A 
ATOM     18  C   UNL d   1     -38.556  13.236  17.062  0.00  0.00     0.000 A 
ATOM     19  C   UNL d   1     -37.950  13.649  15.813  0.00  0.00     0.000 C 
ATOM     20  C   UNL d   1     -39.099  13.387  17.680  0.00  0.00     0.003 A 
ENDBRANCH  12  14
ENDBRANCH  11  12
ENDBRANCH   1  11
TORSDOF 5
ENDMDL
MODEL 5
REMARK VINA RESULT:      -6.3      8.704      9.785
REMARK  5 active torsions:
REMARK  status: ('A' for Active; 'I' for Inactive)
REMARK    1  A    between atoms: C_2  and  C_1 
REMARK    2  A    between atoms: S_3  and  C_4 
REMARK    3  A    between atoms: C_7  and  S_3 
REMARK    4  A    between atoms: C_5  and  C_7 
REMARK    5  A    between atoms: C_6  and  C_5 
ROOT
ATOM      1  S   UNL d   1     -40.277  14.457  18.631  0.00  0.00    -0.083 SA
ENDROOT
BRANCH   1   2
ATOM      2  C   UNL d   1     -39.792  14.241  17.975  0.00  0.00     0.035 A 
ATOM      3  C   UNL d   1     -39.911  14.557  17.221  0.00  0.00     0.070 A 
ATOM      4  C   UNL d   1     -39.433  14.336  16.604  0.00  0.00     0.007 A 
ATOM      5  C   UNL d   1     -38.824  13.797  16.712  0.00  0.00     0.000 A 
ATOM      6  C   UNL d   1     -38.694  13.469  17.476  0.00  0.00     0.001 A 
ATOM      7  C   UNL d   1     -39.197  13.711  18.093  0.00  0.00     0.007 A 
BRANCH   3   8
ATOM      8  C   UNL d   1     -40.515  15.096  17.098  0.00  0.00     0.211 C 
ATOM      9  O   UNL d   1     -40.335  15.916  17.126  0.00  0.00    -0.644 OA
ATOM     10  O   UNL d   1     -41.287  14.840  16.948  0.00  0.00    -0.644 OA
ENDBRANCH   3   8
ENDBRANCH   1   2
BRANCH   1  11
ATOM     11  C   UNL d   1     -39.963  14.410  19.370  0.00  0.00     0.077 C 
BRANCH  11  12
ATOM     12  C   UNL d   1     -40.452  14.492  20.040  0.00  0.00     0.202 C 
ATOM     13  O   UNL d   1     -41.234  14.245  19.999  0.00  0.00    -0.286 OA
BRANCH  12  14
ATOM     14  C   UNL d   1     -40.120  14.820  20.715  0.00  0.00     0.040 A 
ATOM     15  C   UNL d   1     -39.726  14.302  21.243  0.00  0.00     0.003 A 
ATOM     16  C   UNL d   1     -39.386  14.615  21.925  0.00  0.00     0.000 A 
ATOM     17  C   UNL d   1     -39.436  15.394  22.071  0.00  0.00     0.000 A 
ATOM     18  C   UNL d   1     -39.830  15.910  21.542  0.00  0.00     0.000 A 
ATOM     19  C   UNL d   1     -39.088  15.719  22.771  0.00  0.00     0.000 C 
ATOM     20  C   UNL d   1     -40.171  15.583  20.853  0.00  0.00     0.003 A 
ENDBRANCH  12  14
ENDBRANCH  11  12
ENDBRANCH   1  11
TORSDOF 5
ENDMDL
MODEL 6
REMARK VINA RESULT:      -5.3      8.583      9.967
REMARK  5 active torsions:
REMARK  status: ('A' for Active; 'I' for Inactive)
REMARK    1  A    between atoms: C_2  and  C_1 
REMARK    2  A    between atoms: S_3  and  C_4 
REMARK    3  A    between atoms: C_7  and  S_3 
REMARK    4  A    between atoms: C_5  and  C_7 
REMARK    5  A    between atoms: C_6  and  C_5 
ROOT
ATOM      1  S   UNL d   1     -39.688  14.392  21.285  0.00  0.00    -0.083 SA
ENDROOT
BRANCH   1   2
ATOM      2  C   UNL d   1     -39.141  14.737  21.828  0.00  0.00     0.035 A 
ATOM      3  C   UNL d   1     -38.677  14.275  22.332  0.00  0.00     0.070 A 
ATOM      4  C   UNL d   1     -38.158  14.625  22.847  0.00  0.00     0.007 A 
ATOM      5  C   UNL d   1     -38.081  15.442  22.881  0.00  0.00     0.000 A 
ATOM      6  C   UNL d   1     -38.549  15.921  22.372  0.00  0.00     0.001 A 
ATOM      7  C   UNL d   1     -39.075  15.539  21.853  0.00  0.00     0.007 A 
BRANCH   3   8
ATOM      8  C   UNL d   1     -38.742  13.459  22.310  0.00  0.00     0.211 C 
ATOM      9  O   UNL d   1     -39.277  13.083  22.837  0.00  0.00    -0.644 OA
ATOM     10  O   UNL d   1     -38.292  13.012  21.778  0.00  0.00    -0.644 OA
ENDBRANCH   3   8
ENDBRANCH   1   2
BRANCH   1  11
ATOM     11  C   UNL d   1     -39.923  14.830  20.651  0.00  0.00     0.077 C 
BRANCH  11  12
ATOM     12  C   UNL d   1     -40.558  14.573  20.177  0.00  0.00     0.202 C 
ATOM     13  O   UNL d   1     -41.159  14.130  20.516  0.00  0.00    -0.286 OA
BRANCH  12  14
ATOM     14  C   UNL d   1     -40.547  14.782  19.383  0.00  0.00     0.040 A 
ATOM     15  C   UNL d   1     -40.464  14.165  18.822  0.00  0.00     0.003 A 
ATOM     16  C   UNL d   1     -40.451  14.357  18.021  0.00  0.00     0.000 A 
ATOM     17  C   UNL d   1     -40.516  15.116  17.794  0.00  0.00     0.000 A 
ATOM     18  C   UNL d   1     -40.599  15.730  18.356  0.00  0.00     0.000 A 
ATOM     19  C   UNL d   1     -40.503  15.317  16.972  0.00  0.00     0.000 C 
ATOM     20  C   UNL d   1     -40.611  15.525  19.167  0.00  0.00     0.003 A 
ENDBRANCH  12  14
ENDBRANCH  11  12
ENDBRANCH   1  11
TORSDOF 5
ENDMDL
MODEL 7
REMARK VINA RESULT:      -5.3      9.452     10.143
REMARK  5 active torsions:
REMARK  status: ('A' for Active; 'I' for Inactive)
REMARK    1  A    between atoms: C_2  and  C_1 
REMARK    2  A    between atoms: S_3  and  C_4 
REMARK    3  A    between atoms: C_7  and  S_3 
REMARK    4  A    between atoms: C_5  and  C_7 
REMARK    5  A    between atoms: C_6  and  C_5 
ROOT
ATOM      1  S   UNL d   1     -39.286  15.432  18.369  0.00  0.00    -0.083 SA
ENDROOT
BRANCH   1   2
ATOM      2  C   UNL d   1     -39.957  15.532  17.866  0.00  0.00     0.035 A 
ATOM      3  C   UNL d   1     -39.928  15.357  17.060  0.00  0.00     0.070 A 
ATOM      4  C   UNL d   1     -40.583  15.460  16.594  0.00  0.00     0.007 A 
ATOM      5  C   UNL d   1     -41.287  15.739  16.910  0.00  0.00     0.000 A 
ATOM      6  C   UNL d   1     -41.328  15.921  17.730  0.00  0.00     0.001 A 
ATOM      7  C   UNL d   1     -40.642  15.807  18.188  0.00  0.00     0.007 A 
BRANCH   3   8
ATOM      8  C   UNL d   1     -39.232  15.077  16.730  0.00  0.00     0.211 C 
ATOM      9  O   UNL d   1     -38.689  15.629  16.405  0.00  0.00    -0.644 OA
ATOM     10  O   UNL d   1     -39.066  14.266  16.717  0.00  0.00    -0.644 OA
ENDBRANCH   3   8
ENDBRANCH   1   2
BRANCH   1  11
ATOM     11  C   UNL d   1     -39.410  15.364  19.162  0.00  0.00     0.077 C 
BRANCH  11  12
ATOM     12  C   UNL d   1     -38.764  15.368  19.689  0.00  0.00     0.202 C 
ATOM     13  O   UNL d   1     -38.097  15.807  19.503  0.00  0.00    -0.286 OA
BRANCH  12  14
ATOM     14  C   UNL d   1     -38.834  14.925  20.376  0.00  0.00     0.040 A 
ATOM     15  C   UNL d   1     -39.190  15.295  21.040  0.00  0.00     0.003 A 
ATOM     16  C   UNL d   1     -39.267  14.864  21.738  0.00  0.00     0.000 A 
ATOM     17  C   UNL d   1     -39.007  14.115  21.772  0.00  0.00     0.000 A 
ATOM     18  C   UNL d   1     -38.653  13.748  21.109  0.00  0.00     0.000 A 
ATOM     19  C   UNL d   1     -39.086  13.669  22.489  0.00  0.00     0.000 C 
ATOM     20  C   UNL d   1     -38.578  14.193  20.405  0.00  0.00     0.003 A 
ENDBRANCH  12  14
ENDBRANCH  11  12
ENDBRANCH   1  11
TORSDOF 5
ENDMDL
