MODEL 1
REMARK VINA RESULT:      42.4      0.000      0.000
REMARK  5 active torsions:
REMARK  status: ('A' for Active; 'I' for Inactive)
REMARK    1  A    between atoms: N_6  and  S_1 
REMARK    2  A    between atoms: C_11  and  S_1 
REMARK    3  A    between atoms: C_2  and  N_5 
REMARK    4  A    between atoms: C_9  and  C_4 
REMARK       I    between atoms: N_5  and  C_7 
REMARK    5  A    between atoms: C_7  and  C_15 
ROOT
ATOM      1  C   UNL d   1      46.227 -18.883  42.062  0.00  0.00     0.104 A 
ATOM      2  C   UNL d   1      45.996 -18.182  40.511  0.00  0.00     0.058 A 
ATOM      3  C   UNL d   1      45.837 -18.128  41.955  0.00  0.00     0.013 A 
ATOM      4  C   UNL d   1      46.481 -19.244  41.368  0.00  0.00     0.013 A 
ATOM      5  C   UNL d   1      46.372 -18.909  40.612  0.00  0.00     0.005 A 
ATOM      6  C   UNL d   1      45.716 -17.777  41.229  0.00  0.00     0.005 A 
ENDROOT
BRANCH   2   7
ATOM      7  C   UNL d   1      45.883 -17.845  39.792  0.00  0.00     0.281 C 
ATOM      8  N   UNL d   1      45.159 -17.491  39.591  0.00  0.00    -0.183 NA
ATOM      9  O   UNL d   1      46.523 -17.853  39.223  0.00  0.00    -0.265 OA
BRANCH   8  10
ATOM     10  C   UNL d   1      45.030 -17.124  38.812  0.00  0.00     0.197 A 
ATOM     11  N   UNL d   1      45.326 -16.356  38.574  0.00  0.00    -0.220 NA
ATOM     12  C   UNL d   1      45.076 -16.212  37.780  0.00  0.00     0.096 A 
ATOM     13  C   UNL d   1      44.623 -16.910  37.540  0.00  0.00     0.058 A 
ATOM     14  S   UNL d   1      44.608 -17.447  38.179  0.00  0.00    -0.046 SA
BRANCH  12  15
ATOM     15  C   UNL d   1      45.214 -15.562  37.301  0.00  0.00     0.048 A 
ATOM     16  S   UNL d   1      44.700 -15.181  36.796  0.00  0.00    -0.085 SA
ATOM     17  C   UNL d   1      45.081 -14.555  36.429  0.00  0.00     0.035 A 
ATOM     18  C   UNL d   1      45.848 -14.560  36.721  0.00  0.00     0.007 A 
ATOM     19  C   UNL d   1      45.932 -15.177  37.257  0.00  0.00     0.009 A 
ENDBRANCH  12  15
ENDBRANCH   8  10
ENDBRANCH   2   7
BRANCH   1  20
ATOM     20  S   UNL d   1      46.330 -19.208  42.824  0.00  0.00     0.271 S 
ATOM     21  O   UNL d   1      46.596 -18.462  43.106  0.00  0.00    -0.200 OA
ATOM     22  O   UNL d   1      46.063 -19.972  42.555  0.00  0.00    -0.200 OA
BRANCH  20  23
ATOM     23  N   UNL d   1      46.433 -19.553  43.605  0.00  0.00    -0.229 N 
ATOM     24  C   UNL d   1      46.444 -20.328  43.898  0.00  0.00     0.092 A 
ATOM     25  C   UNL d   1      46.567 -20.307  44.705  0.00  0.00     0.021 A 
ATOM     26  C   UNL d   1      46.638 -19.521  44.955  0.00  0.00     0.021 A 
ATOM     27  C   UNL d   1      46.553 -19.061  44.262  0.00  0.00     0.092 A 
ENDBRANCH  20  23
ENDBRANCH   1  20
TORSDOF 5
ENDMDL
