MODEL 1
REMARK VINA RESULT:     140.8      0.000      0.000
REMARK  4 active torsions:
REMARK  status: ('A' for Active; 'I' for Inactive)
REMARK    1  A    between atoms: C_8  and  S_1 
REMARK    2  A    between atoms: C_2  and  C_10 
REMARK    3  A    between atoms: C_6  and  C_14 
REMARK       I    between atoms: N_9  and  C_6 
REMARK    4  A    between atoms: C_23  and  N_9 
ROOT
ATOM      1  C   UNL d   1      62.506  42.183  50.153  0.00  0.00     0.024 A 
ATOM      2  C   UNL d   1      62.192  42.410  50.872  0.00  0.00     0.004 A 
ATOM      3  C   UNL d   1      62.690  42.743  49.581  0.00  0.00     0.004 A 
ATOM      4  C   UNL d   1      62.240  43.778  50.453  0.00  0.00     0.085 A 
ATOM      5  C   UNL d   1      62.558  43.544  49.727  0.00  0.00     0.019 A 
ATOM      6  C   UNL d   1      62.057  43.210  51.026  0.00  0.00     0.019 A 
ENDROOT
BRANCH   4   7
ATOM      7  N   UNL d   1      62.105  44.581  50.608  0.00  0.00    -0.208 NA
ATOM      8  C   UNL d   1      61.581  45.003  50.134  0.00  0.00     0.279 C 
ATOM      9  O   UNL d   1      61.191  44.639  49.509  0.00  0.00    -0.265 OA
BRANCH   8  10
ATOM     10  C   UNL d   1      61.447  45.799  50.287  0.00  0.00     0.058 A 
ATOM     11  C   UNL d   1      60.805  46.028  50.753  0.00  0.00     0.005 A 
ATOM     12  C   UNL d   1      60.671  46.820  50.905  0.00  0.00     0.013 A 
ATOM     13  C   UNL d   1      61.185  47.402  50.591  0.00  0.00     0.107 A 
ATOM     14  C   UNL d   1      61.827  47.177  50.126  0.00  0.00     0.013 A 
ATOM     15  C   UNL d   1      61.962  46.374  49.971  0.00  0.00     0.005 A 
BRANCH  13  16
ATOM     16  S   UNL d   1      61.049  48.205  50.746  0.00  0.00     0.302 S 
ATOM     17  O   UNL d   1      61.049  48.050  51.551  0.00  0.00    -0.197 OA
ATOM     18  O   UNL d   1      61.052  48.350  49.933  0.00  0.00    -0.197 OA
ATOM     19  N   UNL d   1      60.916  49.003  50.890  0.00  0.00    -0.043 N 
ENDBRANCH  13  16
ENDBRANCH   8  10
ENDBRANCH   4   7
BRANCH   1  20
ATOM     20  C   UNL d   1      62.639  41.379  50.003  0.00  0.00     0.112 A 
ATOM     21  S   UNL d   1      62.579  41.008  49.256  0.00  0.00    -0.047 SA
ATOM     22  C   UNL d   1      62.758  40.202  49.359  0.00  0.00     0.130 A 
ATOM     23  N   UNL d   1      62.789  39.570  48.828  0.00  0.00    -0.236 NA
ATOM     24  C   UNL d   1      62.928  40.074  50.164  0.00  0.00     0.106 A 
ATOM     25  C   UNL d   1      62.988  38.813  49.095  0.00  0.00     0.100 A 
ATOM     26  C   UNL d   1      63.158  38.689  49.905  0.00  0.00     0.022 A 
ATOM     27  C   UNL d   1      63.126  39.321  50.431  0.00  0.00     0.023 A 
ATOM     28  N   UNL d   1      62.851  40.814  50.557  0.00  0.00    -0.237 NA
ENDBRANCH   1  20
TORSDOF 4
ENDMDL
