MODEL 1
REMARK VINA RESULT:      -1.1      0.000      0.000
REMARK  4 active torsions:
REMARK  status: ('A' for Active; 'I' for Inactive)
REMARK    1  A    between atoms: C_5  and  C_1 
REMARK    2  A    between atoms: C_9  and  C_6 
REMARK    3  A    between atoms: C_10  and  C_9 
REMARK    4  A    between atoms: C_11  and  C_10 
ROOT
ATOM      1  C   UNL d   1      23.346  13.216  -0.333  0.00  0.00     0.169 A 
ATOM      2  N   UNL d   1      23.208  12.472  -0.014  0.00  0.00    -0.142 NA
ATOM      3  C   UNL d   1      23.945  13.143  -0.898  0.00  0.00     0.048 A 
ATOM      4  N   UNL d   1      23.716  11.932  -0.375  0.00  0.00    -0.148 NA
ATOM      5  C   UNL d   1      24.174  12.351  -0.924  0.00  0.00     0.105 A 
ENDROOT
BRANCH   5   6
ATOM      6  C   UNL d   1      24.762  12.020  -1.415  0.00  0.00     0.021 C 
BRANCH   6   7
ATOM      7  C   UNL d   1      24.584  11.804  -2.188  0.00  0.00     0.002 C 
BRANCH   7   8
ATOM      8  C   UNL d   1      24.669  12.348  -2.799  0.00  0.00     0.000 C 
ATOM      9  C   UNL d   1      24.758  12.079  -3.576  0.00  0.00     0.000 C 
ENDBRANCH   7   8
ENDBRANCH   6   7
ENDBRANCH   5   6
BRANCH   1  10
ATOM     10  C   UNL d   1      22.958  13.913  -0.128  0.00  0.00     0.231 C 
ATOM     11  O   UNL d   1      23.393  14.605  -0.014  0.00  0.00    -0.643 OA
ATOM     12  O   UNL d   1      22.137  13.920  -0.036  0.00  0.00    -0.643 OA
ENDBRANCH   1  10
TORSDOF 4
ENDMDL
MODEL 2
REMARK VINA RESULT:       1.3      2.634      3.652
REMARK  4 active torsions:
REMARK  status: ('A' for Active; 'I' for Inactive)
REMARK    1  A    between atoms: C_5  and  C_1 
REMARK    2  A    between atoms: C_9  and  C_6 
REMARK    3  A    between atoms: C_10  and  C_9 
REMARK    4  A    between atoms: C_11  and  C_10 
ROOT
ATOM      1  C   UNL d   1      24.768  12.560  -3.859  0.00  0.00     0.169 A 
ATOM      2  N   UNL d   1      24.768  11.781  -3.598  0.00  0.00    -0.142 NA
ATOM      3  C   UNL d   1      24.768  13.051  -3.193  0.00  0.00     0.048 A 
ATOM      4  N   UNL d   1      24.768  11.779  -2.774  0.00  0.00    -0.148 NA
ATOM      5  C   UNL d   1      24.768  12.569  -2.523  0.00  0.00     0.105 A 
ENDROOT
BRANCH   5   6
ATOM      6  C   UNL d   1      24.768  12.823  -1.729  0.00  0.00     0.021 C 
BRANCH   6   7
ATOM      7  C   UNL d   1      24.086  12.765  -1.274  0.00  0.00     0.002 C 
BRANCH   7   8
ATOM      8  C   UNL d   1      24.062  13.095  -0.521  0.00  0.00     0.000 C 
ATOM      9  C   UNL d   1      23.342  13.137  -0.116  0.00  0.00     0.000 C 
ENDBRANCH   7   8
ENDBRANCH   6   7
ENDBRANCH   5   6
BRANCH   1  10
ATOM     10  C   UNL d   1      24.768  12.811  -4.643  0.00  0.00     0.231 C 
ATOM     11  O   UNL d   1      24.768  12.253  -5.251  0.00  0.00    -0.643 OA
ATOM     12  O   UNL d   1      24.768  13.618  -4.822  0.00  0.00    -0.643 OA
ENDBRANCH   1  10
TORSDOF 4
ENDMDL
