MODEL 1
REMARK VINA RESULT:      -9.3      0.000      0.000
REMARK  3 active torsions:
REMARK  status: ('A' for Active; 'I' for Inactive)
REMARK    1  A    between atoms: C_6  and  C_1 
REMARK    2  A    between atoms: C_7  and  C_6 
REMARK    3  A    between atoms: O_17  and  C_15 
ROOT
ATOM      1  C   UNL d   1      53.659  32.227  53.497  0.00  0.00     0.141 A 
ATOM      2  C   UNL d   1      53.013  31.097  53.202  0.00  0.00     0.064 A 
ATOM      3  C   UNL d   1      53.073  31.896  53.019  0.00  0.00     0.220 A 
ATOM      4  C   UNL d   1      53.562  30.927  53.795  0.00  0.00     0.105 A 
ATOM      5  O   UNL d   1      53.967  31.629  53.982  0.00  0.00    -0.304 OA
ATOM      6  C   UNL d   1      53.625  30.165  54.088  0.00  0.00     0.049 A 
ATOM      7  C   UNL d   1      52.527  30.500  52.904  0.00  0.00     0.007 A 
ATOM      8  O   UNL d   1      52.625  32.306  52.453  0.00  0.00    -0.284 OA
ATOM      9  C   UNL d   1      53.140  29.568  53.791  0.00  0.00     0.096 A 
ATOM     10  C   UNL d   1      52.594  29.737  53.200  0.00  0.00     0.024 A 
ENDROOT
BRANCH   1  11
ATOM     11  C   UNL d   1      53.902  33.016  53.498  0.00  0.00     0.053 C 
BRANCH  11  12
ATOM     12  C   UNL d   1      54.255  33.348  54.171  0.00  0.00     0.102 A 
ATOM     13  O   UNL d   1      55.046  33.288  54.391  0.00  0.00    -0.305 OA
ATOM     14  C   UNL d   1      55.151  33.702  55.097  0.00  0.00     0.123 A 
ATOM     15  C   UNL d   1      54.421  34.025  55.321  0.00  0.00     0.029 A 
ATOM     16  C   UNL d   1      53.863  33.807  54.748  0.00  0.00     0.027 A 
ENDBRANCH  11  12
ENDBRANCH   1  11
BRANCH   9  17
ATOM     17  O   UNL d   1      53.204  28.801  54.086  0.00  0.00    -0.328 OA
ATOM     18  C   UNL d   1      53.321  28.677  54.891  0.00  0.00     0.181 C 
ENDBRANCH   9  17
TORSDOF 3
ENDMDL
MODEL 2
REMARK VINA RESULT:      -9.1      1.942      2.831
REMARK  3 active torsions:
REMARK  status: ('A' for Active; 'I' for Inactive)
REMARK    1  A    between atoms: C_6  and  C_1 
REMARK    2  A    between atoms: C_7  and  C_6 
REMARK    3  A    between atoms: O_17  and  C_15 
ROOT
ATOM      1  C   UNL d   1      52.579  33.308  52.918  0.00  0.00     0.141 A 
ATOM      2  C   UNL d   1      53.314  32.344  53.476  0.00  0.00     0.064 A 
ATOM      3  C   UNL d   1      53.210  33.157  53.428  0.00  0.00     0.220 A 
ATOM      4  C   UNL d   1      52.746  31.984  52.996  0.00  0.00     0.105 A 
ATOM      5  O   UNL d   1      52.286  32.582  52.646  0.00  0.00    -0.304 OA
ATOM      6  C   UNL d   1      52.718  31.168  52.937  0.00  0.00     0.049 A 
ATOM      7  C   UNL d   1      53.853  31.882  53.897  0.00  0.00     0.007 A 
ATOM      8  O   UNL d   1      53.660  33.734  53.821  0.00  0.00    -0.284 OA
ATOM      9  C   UNL d   1      53.257  30.706  53.358  0.00  0.00     0.096 A 
ATOM     10  C   UNL d   1      53.821  31.064  53.835  0.00  0.00     0.024 A 
ENDROOT
BRANCH   1  11
ATOM     11  C   UNL d   1      52.285  34.051  52.710  0.00  0.00     0.053 C 
BRANCH  11  12
ATOM     12  C   UNL d   1      51.469  34.170  52.616  0.00  0.00     0.102 A 
ATOM     13  O   UNL d   1      50.910  34.238  53.217  0.00  0.00    -0.305 OA
ATOM     14  C   UNL d   1      50.170  34.352  52.870  0.00  0.00     0.123 A 
ATOM     15  C   UNL d   1      50.266  34.356  52.046  0.00  0.00     0.029 A 
ATOM     16  C   UNL d   1      51.070  34.244  51.886  0.00  0.00     0.027 A 
ENDBRANCH  11  12
ENDBRANCH   1  11
BRANCH   9  17
ATOM     17  O   UNL d   1      53.228  29.884  53.298  0.00  0.00    -0.328 OA
ATOM     18  C   UNL d   1      53.237  29.419  53.977  0.00  0.00     0.181 C 
ENDBRANCH   9  17
TORSDOF 3
ENDMDL
MODEL 3
REMARK VINA RESULT:      -8.8      1.715      3.906
REMARK  3 active torsions:
REMARK  status: ('A' for Active; 'I' for Inactive)
REMARK    1  A    between atoms: C_6  and  C_1 
REMARK    2  A    between atoms: C_7  and  C_6 
REMARK    3  A    between atoms: O_17  and  C_15 
ROOT
ATOM      1  C   UNL d   1      53.358  32.249  53.247  0.00  0.00     0.141 A 
ATOM      2  C   UNL d   1      52.865  33.487  53.328  0.00  0.00     0.064 A 
ATOM      3  C   UNL d   1      53.493  33.005  53.548  0.00  0.00     0.220 A 
ATOM      4  C   UNL d   1      52.336  33.031  52.887  0.00  0.00     0.105 A 
ATOM      5  O   UNL d   1      52.639  32.259  52.835  0.00  0.00    -0.304 OA
ATOM      6  C   UNL d   1      51.652  33.371  52.592  0.00  0.00     0.049 A 
ATOM      7  C   UNL d   1      52.707  34.284  53.471  0.00  0.00     0.007 A 
ATOM      8  O   UNL d   1      54.153  33.234  53.998  0.00  0.00    -0.284 OA
ATOM      9  C   UNL d   1      51.492  34.167  52.734  0.00  0.00     0.096 A 
ATOM     10  C   UNL d   1      52.020  34.621  53.173  0.00  0.00     0.024 A 
ENDROOT
BRANCH   1  11
ATOM     11  C   UNL d   1      53.849  31.591  53.337  0.00  0.00     0.053 C 
BRANCH  11  12
ATOM     12  C   UNL d   1      53.529  30.846  53.509  0.00  0.00     0.102 A 
ATOM     13  O   UNL d   1      53.386  30.533  54.258  0.00  0.00    -0.305 OA
ATOM     14  C   UNL d   1      53.065  29.779  54.166  0.00  0.00     0.123 A 
ATOM     15  C   UNL d   1      53.005  29.617  53.355  0.00  0.00     0.029 A 
ATOM     16  C   UNL d   1      53.292  30.277  52.945  0.00  0.00     0.027 A 
ENDBRANCH  11  12
ENDBRANCH   1  11
BRANCH   9  17
ATOM     17  O   UNL d   1      50.803  34.509  52.437  0.00  0.00    -0.328 OA
ATOM     18  C   UNL d   1      50.116  34.515  52.889  0.00  0.00     0.181 C 
ENDBRANCH   9  17
TORSDOF 3
ENDMDL
MODEL 4
REMARK VINA RESULT:      -8.6      0.645      3.662
REMARK  3 active torsions:
REMARK  status: ('A' for Active; 'I' for Inactive)
REMARK    1  A    between atoms: C_6  and  C_1 
REMARK    2  A    between atoms: C_7  and  C_6 
REMARK    3  A    between atoms: O_17  and  C_15 
ROOT
ATOM      1  C   UNL d   1      53.295  31.224  53.490  0.00  0.00     0.141 A 
ATOM      2  C   UNL d   1      53.347  32.555  53.557  0.00  0.00     0.064 A 
ATOM      3  C   UNL d   1      53.050  31.922  53.126  0.00  0.00     0.220 A 
ATOM      4  C   UNL d   1      53.779  32.253  54.193  0.00  0.00     0.105 A 
ATOM      5  O   UNL d   1      53.749  31.423  54.154  0.00  0.00    -0.304 OA
ATOM      6  C   UNL d   1      54.141  32.762  54.721  0.00  0.00     0.049 A 
ATOM      7  C   UNL d   1      53.280  33.371  53.454  0.00  0.00     0.007 A 
ATOM      8  O   UNL d   1      52.583  31.971  52.441  0.00  0.00    -0.284 OA
ATOM      9  C   UNL d   1      54.074  33.578  54.618  0.00  0.00     0.096 A 
ATOM     10  C   UNL d   1      53.645  33.879  53.986  0.00  0.00     0.024 A 
ENDROOT
BRANCH   1  11
ATOM     11  C   UNL d   1      53.122  30.455  53.241  0.00  0.00     0.053 C 
BRANCH  11  12
ATOM     12  C   UNL d   1      53.170  29.819  53.771  0.00  0.00     0.102 A 
ATOM     13  O   UNL d   1      52.608  29.604  54.332  0.00  0.00    -0.305 OA
ATOM     14  C   UNL d   1      52.886  28.940  54.736  0.00  0.00     0.123 A 
ATOM     15  C   UNL d   1      53.628  28.738  54.425  0.00  0.00     0.029 A 
ATOM     16  C   UNL d   1      53.807  29.281  53.827  0.00  0.00     0.027 A 
ENDBRANCH  11  12
ENDBRANCH   1  11
BRANCH   9  17
ATOM     17  O   UNL d   1      54.440  34.091  55.151  0.00  0.00    -0.328 OA
ATOM     18  C   UNL d   1      55.253  34.052  55.271  0.00  0.00     0.181 C 
ENDBRANCH   9  17
TORSDOF 3
ENDMDL
MODEL 5
REMARK VINA RESULT:      -8.5      2.095      3.407
REMARK  3 active torsions:
REMARK  status: ('A' for Active; 'I' for Inactive)
REMARK    1  A    between atoms: C_6  and  C_1 
REMARK    2  A    between atoms: C_7  and  C_6 
REMARK    3  A    between atoms: O_17  and  C_15 
ROOT
ATOM      1  C   UNL d   1      53.235  33.061  53.436  0.00  0.00     0.141 A 
ATOM      2  C   UNL d   1      52.004  33.113  52.923  0.00  0.00     0.064 A 
ATOM      3  C   UNL d   1      52.672  32.641  53.003  0.00  0.00     0.220 A 
ATOM      4  C   UNL d   1      52.150  33.831  53.306  0.00  0.00     0.105 A 
ATOM      5  O   UNL d   1      52.916  33.802  53.627  0.00  0.00    -0.304 OA
ATOM      6  C   UNL d   1      51.575  34.413  53.316  0.00  0.00     0.049 A 
ATOM      7  C   UNL d   1      51.280  32.983  52.550  0.00  0.00     0.007 A 
ATOM      8  O   UNL d   1      52.769  31.873  52.703  0.00  0.00    -0.284 OA
ATOM      9  C   UNL d   1      50.851  34.284  52.943  0.00  0.00     0.096 A 
ATOM     10  C   UNL d   1      50.706  33.570  52.561  0.00  0.00     0.024 A 
ENDROOT
BRANCH   1  11
ATOM     11  C   UNL d   1      53.989  32.796  53.646  0.00  0.00     0.053 C 
BRANCH  11  12
ATOM     12  C   UNL d   1      54.346  33.053  54.349  0.00  0.00     0.102 A 
ATOM     13  O   UNL d   1      54.129  32.843  55.115  0.00  0.00    -0.305 OA
ATOM     14  C   UNL d   1      54.634  33.228  55.642  0.00  0.00     0.123 A 
ATOM     15  C   UNL d   1      55.172  33.681  55.203  0.00  0.00     0.029 A 
ATOM     16  C   UNL d   1      54.996  33.575  54.401  0.00  0.00     0.027 A 
ENDBRANCH  11  12
ENDBRANCH   1  11
BRANCH   9  17
ATOM     17  O   UNL d   1      50.273  34.872  52.953  0.00  0.00    -0.328 OA
ATOM     18  C   UNL d   1      49.541  34.738  52.600  0.00  0.00     0.181 C 
ENDBRANCH   9  17
TORSDOF 3
ENDMDL
MODEL 6
REMARK VINA RESULT:      -8.5      1.969      3.652
REMARK  3 active torsions:
REMARK  status: ('A' for Active; 'I' for Inactive)
REMARK    1  A    between atoms: C_6  and  C_1 
REMARK    2  A    between atoms: C_7  and  C_6 
REMARK    3  A    between atoms: O_17  and  C_15 
ROOT
ATOM      1  C   UNL d   1      52.129  32.860  53.270  0.00  0.00     0.141 A 
ATOM      2  C   UNL d   1      53.406  32.629  53.582  0.00  0.00     0.064 A 
ATOM      3  C   UNL d   1      52.800  32.426  53.065  0.00  0.00     0.220 A 
ATOM      4  C   UNL d   1      53.113  33.192  54.111  0.00  0.00     0.105 A 
ATOM      5  O   UNL d   1      52.317  33.338  53.920  0.00  0.00    -0.304 OA
ATOM      6  C   UNL d   1      53.600  33.497  54.694  0.00  0.00     0.049 A 
ATOM      7  C   UNL d   1      54.189  32.375  53.639  0.00  0.00     0.007 A 
ATOM      8  O   UNL d   1      52.848  31.879  52.442  0.00  0.00    -0.284 OA
ATOM      9  C   UNL d   1      54.383  33.243  54.752  0.00  0.00     0.096 A 
ATOM     10  C   UNL d   1      54.674  32.684  54.225  0.00  0.00     0.024 A 
ENDROOT
BRANCH   1  11
ATOM     11  C   UNL d   1      51.393  32.828  52.897  0.00  0.00     0.053 C 
BRANCH  11  12
ATOM     12  C   UNL d   1      50.929  33.511  52.821  0.00  0.00     0.102 A 
ATOM     13  O   UNL d   1      50.399  33.810  53.376  0.00  0.00    -0.305 OA
ATOM     14  C   UNL d   1      50.061  34.497  53.068  0.00  0.00     0.123 A 
ATOM     15  C   UNL d   1      50.380  34.630  52.315  0.00  0.00     0.029 A 
ATOM     16  C   UNL d   1      50.919  34.020  52.158  0.00  0.00     0.027 A 
ENDBRANCH  11  12
ENDBRANCH   1  11
BRANCH   9  17
ATOM     17  O   UNL d   1      54.873  33.552  55.339  0.00  0.00    -0.328 OA
ATOM     18  C   UNL d   1      55.521  34.016  55.135  0.00  0.00     0.181 C 
ENDBRANCH   9  17
TORSDOF 3
ENDMDL
