MODEL 1
REMARK VINA RESULT:      79.8      0.000      0.000
REMARK  4 active torsions:
REMARK  status: ('A' for Active; 'I' for Inactive)
REMARK    1  A    between atoms: C_21  and  N_5 
REMARK    2  A    between atoms: C_11  and  C_6 
REMARK       I    between atoms: N_15  and  C_11 
REMARK    3  A    between atoms: C_23  and  N_15 
REMARK    4  A    between atoms: C_22  and  C_23 
ROOT
ATOM      1  C   UNL d   1     -54.787-101.237 -39.642  0.00  0.00     0.155 A 
ATOM      2  C   UNL d   1     -54.761-100.425 -39.475  0.00  0.00     0.091 A 
ATOM      3  N   UNL d   1     -54.795-101.779 -39.027  0.00  0.00    -0.210 NA
ATOM      4  N   UNL d   1     -54.750-100.720 -38.081  0.00  0.00    -0.258 N 
ATOM      5  N   UNL d   1     -54.806-101.492 -40.422  0.00  0.00    -0.274 N 
ATOM      6  C   UNL d   1     -54.773-100.136 -40.876  0.00  0.00     0.094 A 
ATOM      7  C   UNL d   1     -54.776-101.525 -38.246  0.00  0.00     0.152 A 
ATOM      8  C   UNL d   1     -54.743-100.161 -38.693  0.00  0.00     0.269 A 
ATOM      9  C   UNL d   1     -54.798-100.941 -41.042  0.00  0.00     0.175 A 
ATOM     10  C   UNL d   1     -54.754 -99.874 -40.089  0.00  0.00     0.016 A 
ATOM     11  C   UNL d   1     -54.783-102.068 -37.627  0.00  0.00     0.035 A 
ATOM     12  C   UNL d   1     -54.731-100.450 -37.294  0.00  0.00     0.084 A 
ATOM     13  N   UNL d   1     -54.817-101.209 -41.825  0.00  0.00    -0.128 N 
ATOM     14  O   UNL d   1     -54.717 -99.358 -38.520  0.00  0.00    -0.266 OA
ATOM     15  C   UNL d   1     -54.739-101.008 -36.684  0.00  0.00     0.019 A 
ATOM     16  C   UNL d   1     -54.765-101.813 -36.850  0.00  0.00     0.005 A 
ATOM     17  C   UNL d   1     -54.810-102.879 -37.794  0.00  0.00     0.003 C 
ENDROOT
BRANCH   6  18
ATOM     18  C   UNL d   1     -54.765 -99.585 -41.491  0.00  0.00     0.282 C 
ATOM     19  N   UNL d   1     -54.751 -99.848 -42.273  0.00  0.00    -0.206 NA
ATOM     20  O   UNL d   1     -54.771 -98.780 -41.325  0.00  0.00    -0.265 OA
BRANCH  19  21
ATOM     21  C   UNL d   1     -54.743 -99.296 -42.895  0.00  0.00     0.104 C 
BRANCH  21  22
ATOM     22  C   UNL d   1     -54.819 -99.555 -43.678  0.00  0.00     0.038 A 
ATOM     23  C   UNL d   1     -54.969-100.351 -43.830  0.00  0.00     0.101 A 
ATOM     24  N   UNL d   1     -55.044-100.609 -44.610  0.00  0.00    -0.242 NA
ATOM     25  C   UNL d   1     -54.970-100.079 -45.235  0.00  0.00     0.099 A 
ATOM     26  C   UNL d   1     -54.819 -99.278 -45.078  0.00  0.00     0.021 A 
ATOM     27  C   UNL d   1     -54.744 -99.021 -44.299  0.00  0.00     0.005 A 
ENDBRANCH  21  22
ENDBRANCH  19  21
ENDBRANCH   6  18
BRANCH   5  28
ATOM     28  C   UNL d   1     -54.832-102.302 -40.589  0.00  0.00     0.083 C 
ATOM     29  C   UNL d   1     -55.555-102.703 -40.563  0.00  0.00     0.021 C 
ENDBRANCH   5  28
TORSDOF 4
ENDMDL
