MODEL 1
REMARK VINA RESULT:      -2.7      0.000      0.000
REMARK  4 active torsions:
REMARK  status: ('A' for Active; 'I' for Inactive)
REMARK    1  A    between atoms: C_11  and  N_4 
REMARK    2  A    between atoms: C_18  and  C_7 
REMARK    3  A    between atoms: C_19  and  C_11 
REMARK    4  A    between atoms: O_20  and  C_16 
ROOT
ATOM      1  C   UNL d   1      33.081  19.794 -22.143  0.00  0.00     0.137 A 
ATOM      2  C   UNL d   1      33.002  20.438 -22.646  0.00  0.00     0.192 A 
ATOM      3  C   UNL d   1      33.161  19.035 -22.453  0.00  0.00     0.272 A 
ATOM      4  N   UNL d   1      33.161  18.919 -23.265  0.00  0.00    -0.258 N 
ATOM      5  N   UNL d   1      33.001  20.331 -23.461  0.00  0.00    -0.204 NA
ATOM      6  C   UNL d   1      33.082  19.906 -21.323  0.00  0.00     0.205 A 
ATOM      7  C   UNL d   1      33.081  19.567 -23.778  0.00  0.00     0.152 A 
ATOM      8  C   UNL d   1      33.003  20.662 -21.021  0.00  0.00     0.062 A 
ATOM      9  O   UNL d   1      32.923  21.200 -22.339  0.00  0.00    -0.289 OA
ATOM     10  C   UNL d   1      32.923  21.309 -21.523  0.00  0.00     0.107 A 
ATOM     11  C   UNL d   1      32.844  22.072 -21.205  0.00  0.00     0.049 A 
ATOM     12  C   UNL d   1      33.003  20.774 -20.201  0.00  0.00     0.007 A 
ATOM     13  O   UNL d   1      33.240  18.393 -21.945  0.00  0.00    -0.266 OA
ATOM     14  O   UNL d   1      33.161  19.258 -20.822  0.00  0.00    -0.286 OA
ATOM     15  C   UNL d   1      32.845  22.180 -20.392  0.00  0.00     0.096 A 
ATOM     16  C   UNL d   1      32.925  21.529 -19.888  0.00  0.00     0.024 A 
ENDROOT
BRANCH   4  17
ATOM     17  C   UNL d   1      33.241  18.149 -23.577  0.00  0.00     0.084 C 
BRANCH  17  18
ATOM     18  C   UNL d   1      32.593  17.642 -23.589  0.00  0.00     0.018 A 
ATOM     19  C   UNL d   1      31.833  17.918 -23.765  0.00  0.00     0.002 A 
ATOM     20  C   UNL d   1      31.188  17.402 -23.776  0.00  0.00     0.000 A 
ATOM     21  C   UNL d   1      31.307  16.589 -23.606  0.00  0.00     0.000 A 
ATOM     22  C   UNL d   1      32.070  16.310 -23.429  0.00  0.00     0.000 A 
ATOM     23  C   UNL d   1      32.708  16.836 -23.422  0.00  0.00     0.002 A 
ENDBRANCH  17  18
ENDBRANCH   4  17
BRANCH   7  24
ATOM     24  C   UNL d   1      33.081  19.451 -24.590  0.00  0.00     0.038 C 
ATOM     25  C   UNL d   1      33.179  20.092 -25.097  0.00  0.00     0.003 C 
ENDBRANCH   7  24
BRANCH  15  26
ATOM     26  O   UNL d   1      32.766  22.932 -20.076  0.00  0.00    -0.328 OA
ATOM     27  C   UNL d   1      33.208  23.145 -19.417  0.00  0.00     0.181 C 
ENDBRANCH  15  26
TORSDOF 4
ENDMDL
MODEL 2
REMARK VINA RESULT:      -1.7      1.531      4.644
REMARK  4 active torsions:
REMARK  status: ('A' for Active; 'I' for Inactive)
REMARK    1  A    between atoms: C_11  and  N_4 
REMARK    2  A    between atoms: C_18  and  C_7 
REMARK    3  A    between atoms: C_19  and  C_11 
REMARK    4  A    between atoms: O_20  and  C_16 
ROOT
ATOM      1  C   UNL d   1      33.157  21.033 -22.455  0.00  0.00     0.137 A 
ATOM      2  C   UNL d   1      33.120  21.090 -23.274  0.00  0.00     0.192 A 
ATOM      3  C   UNL d   1      33.197  21.716 -21.996  0.00  0.00     0.272 A 
ATOM      4  N   UNL d   1      33.200  22.454 -22.353  0.00  0.00    -0.258 N 
ATOM      5  N   UNL d   1      33.122  21.825 -23.640  0.00  0.00    -0.204 NA
ATOM      6  C   UNL d   1      33.154  20.291 -22.089  0.00  0.00     0.205 A 
ATOM      7  C   UNL d   1      33.162  22.516 -23.181  0.00  0.00     0.152 A 
ATOM      8  C   UNL d   1      33.115  19.617 -22.551  0.00  0.00     0.062 A 
ATOM      9  O   UNL d   1      33.079  20.408 -23.737  0.00  0.00    -0.289 OA
ATOM     10  C   UNL d   1      33.077  19.670 -23.371  0.00  0.00     0.107 A 
ATOM     11  C   UNL d   1      33.037  18.979 -23.830  0.00  0.00     0.049 A 
ATOM     12  C   UNL d   1      33.112  18.874 -22.186  0.00  0.00     0.007 A 
ATOM     13  O   UNL d   1      33.234  21.655 -21.177  0.00  0.00    -0.266 OA
ATOM     14  O   UNL d   1      33.192  20.239 -21.269  0.00  0.00    -0.286 OA
ATOM     15  C   UNL d   1      33.034  18.244 -23.464  0.00  0.00     0.096 A 
ATOM     16  C   UNL d   1      33.072  18.192 -22.640  0.00  0.00     0.024 A 
ENDROOT
BRANCH   4  17
ATOM     17  C   UNL d   1      33.241  23.145 -21.886  0.00  0.00     0.084 C 
BRANCH  17  18
ATOM     18  C   UNL d   1      32.628  23.326 -21.368  0.00  0.00     0.018 A 
ATOM     19  C   UNL d   1      32.743  23.326 -20.548  0.00  0.00     0.002 A 
ATOM     20  C   UNL d   1      32.123  23.509 -20.034  0.00  0.00     0.000 A 
ATOM     21  C   UNL d   1      31.369  23.698 -20.349  0.00  0.00     0.000 A 
ATOM     22  C   UNL d   1      31.251  23.698 -21.171  0.00  0.00     0.000 A 
ATOM     23  C   UNL d   1      31.880  23.513 -21.676  0.00  0.00     0.002 A 
ENDBRANCH  17  18
ENDBRANCH   4  17
BRANCH   7  24
ATOM     24  C   UNL d   1      33.165  23.254 -23.538  0.00  0.00     0.038 C 
ATOM     25  C   UNL d   1      33.073  23.316 -24.354  0.00  0.00     0.003 C 
ENDBRANCH   7  24
BRANCH  15  26
ATOM     26  O   UNL d   1      32.995  17.561 -23.914  0.00  0.00    -0.328 OA
ATOM     27  C   UNL d   1      32.492  16.951 -23.688  0.00  0.00     0.181 C 
ENDBRANCH  15  26
TORSDOF 4
ENDMDL
MODEL 3
REMARK VINA RESULT:      -1.0      1.361      4.881
REMARK  4 active torsions:
REMARK  status: ('A' for Active; 'I' for Inactive)
REMARK    1  A    between atoms: C_11  and  N_4 
REMARK    2  A    between atoms: C_18  and  C_7 
REMARK    3  A    between atoms: C_19  and  C_11 
REMARK    4  A    between atoms: O_20  and  C_16 
ROOT
ATOM      1  C   UNL d   1      32.914  20.140 -23.049  0.00  0.00     0.137 A 
ATOM      2  C   UNL d   1      32.759  19.647 -22.410  0.00  0.00     0.192 A 
ATOM      3  C   UNL d   1      33.073  20.939 -22.925  0.00  0.00     0.272 A 
ATOM      4  N   UNL d   1      33.079  21.245 -22.164  0.00  0.00    -0.258 N 
ATOM      5  N   UNL d   1      32.763  19.946 -21.644  0.00  0.00    -0.204 NA
ATOM      6  C   UNL d   1      32.909  19.836 -23.818  0.00  0.00     0.205 A 
ATOM      7  C   UNL d   1      32.923  20.751 -21.515  0.00  0.00     0.152 A 
ATOM      8  C   UNL d   1      32.750  19.042 -23.935  0.00  0.00     0.062 A 
ATOM      9  O   UNL d   1      32.599  18.847 -22.530  0.00  0.00    -0.289 OA
ATOM     10  C   UNL d   1      32.595  18.546 -23.297  0.00  0.00     0.107 A 
ATOM     11  C   UNL d   1      32.435  17.741 -23.427  0.00  0.00     0.049 A 
ATOM     12  C   UNL d   1      32.746  18.737 -24.704  0.00  0.00     0.007 A 
ATOM     13  O   UNL d   1      33.227  21.428 -23.567  0.00  0.00    -0.266 OA
ATOM     14  O   UNL d   1      33.065  20.333 -24.456  0.00  0.00    -0.286 OA
ATOM     15  C   UNL d   1      32.431  17.443 -24.191  0.00  0.00     0.096 A 
ATOM     16  C   UNL d   1      32.587  17.942 -24.832  0.00  0.00     0.024 A 
ENDROOT
BRANCH   4  17
ATOM     17  C   UNL d   1      33.241  22.054 -22.040  0.00  0.00     0.084 C 
BRANCH  17  18
ATOM     18  C   UNL d   1      32.621  22.593 -21.987  0.00  0.00     0.018 A 
ATOM     19  C   UNL d   1      32.152  22.645 -21.307  0.00  0.00     0.002 A 
ATOM     20  C   UNL d   1      31.532  23.188 -21.261  0.00  0.00     0.000 A 
ATOM     21  C   UNL d   1      31.377  23.694 -21.913  0.00  0.00     0.000 A 
ATOM     22  C   UNL d   1      31.848  23.643 -22.597  0.00  0.00     0.000 A 
ATOM     23  C   UNL d   1      32.466  23.095 -22.631  0.00  0.00     0.002 A 
ENDBRANCH  17  18
ENDBRANCH   4  17
BRANCH   7  24
ATOM     24  C   UNL d   1      32.929  21.057 -20.755  0.00  0.00     0.038 C 
ATOM     25  C   UNL d   1      33.186  20.592 -20.126  0.00  0.00     0.003 C 
ENDBRANCH   7  24
BRANCH  15  26
ATOM     26  O   UNL d   1      32.273  16.650 -24.323  0.00  0.00    -0.328 OA
ATOM     27  C   UNL d   1      31.701  16.433 -24.871  0.00  0.00     0.181 C 
ENDBRANCH  15  26
TORSDOF 4
ENDMDL
