MODEL 1
REMARK VINA RESULT:      -5.7      0.000      0.000
REMARK  3 active torsions:
REMARK  status: ('A' for Active; 'I' for Inactive)
REMARK    1  A    between atoms: C_13  and  C_3 
REMARK    2  A    between atoms: C_4  and  S_11 
REMARK    3  A    between atoms: S_11  and  C_13 
ROOT
ATOM      1  C   UNL d   1     -41.643-122.411 -50.983  0.00  0.00     0.141 A 
ATOM      2  N   UNL d   1     -42.368-122.358 -50.639  0.00  0.00    -0.232 NA
ATOM      3  S   UNL d   1     -41.123-122.775 -50.464  0.00  0.00    -0.060 SA
ATOM      4  C   UNL d   1     -42.315-122.692 -49.889  0.00  0.00     0.088 A 
ATOM      5  C   UNL d   1     -41.545-122.950 -49.781  0.00  0.00     0.049 A 
ATOM      6  C   UNL d   1     -42.879-122.789 -49.296  0.00  0.00     0.020 A 
ATOM      7  C   UNL d   1     -41.321-123.312 -49.077  0.00  0.00     0.008 A 
ATOM      8  C   UNL d   1     -41.883-123.411 -48.479  0.00  0.00     0.001 A 
ATOM      9  C   UNL d   1     -42.653-123.153 -48.587  0.00  0.00     0.002 A 
ENDROOT
BRANCH   1  10
ATOM     10  S   UNL d   1     -41.443-122.138 -51.754  0.00  0.00    -0.058 SA
BRANCH  10  11
ATOM     11  C   UNL d   1     -41.437-122.668 -52.376  0.00  0.00     0.077 C 
BRANCH  11  12
ATOM     12  C   UNL d   1     -41.549-122.384 -53.156  0.00  0.00     0.178 A 
ATOM     13  N   UNL d   1     -41.449-122.892 -53.787  0.00  0.00    -0.262 N 
ATOM     14  C   UNL d   1     -41.598-122.449 -54.484  0.00  0.00     0.227 A 
ATOM     15  C   UNL d   1     -41.239-123.695 -53.755  0.00  0.00     0.103 C 
ATOM     16  N   UNL d   1     -41.781-121.700 -54.259  0.00  0.00    -0.117 NA
ATOM     17  S   UNL d   1     -41.563-122.739 -55.280  0.00  0.00    -0.036 SA
ATOM     18  N   UNL d   1     -41.759-121.630 -53.454  0.00  0.00    -0.127 NA
ENDBRANCH  11  12
ENDBRANCH  10  11
ENDBRANCH   1  10
TORSDOF 3
ENDMDL
MODEL 2
REMARK VINA RESULT:      -5.2      1.240      4.524
REMARK  3 active torsions:
REMARK  status: ('A' for Active; 'I' for Inactive)
REMARK    1  A    between atoms: C_13  and  C_3 
REMARK    2  A    between atoms: C_4  and  S_11 
REMARK    3  A    between atoms: S_11  and  C_13 
ROOT
ATOM      1  C   UNL d   1     -41.227-123.052 -52.136  0.00  0.00     0.141 A 
ATOM      2  N   UNL d   1     -41.324-123.654 -52.660  0.00  0.00    -0.232 NA
ATOM      3  S   UNL d   1     -41.233-122.338 -52.540  0.00  0.00    -0.060 SA
ATOM      4  C   UNL d   1     -41.394-123.325 -53.410  0.00  0.00     0.088 A 
ATOM      5  C   UNL d   1     -41.337-122.511 -53.336  0.00  0.00     0.049 A 
ATOM      6  C   UNL d   1     -41.502-123.674 -54.149  0.00  0.00     0.020 A 
ATOM      7  C   UNL d   1     -41.387-122.027 -53.999  0.00  0.00     0.008 A 
ATOM      8  C   UNL d   1     -41.496-122.372 -54.742  0.00  0.00     0.001 A 
ATOM      9  C   UNL d   1     -41.553-123.186 -54.816  0.00  0.00     0.002 A 
ENDROOT
BRANCH   1  10
ATOM     10  S   UNL d   1     -41.133-123.134 -51.303  0.00  0.00    -0.058 SA
BRANCH  10  11
ATOM     11  C   UNL d   1     -41.782-123.035 -50.817  0.00  0.00     0.077 C 
BRANCH  11  12
ATOM     12  C   UNL d   1     -41.720-123.236 -50.005  0.00  0.00     0.178 A 
ATOM     13  N   UNL d   1     -42.324-123.037 -49.495  0.00  0.00    -0.262 N 
ATOM     14  C   UNL d   1     -42.101-123.309 -48.733  0.00  0.00     0.227 A 
ATOM     15  C   UNL d   1     -43.029-122.642 -49.684  0.00  0.00     0.103 C 
ATOM     16  N   UNL d   1     -41.380-123.659 -48.804  0.00  0.00    -0.117 NA
ATOM     17  S   UNL d   1     -42.552-123.231 -48.020  0.00  0.00    -0.036 SA
ATOM     18  N   UNL d   1     -41.123-123.629 -49.569  0.00  0.00    -0.127 NA
ENDBRANCH  11  12
ENDBRANCH  10  11
ENDBRANCH   1  10
TORSDOF 3
ENDMDL
MODEL 3
REMARK VINA RESULT:      -4.7      1.333      2.020
REMARK  3 active torsions:
REMARK  status: ('A' for Active; 'I' for Inactive)
REMARK    1  A    between atoms: C_13  and  C_3 
REMARK    2  A    between atoms: C_4  and  S_11 
REMARK    3  A    between atoms: S_11  and  C_13 
ROOT
ATOM      1  C   UNL d   1     -41.808-123.506 -49.555  0.00  0.00     0.141 A 
ATOM      2  N   UNL d   1     -41.216-123.662 -49.034  0.00  0.00    -0.232 NA
ATOM      3  S   UNL d   1     -42.459-123.221 -49.147  0.00  0.00    -0.060 SA
ATOM      4  C   UNL d   1     -41.488-123.476 -48.281  0.00  0.00     0.088 A 
ATOM      5  C   UNL d   1     -42.257-123.203 -48.351  0.00  0.00     0.049 A 
ATOM      6  C   UNL d   1     -41.123-123.524 -47.543  0.00  0.00     0.020 A 
ATOM      7  C   UNL d   1     -42.680-122.971 -47.684  0.00  0.00     0.008 A 
ATOM      8  C   UNL d   1     -42.318-123.017 -46.942  0.00  0.00     0.001 A 
ATOM      9  C   UNL d   1     -41.549-123.290 -46.873  0.00  0.00     0.002 A 
ENDROOT
BRANCH   1  10
ATOM     10  S   UNL d   1     -41.771-123.616 -50.389  0.00  0.00    -0.058 SA
BRANCH  10  11
ATOM     11  C   UNL d   1     -41.415-123.044 -50.852  0.00  0.00     0.077 C 
BRANCH  11  12
ATOM     12  C   UNL d   1     -41.401-123.141 -51.684  0.00  0.00     0.178 A 
ATOM     13  N   UNL d   1     -41.264-122.495 -52.162  0.00  0.00    -0.262 N 
ATOM     14  C   UNL d   1     -41.284-122.767 -52.955  0.00  0.00     0.227 A 
ATOM     15  C   UNL d   1     -41.128-121.712 -51.918  0.00  0.00     0.103 C 
ATOM     16  N   UNL d   1     -41.431-123.557 -52.935  0.00  0.00    -0.117 NA
ATOM     17  S   UNL d   1     -41.170-122.296 -53.650  0.00  0.00    -0.036 SA
ATOM     18  N   UNL d   1     -41.507-123.814 -52.172  0.00  0.00    -0.127 NA
ENDBRANCH  11  12
ENDBRANCH  10  11
ENDBRANCH   1  10
TORSDOF 3
ENDMDL
