MODEL 1
REMARK VINA RESULT:      61.3      0.000      0.000
REMARK  4 active torsions:
REMARK  status: ('A' for Active; 'I' for Inactive)
REMARK    1  A    between atoms: C_5  and  C_1 
REMARK    2  A    between atoms: C_2  and  C_5 
REMARK    3  A    between atoms: C_12  and  N_3 
REMARK    4  A    between atoms: C_13  and  N_4 
ROOT
ATOM      1  C   UNL d   1     -55.897-100.809 -44.370  0.00  0.00     0.133 C 
ATOM      2 CL   UNL d   1     -56.621-100.864 -43.957  0.00  0.00    -0.076 Cl
ENDROOT
BRANCH   1   3
ATOM      3  C   UNL d   1     -55.500-101.485 -44.622  0.00  0.00     0.202 A 
ATOM      4  N   UNL d   1     -55.124-101.953 -44.081  0.00  0.00    -0.191 N 
ATOM      5  N   UNL d   1     -54.777-102.582 -44.481  0.00  0.00    -0.039 NA
ATOM      6  N   UNL d   1     -54.942-102.500 -45.272  0.00  0.00    -0.022 NA
ATOM      7  N   UNL d   1     -55.390-101.819 -45.362  0.00  0.00    -0.107 NA
BRANCH   4   8
ATOM      8  C   UNL d   1     -55.091-101.826 -43.275  0.00  0.00     0.086 A 
ATOM      9  C   UNL d   1     -55.399-102.387 -42.755  0.00  0.00     0.019 A 
ATOM     10  C   UNL d   1     -55.365-102.257 -41.941  0.00  0.00     0.002 A 
ATOM     11  C   UNL d   1     -55.023-101.567 -41.650  0.00  0.00     0.000 A 
ATOM     12  C   UNL d   1     -54.712-101.002 -42.168  0.00  0.00     0.002 A 
ATOM     13  C   UNL d   1     -54.986-101.429 -40.821  0.00  0.00     0.000 C 
ATOM     14  C   UNL d   1     -54.748-101.135 -42.980  0.00  0.00     0.019 A 
ENDBRANCH   4   8
ENDBRANCH   1   3
BRANCH   1  15
ATOM     15  C   UNL d   1     -55.573-100.061 -44.529  0.00  0.00     0.202 A 
ATOM     16  N   UNL d   1     -55.976 -99.349 -44.524  0.00  0.00    -0.191 N 
ATOM     17  N   UNL d   1     -55.442 -98.756 -44.711  0.00  0.00    -0.039 NA
ATOM     18  N   UNL d   1     -54.711 -99.107 -44.831  0.00  0.00    -0.022 NA
ATOM     19  N   UNL d   1     -54.787 -99.902 -44.721  0.00  0.00    -0.107 NA
BRANCH  16  20
ATOM     20  C   UNL d   1     -56.774 -99.212 -44.363  0.00  0.00     0.086 A 
ATOM     21  C   UNL d   1     -57.035 -99.116 -43.581  0.00  0.00     0.019 A 
ATOM     22  C   UNL d   1     -57.834 -98.978 -43.421  0.00  0.00     0.002 A 
ATOM     23  C   UNL d   1     -58.372 -98.937 -44.043  0.00  0.00     0.000 A 
ATOM     24  C   UNL d   1     -58.122 -99.030 -44.814  0.00  0.00     0.002 A 
ATOM     25  C   UNL d   1     -59.186 -98.797 -43.889  0.00  0.00     0.000 C 
ATOM     26  C   UNL d   1     -57.324 -99.168 -44.975  0.00  0.00     0.019 A 
ENDBRANCH  16  20
ENDBRANCH   1  15
TORSDOF 4
ENDMDL
