MODEL 1
REMARK VINA RESULT:      48.8      0.000      0.000
REMARK  3 active torsions:
REMARK  status: ('A' for Active; 'I' for Inactive)
REMARK    1  A    between atoms: N_2  and  S_1 
REMARK    2  A    between atoms: N_4  and  S_1 
REMARK    3  A    between atoms: C_9  and  N_3 
ROOT
ATOM      1  N   UNL d   1     -50.186  26.749  33.884  0.00  0.00    -0.213 N 
ATOM      2  N   UNL d   1     -51.308  25.562  33.694  0.00  0.00    -0.301 N 
ATOM      3  C   UNL d   1     -49.976  26.044  33.539  0.00  0.00     0.112 A 
ATOM      4  C   UNL d   1     -50.975  26.890  34.151  0.00  0.00     0.112 A 
ATOM      5  C   UNL d   1     -50.538  25.448  33.444  0.00  0.00     0.100 A 
ATOM      6  C   UNL d   1     -51.538  26.294  34.056  0.00  0.00     0.100 A 
ENDROOT
BRANCH   2   7
ATOM      7  C   UNL d   1     -51.874  24.962  33.598  0.00  0.00     0.064 A 
ATOM      8  C   UNL d   1     -52.673  25.171  33.533  0.00  0.00     0.018 A 
ATOM      9  C   UNL d   1     -53.242  24.576  33.436  0.00  0.00     0.013 A 
ATOM     10  C   UNL d   1     -53.014  23.785  33.406  0.00  0.00     0.058 A 
ATOM     11  C   UNL d   1     -52.207  23.587  33.472  0.00  0.00     0.013 A 
ATOM     12 CL   UNL d   1     -53.583  23.190  33.310  0.00  0.00    -0.082 Cl
ATOM     13  C   UNL d   1     -51.643  24.176  33.568  0.00  0.00     0.018 A 
ENDBRANCH   2   7
BRANCH   1  14
ATOM     14  S   UNL d   1     -49.611  27.357  33.982  0.00  0.00     0.337 S 
ATOM     15  O   UNL d   1     -49.788  28.026  34.437  0.00  0.00    -0.181 OA
ATOM     16  O   UNL d   1     -48.866  27.286  33.621  0.00  0.00    -0.181 OA
BRANCH  14  17
ATOM     17  N   UNL d   1     -49.200  28.048  34.197  0.00  0.00    -0.213 N 
ATOM     18  C   UNL d   1     -48.583  28.008  34.734  0.00  0.00     0.113 C 
ATOM     19  C   UNL d   1     -49.417  28.780  33.864  0.00  0.00     0.113 C 
ENDBRANCH  14  17
ENDBRANCH   1  14
TORSDOF 3
ENDMDL
