MODEL 1
REMARK VINA RESULT:       3.1      0.000      0.000
REMARK  3 active torsions:
REMARK  status: ('A' for Active; 'I' for Inactive)
REMARK    1  A    between atoms: C_7  and  C_1 
REMARK    2  A    between atoms: C_10  and  N_2 
REMARK    3  A    between atoms: C_14  and  C_7 
ROOT
ATOM      1  C   UNL d   1      58.090   0.073  31.469  0.00  0.00     0.155 A 
ATOM      2  N   UNL d   1      58.570   0.158  30.796  0.00  0.00    -0.277 N 
ATOM      3  C   UNL d   1      59.361   0.330  30.892  0.00  0.00     0.153 A 
ATOM      4  C   UNL d   1      59.681   0.419  31.652  0.00  0.00     0.092 A 
ATOM      5  N   UNL d   1      58.408   0.162  32.226  0.00  0.00    -0.190 NA
ATOM      6  C   UNL d   1      59.204   0.334  32.304  0.00  0.00     0.283 A 
ATOM      7  N   UNL d   1      59.851   0.416  30.218  0.00  0.00    -0.228 NA
ATOM      8  C   UNL d   1      60.488   0.593  31.734  0.00  0.00     0.009 A 
ATOM      9  O   UNL d   1      59.530   0.424  33.062  0.00  0.00    -0.265 OA
ATOM     10  C   UNL d   1      60.959   0.676  31.070  0.00  0.00     0.019 A 
ATOM     11  C   UNL d   1      60.645   0.589  30.322  0.00  0.00     0.083 A 
ATOM     12  C   UNL d   1      60.806   0.682  32.490  0.00  0.00     0.000 C 
ATOM     13  C   UNL d   1      61.133   0.675  29.658  0.00  0.00     0.021 C 
ENDROOT
BRANCH   2  14
ATOM     14  C   UNL d   1      58.254   0.070  30.045  0.00  0.00     0.067 A 
ATOM     15  C   UNL d   1      58.446  -0.580  29.598  0.00  0.00     0.018 A 
ATOM     16  C   UNL d   1      58.127  -0.669  28.839  0.00  0.00     0.002 A 
ATOM     17  C   UNL d   1      57.618  -0.106  28.532  0.00  0.00     0.000 A 
ATOM     18  C   UNL d   1      57.427   0.558  28.997  0.00  0.00     0.002 A 
ATOM     19  C   UNL d   1      57.743   0.646  29.750  0.00  0.00     0.018 A 
ENDBRANCH   2  14
BRANCH   1  20
ATOM     20  C   UNL d   1      57.292  -0.100  31.378  0.00  0.00     0.080 C 
BRANCH  20  21
ATOM     21  C   UNL d   1      56.779  -0.242  32.008  0.00  0.00     0.199 C 
ATOM     22  O   UNL d   1      56.622  -1.110  32.173  0.00  0.00    -0.286 OA
ATOM     23  C   UNL d   1      56.310   0.507  32.614  0.00  0.00     0.045 C 
ENDBRANCH  20  21
ENDBRANCH   1  20
TORSDOF 3
ENDMDL
MODEL 2
REMARK VINA RESULT:       4.4      1.390      1.888
REMARK  3 active torsions:
REMARK  status: ('A' for Active; 'I' for Inactive)
REMARK    1  A    between atoms: C_7  and  C_1 
REMARK    2  A    between atoms: C_10  and  N_2 
REMARK    3  A    between atoms: C_14  and  C_7 
ROOT
ATOM      1  C   UNL d   1      58.287  -0.828  30.636  0.00  0.00     0.155 A 
ATOM      2  N   UNL d   1      58.734  -1.112  29.996  0.00  0.00    -0.277 N 
ATOM      3  C   UNL d   1      59.476  -0.803  29.862  0.00  0.00     0.153 A 
ATOM      4  C   UNL d   1      59.779  -0.212  30.360  0.00  0.00     0.092 A 
ATOM      5  N   UNL d   1      58.588  -0.240  31.132  0.00  0.00    -0.190 NA
ATOM      6  C   UNL d   1      59.334   0.060  30.983  0.00  0.00     0.283 A 
ATOM      7  N   UNL d   1      59.933  -1.084  29.219  0.00  0.00    -0.228 NA
ATOM      8  C   UNL d   1      60.536   0.094  30.211  0.00  0.00     0.009 A 
ATOM      9  O   UNL d   1      59.643   0.651  31.477  0.00  0.00    -0.265 OA
ATOM     10  C   UNL d   1      60.975  -0.187  29.580  0.00  0.00     0.019 A 
ATOM     11  C   UNL d   1      60.677  -0.768  29.091  0.00  0.00     0.083 A 
ATOM     12  C   UNL d   1      60.837   0.682  30.706  0.00  0.00     0.000 C 
ATOM     13  C   UNL d   1      61.133  -1.044  28.455  0.00  0.00     0.021 C 
ENDROOT
BRANCH   2  14
ATOM     14  C   UNL d   1      58.435  -1.696  29.505  0.00  0.00     0.067 A 
ATOM     15  C   UNL d   1      57.862  -1.512  28.959  0.00  0.00     0.018 A 
ATOM     16  C   UNL d   1      57.560  -2.102  28.462  0.00  0.00     0.002 A 
ATOM     17  C   UNL d   1      57.833  -2.872  28.515  0.00  0.00     0.000 A 
ATOM     18  C   UNL d   1      58.420  -3.052  29.078  0.00  0.00     0.002 A 
ATOM     19  C   UNL d   1      58.720  -2.467  29.571  0.00  0.00     0.018 A 
ENDBRANCH   2  14
BRANCH   1  20
ATOM     20  C   UNL d   1      57.538  -1.137  30.776  0.00  0.00     0.080 C 
BRANCH  20  21
ATOM     21  C   UNL d   1      57.010  -0.827  31.329  0.00  0.00     0.199 C 
ATOM     22  O   UNL d   1      56.666  -0.028  31.109  0.00  0.00    -0.286 OA
ATOM     23  C   UNL d   1      56.721  -1.294  32.248  0.00  0.00     0.045 C 
ENDBRANCH  20  21
ENDBRANCH   1  20
TORSDOF 3
ENDMDL
MODEL 3
REMARK VINA RESULT:       5.2      1.112      2.616
REMARK  3 active torsions:
REMARK  status: ('A' for Active; 'I' for Inactive)
REMARK    1  A    between atoms: C_7  and  C_1 
REMARK    2  A    between atoms: C_10  and  N_2 
REMARK    3  A    between atoms: C_14  and  C_7 
ROOT
ATOM      1  C   UNL d   1      58.802   0.430  31.904  0.00  0.00     0.155 A 
ATOM      2  N   UNL d   1      58.261   0.199  31.318  0.00  0.00    -0.277 N 
ATOM      3  C   UNL d   1      58.515   0.133  30.546  0.00  0.00     0.153 A 
ATOM      4  C   UNL d   1      59.305   0.295  30.351  0.00  0.00     0.092 A 
ATOM      5  N   UNL d   1      59.589   0.591  31.710  0.00  0.00    -0.190 NA
ATOM      6  C   UNL d   1      59.828   0.520  30.931  0.00  0.00     0.283 A 
ATOM      7  N   UNL d   1      57.975  -0.099  29.950  0.00  0.00    -0.228 NA
ATOM      8  C   UNL d   1      59.550   0.224  29.561  0.00  0.00     0.009 A 
ATOM      9  O   UNL d   1      60.617   0.681  30.729  0.00  0.00    -0.265 OA
ATOM     10  C   UNL d   1      59.015  -0.003  28.985  0.00  0.00     0.019 A 
ATOM     11  C   UNL d   1      58.238  -0.163  29.177  0.00  0.00     0.083 A 
ATOM     12  C   UNL d   1      60.336   0.385  29.367  0.00  0.00     0.000 C 
ATOM     13  C   UNL d   1      57.706  -0.392  28.584  0.00  0.00     0.021 C 
ENDROOT
BRANCH   2  14
ATOM     14  C   UNL d   1      57.481   0.039  31.511  0.00  0.00     0.067 A 
ATOM     15  C   UNL d   1      56.924   0.630  31.475  0.00  0.00     0.018 A 
ATOM     16  C   UNL d   1      56.136   0.469  31.670  0.00  0.00     0.002 A 
ATOM     17  C   UNL d   1      55.909  -0.283  31.899  0.00  0.00     0.000 A 
ATOM     18  C   UNL d   1      56.486  -0.884  31.933  0.00  0.00     0.002 A 
ATOM     19  C   UNL d   1      57.267  -0.724  31.740  0.00  0.00     0.018 A 
ENDBRANCH   2  14
BRANCH   1  20
ATOM     20  C   UNL d   1      58.551   0.498  32.684  0.00  0.00     0.080 C 
BRANCH  20  21
ATOM     21  C   UNL d   1      59.063   0.595  33.324  0.00  0.00     0.199 C 
ATOM     22  O   UNL d   1      58.654   0.671  34.119  0.00  0.00    -0.286 OA
ATOM     23  C   UNL d   1      60.131   0.636  33.269  0.00  0.00     0.045 C 
ENDBRANCH  20  21
ENDBRANCH   1  20
TORSDOF 3
ENDMDL
MODEL 4
REMARK VINA RESULT:       5.3      1.934      3.431
REMARK  3 active torsions:
REMARK  status: ('A' for Active; 'I' for Inactive)
REMARK    1  A    between atoms: C_7  and  C_1 
REMARK    2  A    between atoms: C_10  and  N_2 
REMARK    3  A    between atoms: C_14  and  C_7 
ROOT
ATOM      1  C   UNL d   1      58.452  -1.968  29.381  0.00  0.00     0.155 A 
ATOM      2  N   UNL d   1      58.923  -1.365  29.704  0.00  0.00    -0.277 N 
ATOM      3  C   UNL d   1      58.647  -0.947  30.347  0.00  0.00     0.153 A 
ATOM      4  C   UNL d   1      57.905  -1.123  30.673  0.00  0.00     0.092 A 
ATOM      5  N   UNL d   1      57.713  -2.143  29.706  0.00  0.00    -0.190 NA
ATOM      6  C   UNL d   1      57.451  -1.714  30.351  0.00  0.00     0.283 A 
ATOM      7  N   UNL d   1      59.117  -0.338  30.678  0.00  0.00    -0.228 NA
ATOM      8  C   UNL d   1      57.637  -0.688  31.328  0.00  0.00     0.009 A 
ATOM      9  O   UNL d   1      56.709  -1.885  30.682  0.00  0.00    -0.265 OA
ATOM     10  C   UNL d   1      58.103  -0.095  31.644  0.00  0.00     0.019 A 
ATOM     11  C   UNL d   1      58.833   0.078  31.324  0.00  0.00     0.083 A 
ATOM     12  C   UNL d   1      56.899  -0.863  31.652  0.00  0.00     0.000 C 
ATOM     13  C   UNL d   1      59.295   0.682  31.655  0.00  0.00     0.021 C 
ENDROOT
BRANCH   2  14
ATOM     14  C   UNL d   1      59.656  -1.191  29.382  0.00  0.00     0.067 A 
ATOM     15  C   UNL d   1      59.718  -0.643  28.786  0.00  0.00     0.018 A 
ATOM     16  C   UNL d   1      60.459  -0.467  28.460  0.00  0.00     0.002 A 
ATOM     17  C   UNL d   1      61.133  -0.841  28.733  0.00  0.00     0.000 A 
ATOM     18  C   UNL d   1      61.062  -1.402  29.346  0.00  0.00     0.002 A 
ATOM     19  C   UNL d   1      60.327  -1.577  29.669  0.00  0.00     0.018 A 
ENDBRANCH   2  14
BRANCH   1  20
ATOM     20  C   UNL d   1      58.725  -2.393  28.733  0.00  0.00     0.080 C 
BRANCH  20  21
ATOM     21  C   UNL d   1      58.670  -3.213  28.665  0.00  0.00     0.199 C 
ATOM     22  O   UNL d   1      57.843  -3.519  28.500  0.00  0.00    -0.286 OA
ATOM     23  C   UNL d   1      59.483  -3.903  28.758  0.00  0.00     0.045 C 
ENDBRANCH  20  21
ENDBRANCH   1  20
TORSDOF 3
ENDMDL
MODEL 5
REMARK VINA RESULT:       5.5      1.856      3.488
REMARK  3 active torsions:
REMARK  status: ('A' for Active; 'I' for Inactive)
REMARK    1  A    between atoms: C_7  and  C_1 
REMARK    2  A    between atoms: C_10  and  N_2 
REMARK    3  A    between atoms: C_14  and  C_7 
ROOT
ATOM      1  C   UNL d   1      59.171  -0.891  29.790  0.00  0.00     0.155 A 
ATOM      2  N   UNL d   1      58.529  -1.389  29.961  0.00  0.00    -0.277 N 
ATOM      3  C   UNL d   1      58.019  -1.188  30.564  0.00  0.00     0.153 A 
ATOM      4  C   UNL d   1      58.143  -0.493  31.001  0.00  0.00     0.092 A 
ATOM      5  N   UNL d   1      59.294  -0.200  30.225  0.00  0.00    -0.190 NA
ATOM      6  C   UNL d   1      58.774  -0.012  30.827  0.00  0.00     0.283 A 
ATOM      7  N   UNL d   1      57.370  -1.685  30.742  0.00  0.00    -0.228 NA
ATOM      8  C   UNL d   1      57.616  -0.300  31.613  0.00  0.00     0.009 A 
ATOM      9  O   UNL d   1      58.891   0.682  31.268  0.00  0.00    -0.265 OA
ATOM     10  C   UNL d   1      56.984  -0.793  31.779  0.00  0.00     0.019 A 
ATOM     11  C   UNL d   1      56.862  -1.476  31.350  0.00  0.00     0.083 A 
ATOM     12  C   UNL d   1      57.738   0.390  32.048  0.00  0.00     0.000 C 
ATOM     13  C   UNL d   1      56.218  -1.966  31.529  0.00  0.00     0.021 C 
ENDROOT
BRANCH   2  14
ATOM     14  C   UNL d   1      58.407  -2.075  29.529  0.00  0.00     0.067 A 
ATOM     15  C   UNL d   1      57.903  -2.069  28.892  0.00  0.00     0.018 A 
ATOM     16  C   UNL d   1      57.780  -2.763  28.456  0.00  0.00     0.002 A 
ATOM     17  C   UNL d   1      58.162  -3.457  28.660  0.00  0.00     0.000 A 
ATOM     18  C   UNL d   1      58.677  -3.454  29.315  0.00  0.00     0.002 A 
ATOM     19  C   UNL d   1      58.799  -2.767  29.748  0.00  0.00     0.018 A 
ENDBRANCH   2  14
BRANCH   1  20
ATOM     20  C   UNL d   1      59.688  -1.089  29.183  0.00  0.00     0.080 C 
BRANCH  20  21
ATOM     21  C   UNL d   1      60.325  -0.619  28.950  0.00  0.00     0.199 C 
ATOM     22  O   UNL d   1      61.132  -0.977  29.113  0.00  0.00    -0.286 OA
ATOM     23  C   UNL d   1      60.254   0.344  28.488  0.00  0.00     0.045 C 
ENDBRANCH  20  21
ENDBRANCH   1  20
TORSDOF 3
ENDMDL
MODEL 6
REMARK VINA RESULT:       5.8      1.507      3.378
REMARK  3 active torsions:
REMARK  status: ('A' for Active; 'I' for Inactive)
REMARK    1  A    between atoms: C_7  and  C_1 
REMARK    2  A    between atoms: C_10  and  N_2 
REMARK    3  A    between atoms: C_14  and  C_7 
ROOT
ATOM      1  C   UNL d   1      58.185  -1.284  30.107  0.00  0.00     0.155 A 
ATOM      2  N   UNL d   1      58.450  -0.722  30.659  0.00  0.00    -0.277 N 
ATOM      3  C   UNL d   1      58.003  -0.579  31.325  0.00  0.00     0.153 A 
ATOM      4  C   UNL d   1      57.292  -0.990  31.448  0.00  0.00     0.092 A 
ATOM      5  N   UNL d   1      57.478  -1.693  30.230  0.00  0.00    -0.190 NA
ATOM      6  C   UNL d   1      57.041  -1.538  30.903  0.00  0.00     0.283 A 
ATOM      7  N   UNL d   1      58.263  -0.015  31.886  0.00  0.00    -0.228 NA
ATOM      8  C   UNL d   1      56.847  -0.834  32.132  0.00  0.00     0.009 A 
ATOM      9  O   UNL d   1      56.330  -1.945  31.032  0.00  0.00    -0.265 OA
ATOM     10  C   UNL d   1      57.110  -0.280  32.674  0.00  0.00     0.019 A 
ATOM     11  C   UNL d   1      57.809   0.124  32.553  0.00  0.00     0.083 A 
ATOM     12  C   UNL d   1      56.141  -1.243  32.254  0.00  0.00     0.000 C 
ATOM     13  C   UNL d   1      58.063   0.682  33.111  0.00  0.00     0.021 C 
ENDROOT
BRANCH   2  14
ATOM     14  C   UNL d   1      59.151  -0.317  30.537  0.00  0.00     0.067 A 
ATOM     15  C   UNL d   1      59.807  -0.498  30.981  0.00  0.00     0.018 A 
ATOM     16  C   UNL d   1      60.516  -0.088  30.858  0.00  0.00     0.002 A 
ATOM     17  C   UNL d   1      60.564   0.501  30.292  0.00  0.00     0.000 A 
ATOM     18  C   UNL d   1      59.886   0.681  29.841  0.00  0.00     0.002 A 
ATOM     19  C   UNL d   1      59.184   0.275  29.963  0.00  0.00     0.018 A 
ENDBRANCH   2  14
BRANCH   1  20
ATOM     20  C   UNL d   1      58.632  -1.432  29.433  0.00  0.00     0.080 C 
BRANCH  20  21
ATOM     21  C   UNL d   1      58.567  -2.119  28.981  0.00  0.00     0.199 C 
ATOM     22  O   UNL d   1      57.817  -2.173  28.492  0.00  0.00    -0.286 OA
ATOM     23  C   UNL d   1      59.285  -2.912  28.943  0.00  0.00     0.045 C 
ENDBRANCH  20  21
ENDBRANCH   1  20
TORSDOF 3
ENDMDL
