MODEL 1
REMARK VINA RESULT:      -9.8      0.000      0.000
REMARK  1 active torsions:
REMARK  status: ('A' for Active; 'I' for Inactive)
REMARK    1  A    between atoms: O_15  and  C_11 
ROOT
ATOM      1  C   UNL d   1      53.389  33.596  54.127  0.00  0.00     0.139 A 
ATOM      2  N   UNL d   1      52.819  33.342  53.561  0.00  0.00    -0.241 NA
ATOM      3  C   UNL d   1      53.840  32.945  54.333  0.00  0.00     0.025 A 
ATOM      4  C   UNL d   1      53.569  32.286  53.914  0.00  0.00     0.021 A 
ATOM      5  C   UNL d   1      52.945  32.538  53.444  0.00  0.00     0.082 A 
ATOM      6  C   UNL d   1      53.533  34.359  54.466  0.00  0.00     0.297 A 
ATOM      7  N   UNL d   1      54.140  34.442  55.015  0.00  0.00    -0.205 NA
ATOM      8  C   UNL d   1      53.802  31.503  53.894  0.00  0.00     0.026 A 
ATOM      9  O   UNL d   1      53.061  35.019  54.244  0.00  0.00    -0.264 OA
ATOM     10  C   UNL d   1      52.550  32.009  52.953  0.00  0.00     0.021 A 
ATOM     11  C   UNL d   1      53.406  30.971  53.402  0.00  0.00     0.094 A 
ATOM     12  C   UNL d   1      54.469  33.040  54.905  0.00  0.00     0.022 A 
ATOM     13  C   UNL d   1      54.611  33.782  55.236  0.00  0.00     0.102 A 
ATOM     14  C   UNL d   1      52.799  31.208  52.943  0.00  0.00     0.026 A 
ENDROOT
BRANCH  11  15
ATOM     15  O   UNL d   1      53.618  30.170  53.360  0.00  0.00    -0.328 OA
ATOM     16  C   UNL d   1      53.158  29.584  53.737  0.00  0.00     0.181 C 
ENDBRANCH  11  15
TORSDOF 1
ENDMDL
MODEL 2
REMARK VINA RESULT:      -9.0      1.003      3.489
REMARK  1 active torsions:
REMARK  status: ('A' for Active; 'I' for Inactive)
REMARK    1  A    between atoms: O_15  and  C_11 
ROOT
ATOM      1  C   UNL d   1      53.505  31.656  53.788  0.00  0.00     0.139 A 
ATOM      2  N   UNL d   1      54.033  31.813  54.425  0.00  0.00    -0.241 NA
ATOM      3  C   UNL d   1      53.179  32.369  53.555  0.00  0.00     0.025 A 
ATOM      4  C   UNL d   1      53.487  32.973  54.028  0.00  0.00     0.021 A 
ATOM      5  C   UNL d   1      54.008  32.624  54.557  0.00  0.00     0.082 A 
ATOM      6  C   UNL d   1      53.297  30.929  53.405  0.00  0.00     0.297 A 
ATOM      7  N   UNL d   1      52.755  30.945  52.787  0.00  0.00    -0.205 NA
ATOM      8  C   UNL d   1      53.366  33.781  54.050  0.00  0.00     0.026 A 
ATOM      9  O   UNL d   1      53.641  30.203  53.655  0.00  0.00    -0.264 OA
ATOM     10  C   UNL d   1      54.412  33.080  55.110  0.00  0.00     0.021 A 
ATOM     11  C   UNL d   1      53.771  34.239  54.605  0.00  0.00     0.094 A 
ATOM     12  C   UNL d   1      52.616  32.378  52.911  0.00  0.00     0.022 A 
ATOM     13  C   UNL d   1      52.412  31.671  52.537  0.00  0.00     0.102 A 
ATOM     14  C   UNL d   1      54.279  33.908  55.122  0.00  0.00     0.026 A 
ENDROOT
BRANCH  11  15
ATOM     15  O   UNL d   1      53.670  35.062  54.653  0.00  0.00    -0.328 OA
ATOM     16  C   UNL d   1      52.911  35.396  54.756  0.00  0.00     0.181 C 
ENDBRANCH  11  15
TORSDOF 1
ENDMDL
MODEL 3
REMARK VINA RESULT:      -8.5      1.889      3.100
REMARK  1 active torsions:
REMARK  status: ('A' for Active; 'I' for Inactive)
REMARK    1  A    between atoms: O_15  and  C_11 
ROOT
ATOM      1  C   UNL d   1      53.556  33.043  53.787  0.00  0.00     0.139 A 
ATOM      2  N   UNL d   1      53.428  33.870  53.887  0.00  0.00    -0.241 NA
ATOM      3  C   UNL d   1      52.930  32.748  53.351  0.00  0.00     0.025 A 
ATOM      4  C   UNL d   1      52.410  33.365  53.173  0.00  0.00     0.021 A 
ATOM      5  C   UNL d   1      52.723  34.048  53.505  0.00  0.00     0.082 A 
ATOM      6  C   UNL d   1      54.184  32.542  54.055  0.00  0.00     0.297 A 
ATOM      7  N   UNL d   1      54.160  31.741  53.870  0.00  0.00    -0.205 NA
ATOM      8  C   UNL d   1      51.705  33.399  52.760  0.00  0.00     0.026 A 
ATOM      9  O   UNL d   1      54.821  32.861  54.503  0.00  0.00    -0.264 OA
ATOM     10  C   UNL d   1      52.333  34.768  53.426  0.00  0.00     0.021 A 
ATOM     11  C   UNL d   1      51.314  34.123  52.681  0.00  0.00     0.094 A 
ATOM     12  C   UNL d   1      52.912  31.913  53.163  0.00  0.00     0.022 A 
ATOM     13  C   UNL d   1      53.524  31.423  53.423  0.00  0.00     0.102 A 
ATOM     14  C   UNL d   1      51.611  34.790  53.000  0.00  0.00     0.026 A 
ENDROOT
BRANCH  11  15
ATOM     15  O   UNL d   1      50.597  34.191  52.268  0.00  0.00    -0.328 OA
ATOM     16  C   UNL d   1      49.906  34.463  52.650  0.00  0.00     0.181 C 
ENDBRANCH  11  15
TORSDOF 1
ENDMDL
MODEL 4
REMARK VINA RESULT:      -7.9      1.736      2.784
REMARK  1 active torsions:
REMARK  status: ('A' for Active; 'I' for Inactive)
REMARK    1  A    between atoms: O_15  and  C_11 
ROOT
ATOM      1  C   UNL d   1      52.250  33.461  52.895  0.00  0.00     0.139 A 
ATOM      2  N   UNL d   1      52.706  32.758  52.808  0.00  0.00    -0.241 NA
ATOM      3  C   UNL d   1      52.552  33.874  53.534  0.00  0.00     0.025 A 
ATOM      4  C   UNL d   1      53.187  33.451  53.852  0.00  0.00     0.021 A 
ATOM      5  C   UNL d   1      53.274  32.770  53.402  0.00  0.00     0.082 A 
ATOM      6  C   UNL d   1      51.591  33.755  52.450  0.00  0.00     0.297 A 
ATOM      7  N   UNL d   1      51.252  34.472  52.668  0.00  0.00    -0.205 NA
ATOM      8  C   UNL d   1      53.691  33.590  54.481  0.00  0.00     0.026 A 
ATOM      9  O   UNL d   1      51.292  33.319  51.796  0.00  0.00    -0.264 OA
ATOM     10  C   UNL d   1      53.864  32.225  53.577  0.00  0.00     0.021 A 
ATOM     11  C   UNL d   1      54.283  33.042  54.657  0.00  0.00     0.094 A 
ATOM     12  C   UNL d   1      52.193  34.619  53.754  0.00  0.00     0.022 A 
ATOM     13  C   UNL d   1      51.552  34.907  53.321  0.00  0.00     0.102 A 
ATOM     14  C   UNL d   1      54.374  32.379  54.225  0.00  0.00     0.026 A 
ENDROOT
BRANCH  11  15
ATOM     15  O   UNL d   1      54.810  33.154  55.288  0.00  0.00    -0.328 OA
ATOM     16  C   UNL d   1      55.334  33.806  55.300  0.00  0.00     0.181 C 
ENDBRANCH  11  15
TORSDOF 1
ENDMDL
