MODEL 1
REMARK VINA RESULT:      71.1      0.000      0.000
REMARK  5 active torsions:
REMARK  status: ('A' for Active; 'I' for Inactive)
REMARK    1  A    between atoms: C_4  and  C_1 
REMARK    2  A    between atoms: C_9  and  C_4 
REMARK    3  A    between atoms: N_5  and  C_9 
REMARK    4  A    between atoms: C_19  and  N_6 
REMARK    5  A    between atoms: C_18  and  C_19 
ROOT
ATOM      1  N   UNL d   1     -54.949-101.526 -41.734  0.00  0.00    -0.297 N 
ATOM      2  N   UNL d   1     -55.263-100.634 -43.096  0.00  0.00    -0.300 N 
ATOM      3  C   UNL d   1     -55.336-101.863 -42.374  0.00  0.00     0.100 A 
ATOM      4  C   UNL d   1     -54.712-100.728 -41.771  0.00  0.00     0.100 A 
ATOM      5  C   UNL d   1     -54.874-100.290 -42.458  0.00  0.00     0.100 A 
ATOM      6  C   UNL d   1     -55.497-101.424 -43.060  0.00  0.00     0.100 A 
ENDROOT
BRANCH   1   7
ATOM      7  C   UNL d   1     -54.791-101.964 -41.057  0.00  0.00     0.123 C 
BRANCH   7   8
ATOM      8  C   UNL d   1     -55.361-102.470 -40.744  0.00  0.00     0.216 C 
ATOM      9  O   UNL d   1     -55.872-102.878 -41.248  0.00  0.00    -0.285 OA
BRANCH   8  10
ATOM     10  C   UNL d   1     -55.423-102.571 -39.922  0.00  0.00     0.080 A 
ATOM     11  C   UNL d   1     -56.151-102.672 -39.576  0.00  0.00     0.202 A 
ATOM     12  C   UNL d   1     -56.215-102.772 -38.765  0.00  0.00     0.078 A 
ATOM     13  O   UNL d   1     -56.830-102.673 -40.046  0.00  0.00    -0.286 OA
ATOM     14  C   UNL d   1     -56.958-102.874 -38.419  0.00  0.00     0.007 C 
ATOM     15  C   UNL d   1     -55.533-102.771 -38.287  0.00  0.00     0.199 A 
ATOM     16  C   UNL d   1     -54.790-102.668 -38.643  0.00  0.00     0.042 A 
ATOM     17  O   UNL d   1     -55.598-102.871 -37.477  0.00  0.00    -0.286 OA
ATOM     18  C   UNL d   1     -54.731-102.568 -39.459  0.00  0.00     0.010 A 
ENDBRANCH   8  10
ENDBRANCH   7   8
ENDBRANCH   1   7
BRANCH   2  19
ATOM     19  C   UNL d   1     -55.422-100.193 -43.779  0.00  0.00     0.080 C 
BRANCH  19  20
ATOM     20  C   UNL d   1     -56.201-100.001 -43.971  0.00  0.00     0.020 A 
ATOM     21  C   UNL d   1     -56.619 -99.459 -43.508  0.00  0.00     0.028 A 
ATOM     22  C   UNL d   1     -57.394 -99.270 -43.702  0.00  0.00     0.119 A 
ATOM     23  O   UNL d   1     -57.935 -98.759 -43.349  0.00  0.00    -0.300 OA
ATOM     24  C   UNL d   1     -57.752 -99.621 -44.355  0.00  0.00     0.119 A 
ATOM     25  C   UNL d   1     -58.636 -98.787 -43.778  0.00  0.00     0.304 A 
ATOM     26  O   UNL d   1     -58.521 -99.322 -44.402  0.00  0.00    -0.300 OA
ATOM     27  C   UNL d   1     -57.338-100.162 -44.818  0.00  0.00     0.026 A 
ATOM     28  C   UNL d   1     -56.555-100.350 -44.618  0.00  0.00     0.004 A 
ENDBRANCH  19  20
ENDBRANCH   2  19
TORSDOF 5
ENDMDL
