MODEL 1
REMARK VINA RESULT:     111.4      0.000      0.000
REMARK  7 active torsions:
REMARK  status: ('A' for Active; 'I' for Inactive)
REMARK    1  A    between atoms: O_8  and  C_2 
REMARK    2  A    between atoms: C_10  and  C_5 
REMARK    3  A    between atoms: C_21  and  O_8 
REMARK    4  A    between atoms: N_9  and  C_10 
REMARK    5  A    between atoms: C_12  and  C_15 
REMARK    6  A    between atoms: O_26  and  C_12 
REMARK    7  A    between atoms: C_32  and  O_26 
ROOT
ATOM      1  C   UNL d   1      60.448  48.662  50.743  0.00  0.00     0.108 A 
ATOM      2  C   UNL d   1      61.644  47.659  50.174  0.00  0.00     0.161 A 
ATOM      3  C   UNL d   1      60.904  48.207  51.277  0.00  0.00     0.064 A 
ATOM      4  C   UNL d   1      61.495  47.712  50.997  0.00  0.00     0.222 A 
ATOM      5  C   UNL d   1      59.850  49.163  51.027  0.00  0.00     0.079 A 
ATOM      6  O   UNL d   1      60.588  48.617  49.926  0.00  0.00    -0.305 OA
ATOM      7  C   UNL d   1      61.192  48.110  49.643  0.00  0.00     0.126 A 
ATOM      8  C   UNL d   1      60.749  48.266  52.092  0.00  0.00     0.009 A 
ATOM      9  C   UNL d   1      59.704  49.214  51.836  0.00  0.00     0.199 A 
ATOM     10  O   UNL d   1      61.947  47.262  51.522  0.00  0.00    -0.284 OA
ATOM     11  C   UNL d   1      60.155  48.764  52.371  0.00  0.00     0.042 A 
ATOM     12  O   UNL d   1      59.114  49.708  52.118  0.00  0.00    -0.286 OA
ATOM     13  C   UNL d   1      61.339  48.058  48.835  0.00  0.00     0.029 C 
ENDROOT
BRANCH   2  14
ATOM     14  O   UNL d   1      62.238  47.161  49.895  0.00  0.00    -0.302 OA
BRANCH  14  15
ATOM     15  C   UNL d   1      62.054  46.395  49.659  0.00  0.00     0.100 A 
ATOM     16  C   UNL d   1      62.534  45.768  49.892  0.00  0.00     0.025 A 
ATOM     17  C   UNL d   1      62.350  45.001  49.656  0.00  0.00     0.007 A 
ATOM     18  C   UNL d   1      61.685  44.861  49.188  0.00  0.00     0.064 A 
ATOM     19  C   UNL d   1      61.202  45.500  48.955  0.00  0.00     0.007 A 
ATOM     20  C   UNL d   1      61.388  46.259  49.191  0.00  0.00     0.025 A 
BRANCH  18  21
ATOM     21  C   UNL d   1      61.497  44.093  48.950  0.00  0.00     0.300 C 
ATOM     22  O   UNL d   1      62.094  43.537  48.829  0.00  0.00    -0.259 OA
BRANCH  21  23
ATOM     23  O   UNL d   1      60.709  43.873  48.830  0.00  0.00    -0.271 OA
BRANCH  23  24
ATOM     24  C   UNL d   1      60.212  43.770  49.480  0.00  0.00     0.126 C 
ATOM     25  C   UNL d   1      59.541  43.298  49.420  0.00  0.00     0.029 C 
ENDBRANCH  23  24
ENDBRANCH  21  23
ENDBRANCH  18  21
ENDBRANCH  14  15
ENDBRANCH   2  14
BRANCH   5  26
ATOM     26  C   UNL d   1      59.407  49.604  50.502  0.00  0.00     0.086 C 
BRANCH  26  27
ATOM     27  N   UNL d   1      58.581  49.563  50.522  0.00  0.00    -0.300 N 
ATOM     28  C   UNL d   1      58.195  49.379  51.227  0.00  0.00     0.100 A 
ATOM     29  C   UNL d   1      57.375  49.338  51.244  0.00  0.00     0.100 A 
ATOM     30  N   UNL d   1      56.937  49.479  50.564  0.00  0.00    -0.299 N 
ATOM     31  C   UNL d   1      57.326  49.664  49.855  0.00  0.00     0.100 A 
ATOM     32  C   UNL d   1      56.108  49.438  50.581  0.00  0.00     0.100 C 
ATOM     33  C   UNL d   1      58.152  49.706  49.836  0.00  0.00     0.100 A 
ENDBRANCH  26  27
ENDBRANCH   5  26
TORSDOF 7
ENDMDL
