MODEL 1
REMARK VINA RESULT:      15.2      0.000      0.000
REMARK  4 active torsions:
REMARK  status: ('A' for Active; 'I' for Inactive)
REMARK    1  A    between atoms: N_14  and  C_6 
REMARK    2  A    between atoms: C_19  and  N_14 
REMARK    3  A    between atoms: O_17  and  C_20 
REMARK    4  A    between atoms: C_20  and  C_19 
ROOT
ATOM      1  N   UNL d   1      46.268 -17.998  43.315  0.00  0.00    -0.183 N 
ATOM      2  C   UNL d   1      46.393 -18.772  43.042  0.00  0.00     0.169 A 
ATOM      3  C   UNL d   1      46.456 -18.927  42.241  0.00  0.00     0.073 A 
ATOM      4  C   UNL d   1      46.394 -18.304  41.715  0.00  0.00     0.185 A 
ATOM      5  N   UNL d   1      46.270 -17.530  41.988  0.00  0.00    -0.142 NA
ATOM      6  C   UNL d   1      46.207 -17.863  44.118  0.00  0.00     0.218 A 
ATOM      7  N   UNL d   1      46.453 -19.389  43.580  0.00  0.00    -0.226 NA
ATOM      8  C   UNL d   1      46.579 -19.692  41.971  0.00  0.00     0.007 A 
ATOM      9  N   UNL d   1      46.456 -18.445  40.901  0.00  0.00    -0.225 NA
ATOM     10  C   UNL d   1      46.266 -18.470  44.655  0.00  0.00     0.071 A 
ATOM     11  C   UNL d   1      46.643 -19.847  41.171  0.00  0.00     0.019 A 
ATOM     12  C   UNL d   1      46.391 -19.244  44.382  0.00  0.00     0.087 A 
ATOM     13  C   UNL d   1      46.581 -19.219  40.628  0.00  0.00     0.083 A 
ATOM     14  C   UNL d   1      46.640 -20.312  42.513  0.00  0.00     0.000 C 
ATOM     15  C   UNL d   1      46.453 -19.884  44.944  0.00  0.00     0.021 C 
ATOM     16  C   UNL d   1      46.643 -19.366  39.830  0.00  0.00     0.021 C 
ENDROOT
BRANCH   6  17
ATOM     17  N   UNL d   1      46.079 -17.062  44.391  0.00  0.00    -0.378 NA
BRANCH  17  18
ATOM     18  C   UNL d   1      45.962 -16.342  44.819  0.00  0.00     0.189 C 
BRANCH  18  19
ATOM     19  C   UNL d   1      45.600 -15.675  44.440  0.00  0.00     0.151 C 
BRANCH  19  20
ATOM     20  O   UNL d   1      45.361 -15.010  44.896  0.00  0.00    -0.323 OA
ATOM     21  C   UNL d   1      45.102 -14.288  44.522  0.00  0.00     0.182 C 
ENDBRANCH  19  20
ENDBRANCH  18  19
ENDBRANCH  17  18
ENDBRANCH   6  17
TORSDOF 4
ENDMDL
