MODEL 1
REMARK VINA RESULT:      31.1      0.000      0.000
REMARK  4 active torsions:
REMARK  status: ('A' for Active; 'I' for Inactive)
REMARK    1  A    between atoms: N_8  and  S_1 
REMARK    2  A    between atoms: C_12  and  S_1 
REMARK    3  A    between atoms: C_5  and  C_9 
REMARK    4  A    between atoms: C_15  and  N_8 
ROOT
ATOM      1  C   UNL d   1      14.230  12.532  -1.585  0.00  0.00     0.021 A 
ATOM      2  C   UNL d   1      14.669  13.218  -0.415  0.00  0.00     0.094 A 
ATOM      3  C   UNL d   1      14.375  13.234  -1.184  0.00  0.00     0.021 A 
ATOM      4  C   UNL d   1      14.377  11.800  -1.229  0.00  0.00     0.002 A 
ATOM      5  C   UNL d   1      14.674  11.779  -0.453  0.00  0.00     0.002 A 
ATOM      6  C   UNL d   1      14.823  12.486  -0.039  0.00  0.00     0.020 A 
ENDROOT
BRANCH   2   7
ATOM      7  N   UNL d   1      14.813  13.920  -0.014  0.00  0.00    -0.158 NA
BRANCH   7   8
ATOM      8  S   UNL d   1      15.462  14.384  -0.222  0.00  0.00     0.285 S 
ATOM      9  O   UNL d   1      16.122  13.913  -0.069  0.00  0.00    -0.198 OA
ATOM     10  O   UNL d   1      16.223  14.673  -0.368  0.00  0.00    -0.198 OA
BRANCH   8  11
ATOM     11  C   UNL d   1      15.340  15.147  -0.513  0.00  0.00     0.105 A 
ATOM     12  C   UNL d   1      15.064  15.738  -0.014  0.00  0.00     0.013 A 
ATOM     13  C   UNL d   1      14.944  16.497  -0.305  0.00  0.00     0.001 A 
ATOM     14  C   UNL d   1      15.102  16.666  -1.104  0.00  0.00     0.000 A 
ATOM     15  C   UNL d   1      15.380  16.061  -1.598  0.00  0.00     0.001 A 
ATOM     16  C   UNL d   1      15.498  15.310  -1.305  0.00  0.00     0.013 A 
ENDBRANCH   8  11
ENDBRANCH   7   8
ENDBRANCH   2   7
BRANCH   1  17
ATOM     17  C   UNL d   1      13.935  12.549  -2.357  0.00  0.00     0.118 A 
ATOM     18  N   UNL d   1      13.676  11.903  -2.803  0.00  0.00    -0.059 NA
ATOM     19  C   UNL d   1      13.430  12.179  -3.536  0.00  0.00     0.735 A 
ATOM     20  N   UNL d   1      13.122  11.781  -4.196  0.00  0.00    -0.059 NA
ATOM     21  N   UNL d   1      13.534  12.995  -3.552  0.00  0.00    -0.136 N 
ATOM     22  C   UNL d   1      12.919  12.208  -4.871  0.00  0.00     0.119 A 
ATOM     23  C   UNL d   1      13.021  13.025  -4.892  0.00  0.00     0.041 A 
ATOM     24  C   UNL d   1      13.326  13.419  -4.239  0.00  0.00     0.100 A 
ATOM     25  C   UNL d   1      13.845  13.227  -2.826  0.00  0.00     0.118 A 
ENDBRANCH   1  17
TORSDOF 4
ENDMDL
