MODEL 1
REMARK VINA RESULT:     102.9      0.000      0.000
REMARK  4 active torsions:
REMARK  status: ('A' for Active; 'I' for Inactive)
REMARK    1  A    between atoms: C_12  and  N_3 
REMARK    2  A    between atoms: C_10  and  C_5 
REMARK       I    between atoms: N_11  and  C_10 
REMARK    3  A    between atoms: C_24  and  C_12 
REMARK    4  A    between atoms: C_25  and  N_14 
ROOT
ATOM      1  C   UNL d   1     -57.762 -98.890 -43.461  0.00  0.00     0.154 A 
ATOM      2  C   UNL d   1     -58.556 -98.841 -43.680  0.00  0.00     0.093 A 
ATOM      3  N   UNL d   1     -57.309 -98.908 -44.152  0.00  0.00    -0.286 N 
ATOM      4  N   UNL d   1     -57.563 -98.910 -42.666  0.00  0.00    -0.210 NA
ATOM      5  C   UNL d   1     -57.818 -98.871 -44.793  0.00  0.00     0.122 A 
ATOM      6  C   UNL d   1     -59.143 -98.814 -43.102  0.00  0.00     0.269 A 
ATOM      7  N   UNL d   1     -58.935 -98.836 -42.306  0.00  0.00    -0.258 N 
ATOM      8  C   UNL d   1     -58.141 -98.884 -42.087  0.00  0.00     0.152 A 
ATOM      9  C   UNL d   1     -58.596 -98.829 -44.507  0.00  0.00     0.030 A 
ATOM     10  C   UNL d   1     -59.522 -98.809 -41.728  0.00  0.00     0.084 A 
ATOM     11  O   UNL d   1     -59.936 -98.766 -43.321  0.00  0.00    -0.266 OA
ATOM     12  C   UNL d   1     -57.942 -98.905 -41.292  0.00  0.00     0.038 A 
ATOM     13  C   UNL d   1     -59.314 -98.830 -40.928  0.00  0.00     0.019 A 
ATOM     14  C   UNL d   1     -58.521 -98.878 -40.709  0.00  0.00     0.005 A 
ENDROOT
BRANCH   5  15
ATOM     15  C   UNL d   1     -57.598 -98.874 -45.590  0.00  0.00     0.281 C 
ATOM     16  N   UNL d   1     -58.176 -98.897 -46.176  0.00  0.00    -0.268 N 
ATOM     17  C   UNL d   1     -58.972 -98.917 -45.968  0.00  0.00     0.102 A 
ATOM     18  C   UNL d   1     -57.956 -98.900 -46.975  0.00  0.00     0.102 A 
ATOM     19  C   UNL d   1     -59.553 -98.940 -46.555  0.00  0.00     0.100 A 
ATOM     20  N   UNL d   1     -59.333 -98.943 -47.355  0.00  0.00    -0.300 N 
ATOM     21  C   UNL d   1     -58.532 -98.923 -47.562  0.00  0.00     0.100 A 
ATOM     22  O   UNL d   1     -56.803 -98.854 -45.798  0.00  0.00    -0.265 OA
BRANCH  20  23
ATOM     23  C   UNL d   1     -59.916 -98.966 -47.952  0.00  0.00     0.080 C 
ATOM     24  C   UNL d   1     -59.723 -98.764 -48.732  0.00  0.00     0.021 C 
ENDBRANCH  20  23
ENDBRANCH   5  15
BRANCH   3  25
ATOM     25  C   UNL d   1     -56.484 -98.955 -44.184  0.00  0.00     0.082 C 
BRANCH  25  26
ATOM     26  C   UNL d   1     -56.111 -99.685 -44.172  0.00  0.00     0.018 A 
ATOM     27  C   UNL d   1     -56.082-100.125 -43.474  0.00  0.00     0.002 A 
ATOM     28  C   UNL d   1     -55.708-100.859 -43.459  0.00  0.00     0.000 A 
ATOM     29  C   UNL d   1     -55.363-101.154 -44.139  0.00  0.00     0.000 A 
ATOM     30  C   UNL d   1     -55.390-100.715 -44.840  0.00  0.00     0.000 A 
ATOM     31  C   UNL d   1     -55.764 -99.982 -44.855  0.00  0.00     0.002 A 
ENDBRANCH  25  26
ENDBRANCH   3  25
TORSDOF 4
ENDMDL
