MODEL 1
REMARK VINA RESULT:      -3.3      0.000      0.000
REMARK  4 active torsions:
REMARK  status: ('A' for Active; 'I' for Inactive)
REMARK    1  A    between atoms: C_2  and  S_1 
REMARK    2  A    between atoms: N_5  and  S_1 
REMARK    3  A    between atoms: C_11  and  C_4 
REMARK    4  A    between atoms: C_9  and  N_5 
ROOT
ATOM      1  S   UNL d   1     -41.858-122.706 -52.747  0.00  0.00     0.287 S 
ATOM      2  O   UNL d   1     -41.123-122.333 -52.642  0.00  0.00    -0.198 OA
ATOM      3  O   UNL d   1     -42.602-123.082 -52.841  0.00  0.00    -0.198 OA
ENDROOT
BRANCH   1   4
ATOM      4  C   UNL d   1     -41.706-122.836 -53.552  0.00  0.00     0.125 A 
ATOM      5  C   UNL d   1     -41.985-122.293 -54.109  0.00  0.00     0.121 A 
ATOM      6  N   UNL d   1     -42.415-121.595 -54.043  0.00  0.00    -0.190 NA
ATOM      7  C   UNL d   1     -41.834-122.422 -54.917  0.00  0.00     0.110 A 
ATOM      8  S   UNL d   1     -42.533-121.290 -54.791  0.00  0.00     0.117 SA
ATOM      9  N   UNL d   1     -42.173-121.801 -55.330  0.00  0.00    -0.190 NA
ATOM     10  C   UNL d   1     -41.412-123.081 -55.157  0.00  0.00     0.021 A 
ATOM     11  C   UNL d   1     -41.134-123.623 -54.593  0.00  0.00     0.002 A 
ATOM     12  C   UNL d   1     -41.284-123.495 -53.792  0.00  0.00     0.015 A 
ENDBRANCH   1   4
BRANCH   1  13
ATOM     13  N   UNL d   1     -42.006-122.575 -51.943  0.00  0.00    -0.158 NA
BRANCH  13  14
ATOM     14  C   UNL d   1     -41.876-122.773 -51.411  0.00  0.00     0.100 A 
ATOM     15  C   UNL d   1     -42.189-122.430 -50.671  0.00  0.00     0.083 A 
ATOM     16  C   UNL d   1     -41.920-122.811 -49.999  0.00  0.00     0.014 A 
ATOM     17  C   UNL d   1     -41.395-123.468 -50.001  0.00  0.00     0.035 A 
ATOM     18  C   UNL d   1     -41.124-123.761 -50.720  0.00  0.00     0.008 A 
ATOM     19 BR   UNL d   1     -41.156-123.815 -49.277  0.00  0.00    -0.049 Br
ATOM     20  C   UNL d   1     -41.381-123.391 -51.447  0.00  0.00     0.021 A 
BRANCH  15  21
ATOM     21  C   UNL d   1     -42.699-121.792 -50.660  0.00  0.00     0.212 C 
ATOM     22  O   UNL d   1     -42.402-121.005 -50.780  0.00  0.00    -0.644 OA
ATOM     23  O   UNL d   1     -43.503-121.914 -50.533  0.00  0.00    -0.644 OA
ENDBRANCH  15  21
ENDBRANCH  13  14
ENDBRANCH   1  13
TORSDOF 4
ENDMDL
MODEL 2
REMARK VINA RESULT:      -1.8      1.815      3.840
REMARK  4 active torsions:
REMARK  status: ('A' for Active; 'I' for Inactive)
REMARK    1  A    between atoms: C_2  and  S_1 
REMARK    2  A    between atoms: N_5  and  S_1 
REMARK    3  A    between atoms: C_11  and  C_4 
REMARK    4  A    between atoms: C_9  and  N_5 
ROOT
ATOM      1  S   UNL d   1     -41.858-122.461 -51.619  0.00  0.00     0.287 S 
ATOM      2  O   UNL d   1     -42.157-123.219 -51.784  0.00  0.00    -0.198 OA
ATOM      3  O   UNL d   1     -41.556-121.693 -51.465  0.00  0.00    -0.198 OA
ENDROOT
BRANCH   1   4
ATOM      4  C   UNL d   1     -41.849-122.614 -50.804  0.00  0.00     0.125 A 
ATOM      5  C   UNL d   1     -42.555-122.571 -50.376  0.00  0.00     0.121 A 
ATOM      6  N   UNL d   1     -43.329-122.396 -50.592  0.00  0.00    -0.190 NA
ATOM      7  C   UNL d   1     -42.547-122.724 -49.558  0.00  0.00     0.110 A 
ATOM      8  S   UNL d   1     -43.800-122.438 -49.926  0.00  0.00     0.117 SA
ATOM      9  N   UNL d   1     -43.316-122.641 -49.288  0.00  0.00    -0.190 NA
ATOM     10  C   UNL d   1     -41.846-122.915 -49.182  0.00  0.00     0.021 A 
ATOM     11  C   UNL d   1     -41.140-122.957 -49.616  0.00  0.00     0.002 A 
ATOM     12  C   UNL d   1     -41.148-122.805 -50.427  0.00  0.00     0.015 A 
ENDBRANCH   1   4
BRANCH   1  13
ATOM     13  N   UNL d   1     -41.869-122.311 -52.433  0.00  0.00    -0.158 NA
BRANCH  13  14
ATOM     14  C   UNL d   1     -41.749-122.554 -52.949  0.00  0.00     0.100 A 
ATOM     15  C   UNL d   1     -41.897-122.167 -53.718  0.00  0.00     0.083 A 
ATOM     16  C   UNL d   1     -41.678-122.627 -54.358  0.00  0.00     0.014 A 
ATOM     17  C   UNL d   1     -41.344-123.396 -54.302  0.00  0.00     0.035 A 
ATOM     18  C   UNL d   1     -41.221-123.725 -53.558  0.00  0.00     0.008 A 
ATOM     19 BR   UNL d   1     -41.141-123.817 -54.997  0.00  0.00    -0.049 Br
ATOM     20  C   UNL d   1     -41.435-123.277 -52.861  0.00  0.00     0.021 A 
BRANCH  15  21
ATOM     21  C   UNL d   1     -42.222-121.420 -53.783  0.00  0.00     0.212 C 
ATOM     22  O   UNL d   1     -43.020-121.323 -54.056  0.00  0.00    -0.644 OA
ATOM     23  O   UNL d   1     -41.772-120.761 -53.582  0.00  0.00    -0.644 OA
ENDBRANCH  15  21
ENDBRANCH  13  14
ENDBRANCH   1  13
TORSDOF 4
ENDMDL
