MODEL 1
REMARK VINA RESULT:      -6.4      0.000      0.000
REMARK  7 active torsions:
REMARK  status: ('A' for Active; 'I' for Inactive)
REMARK    1  A    between atoms: S_2  and  C_1 
REMARK    2  A    between atoms: N_14  and  S_2 
REMARK    3  A    between atoms: C_9  and  C_18 
REMARK       I    between atoms: N_17  and  C_9 
REMARK    4  A    between atoms: C_13  and  C_23 
REMARK    5  A    between atoms: C_24  and  N_14 
REMARK    6  A    between atoms: C_23  and  N_17 
REMARK    7  A    between atoms: C_18  and  C_24 
ROOT
ATOM      1  S   UNL d   1     -41.394-122.468 -52.883  0.00  0.00     0.287 S 
ATOM      2  O   UNL d   1     -41.347-121.665 -53.067  0.00  0.00    -0.198 OA
ATOM      3  O   UNL d   1     -41.440-123.270 -52.699  0.00  0.00    -0.198 OA
ENDROOT
BRANCH   1   4
ATOM      4  C   UNL d   1     -41.546-122.640 -53.672  0.00  0.00     0.127 A 
ATOM      5  C   UNL d   1     -42.116-122.213 -54.086  0.00  0.00     0.142 A 
ATOM      6  C   UNL d   1     -42.270-122.386 -54.878  0.00  0.00     0.131 A 
ATOM      7  N   UNL d   1     -42.611-121.596 -53.863  0.00  0.00    -0.101 NA
ATOM      8  N   UNL d   1     -42.859-121.876 -55.142  0.00  0.00    -0.102 NA
ATOM      9  C   UNL d   1     -41.853-122.986 -55.257  0.00  0.00     0.023 A 
ATOM     10  O   UNL d   1     -43.071-121.385 -54.513  0.00  0.00    -0.106 OA
ATOM     11  C   UNL d   1     -41.277-123.420 -54.845  0.00  0.00     0.002 A 
ATOM     12  C   UNL d   1     -41.124-123.247 -54.053  0.00  0.00     0.015 A 
ENDBRANCH   1   4
BRANCH   1  13
ATOM     13  N   UNL d   1     -41.239-122.294 -52.087  0.00  0.00    -0.157 NA
BRANCH  13  14
ATOM     14  C   UNL d   1     -41.806-122.457 -51.511  0.00  0.00     0.117 C 
BRANCH  14  15
ATOM     15  C   UNL d   1     -41.643-122.308 -50.716  0.00  0.00     0.084 C 
BRANCH  15  16
ATOM     16  C   UNL d   1     -42.184-122.533 -50.132  0.00  0.00     0.281 C 
ATOM     17  N   UNL d   1     -41.911-122.835 -49.407  0.00  0.00    -0.206 NA
ATOM     18  O   UNL d   1     -43.003-122.457 -50.269  0.00  0.00    -0.265 OA
BRANCH  17  19
ATOM     19  C   UNL d   1     -42.465-123.060 -48.820  0.00  0.00     0.109 C 
BRANCH  19  20
ATOM     20  C   UNL d   1     -42.208-123.323 -48.078  0.00  0.00     0.049 A 
ATOM     21  S   UNL d   1     -42.675-123.612 -47.460  0.00  0.00    -0.085 SA
ATOM     22  C   UNL d   1     -42.197-123.809 -46.828  0.00  0.00     0.035 A 
ATOM     23  C   UNL d   1     -41.416-123.643 -47.045  0.00  0.00     0.007 A 
ATOM     24  C   UNL d   1     -41.416-123.344 -47.813  0.00  0.00     0.009 A 
ENDBRANCH  19  20
ENDBRANCH  17  19
ENDBRANCH  15  16
ENDBRANCH  14  15
ENDBRANCH  13  14
ENDBRANCH   1  13
TORSDOF 7
ENDMDL
MODEL 2
REMARK VINA RESULT:      -5.9      1.441      5.887
REMARK  7 active torsions:
REMARK  status: ('A' for Active; 'I' for Inactive)
REMARK    1  A    between atoms: S_2  and  C_1 
REMARK    2  A    between atoms: N_14  and  S_2 
REMARK    3  A    between atoms: C_9  and  C_18 
REMARK       I    between atoms: N_17  and  C_9 
REMARK    4  A    between atoms: C_13  and  C_23 
REMARK    5  A    between atoms: C_24  and  N_14 
REMARK    6  A    between atoms: C_23  and  N_17 
REMARK    7  A    between atoms: C_18  and  C_24 
ROOT
ATOM      1  S   UNL d   1     -41.843-122.871 -49.525  0.00  0.00     0.287 S 
ATOM      2  O   UNL d   1     -41.307-123.498 -49.485  0.00  0.00    -0.198 OA
ATOM      3  O   UNL d   1     -42.378-122.245 -49.565  0.00  0.00    -0.198 OA
ENDROOT
BRANCH   1   4
ATOM      4  C   UNL d   1     -42.240-123.169 -48.870  0.00  0.00     0.127 A 
ATOM      5  C   UNL d   1     -41.898-123.121 -48.122  0.00  0.00     0.142 A 
ATOM      6  C   UNL d   1     -42.296-123.420 -47.464  0.00  0.00     0.131 A 
ATOM      7  N   UNL d   1     -41.182-122.814 -47.863  0.00  0.00    -0.101 NA
ATOM      8  N   UNL d   1     -41.825-123.296 -46.801  0.00  0.00    -0.102 NA
ATOM      9  C   UNL d   1     -43.037-123.766 -47.553  0.00  0.00     0.023 A 
ATOM     10  O   UNL d   1     -41.133-122.919 -47.048  0.00  0.00    -0.106 OA
ATOM     11  C   UNL d   1     -43.387-123.817 -48.305  0.00  0.00     0.002 A 
ATOM     12  C   UNL d   1     -42.989-123.519 -48.963  0.00  0.00     0.015 A 
ENDBRANCH   1   4
BRANCH   1  13
ATOM     13  N   UNL d   1     -41.442-122.571 -50.186  0.00  0.00    -0.157 NA
BRANCH  13  14
ATOM     14  C   UNL d   1     -41.448-122.988 -50.898  0.00  0.00     0.117 C 
BRANCH  14  15
ATOM     15  C   UNL d   1     -41.253-122.606 -51.603  0.00  0.00     0.084 C 
BRANCH  15  16
ATOM     16  C   UNL d   1     -41.377-122.985 -52.328  0.00  0.00     0.281 C 
ATOM     17  N   UNL d   1     -41.475-122.535 -53.020  0.00  0.00    -0.206 NA
ATOM     18  O   UNL d   1     -41.404-123.817 -52.365  0.00  0.00    -0.265 OA
BRANCH  17  19
ATOM     19  C   UNL d   1     -41.599-122.924 -53.750  0.00  0.00     0.109 C 
BRANCH  19  20
ATOM     20  C   UNL d   1     -41.817-122.496 -54.424  0.00  0.00     0.049 A 
ATOM     21  S   UNL d   1     -41.319-122.084 -54.939  0.00  0.00    -0.085 SA
ATOM     22  C   UNL d   1     -41.764-121.740 -55.531  0.00  0.00     0.035 A 
ATOM     23  C   UNL d   1     -42.556-121.935 -55.393  0.00  0.00     0.007 A 
ATOM     24  C   UNL d   1     -42.596-122.400 -54.714  0.00  0.00     0.009 A 
ENDBRANCH  19  20
ENDBRANCH  17  19
ENDBRANCH  15  16
ENDBRANCH  14  15
ENDBRANCH  13  14
ENDBRANCH   1  13
TORSDOF 7
ENDMDL
MODEL 3
REMARK VINA RESULT:      -5.0      1.436      5.708
REMARK  7 active torsions:
REMARK  status: ('A' for Active; 'I' for Inactive)
REMARK    1  A    between atoms: S_2  and  C_1 
REMARK    2  A    between atoms: N_14  and  S_2 
REMARK    3  A    between atoms: C_9  and  C_18 
REMARK       I    between atoms: N_17  and  C_9 
REMARK    4  A    between atoms: C_13  and  C_23 
REMARK    5  A    between atoms: C_24  and  N_14 
REMARK    6  A    between atoms: C_23  and  N_17 
REMARK    7  A    between atoms: C_18  and  C_24 
ROOT
ATOM      1  S   UNL d   1     -41.993-122.748 -50.060  0.00  0.00     0.287 S 
ATOM      2  O   UNL d   1     -42.377-122.038 -49.892  0.00  0.00    -0.198 OA
ATOM      3  O   UNL d   1     -41.608-123.459 -50.227  0.00  0.00    -0.198 OA
ENDROOT
BRANCH   1   4
ATOM      4  C   UNL d   1     -42.014-122.948 -49.262  0.00  0.00     0.127 A 
ATOM      5  C   UNL d   1     -42.690-123.289 -48.939  0.00  0.00     0.142 A 
ATOM      6  C   UNL d   1     -42.711-123.489 -48.139  0.00  0.00     0.131 A 
ATOM      7  N   UNL d   1     -43.415-123.492 -49.268  0.00  0.00    -0.101 NA
ATOM      8  N   UNL d   1     -43.449-123.815 -47.976  0.00  0.00    -0.102 NA
ATOM      9  C   UNL d   1     -42.056-123.348 -47.661  0.00  0.00     0.023 A 
ATOM     10  O   UNL d   1     -43.886-123.817 -48.676  0.00  0.00    -0.106 OA
ATOM     11  C   UNL d   1     -41.371-123.004 -47.982  0.00  0.00     0.002 A 
ATOM     12  C   UNL d   1     -41.350-122.804 -48.782  0.00  0.00     0.015 A 
ENDBRANCH   1   4
BRANCH   1  13
ATOM     13  N   UNL d   1     -41.971-122.547 -50.863  0.00  0.00    -0.157 NA
BRANCH  13  14
ATOM     14  C   UNL d   1     -41.315-122.745 -51.322  0.00  0.00     0.117 C 
BRANCH  14  15
ATOM     15  C   UNL d   1     -41.180-122.360 -52.039  0.00  0.00     0.084 C 
BRANCH  15  16
ATOM     16  C   UNL d   1     -41.262-122.771 -52.753  0.00  0.00     0.281 C 
ATOM     17  N   UNL d   1     -41.472-122.363 -53.445  0.00  0.00    -0.206 NA
ATOM     18  O   UNL d   1     -41.133-123.595 -52.778  0.00  0.00    -0.265 OA
BRANCH  17  19
ATOM     19  C   UNL d   1     -41.553-122.784 -54.164  0.00  0.00     0.109 C 
BRANCH  19  20
ATOM     20  C   UNL d   1     -41.869-122.416 -54.836  0.00  0.00     0.049 A 
ATOM     21  S   UNL d   1     -41.454-122.028 -55.435  0.00  0.00    -0.085 SA
ATOM     22  C   UNL d   1     -41.980-121.746 -55.992  0.00  0.00     0.035 A 
ATOM     23  C   UNL d   1     -42.742-121.957 -55.743  0.00  0.00     0.007 A 
ATOM     24  C   UNL d   1     -42.679-122.369 -55.033  0.00  0.00     0.009 A 
ENDBRANCH  19  20
ENDBRANCH  17  19
ENDBRANCH  15  16
ENDBRANCH  14  15
ENDBRANCH  13  14
ENDBRANCH   1  13
TORSDOF 7
ENDMDL
