MODEL 1
REMARK VINA RESULT:      -5.2      0.000      0.000
REMARK  7 active torsions:
REMARK  status: ('A' for Active; 'I' for Inactive)
REMARK    1  A    between atoms: N_2  and  S_1 
REMARK    2  A    between atoms: C_6  and  S_1 
REMARK    3  A    between atoms: C_11  and  C_3 
REMARK    4  A    between atoms: C_4  and  C_5 
REMARK       I    between atoms: N_7  and  C_4 
REMARK       I    between atoms: C_5  and  N_10 
REMARK    5  A    between atoms: C_19  and  N_7 
REMARK    6  A    between atoms: N_10  and  C_11 
REMARK    7  A    between atoms: O_23  and  C_18 
ROOT
ATOM      1  N   UNL d   1     -40.145  14.450  20.606  0.00  0.00    -0.209 N 
ATOM      2  C   UNL d   1     -40.692  14.031  21.063  0.00  0.00     0.197 A 
ATOM      3  O   UNL d   1     -40.515  13.806  21.830  0.00  0.00    -0.287 OA
ATOM      4  C   UNL d   1     -39.406  14.645  20.932  0.00  0.00     0.096 A 
ATOM      5  C   UNL d   1     -39.228  14.420  21.700  0.00  0.00     0.047 A 
ATOM      6  C   UNL d   1     -39.776  14.003  22.148  0.00  0.00     0.126 A 
ENDROOT
BRANCH   2   7
ATOM      7  C   UNL d   1     -41.434  13.835  20.737  0.00  0.00     0.146 C 
BRANCH   7   8
ATOM      8  N   UNL d   1     -42.041  13.569  21.227  0.00  0.00    -0.199 NA
ATOM      9  C   UNL d   1     -42.646  13.115  20.917  0.00  0.00     0.337 C 
ATOM     10  O   UNL d   1     -42.654  12.919  20.113  0.00  0.00    -0.260 OA
BRANCH   9  11
ATOM     11  C   UNL d   1     -43.255  12.849  21.407  0.00  0.00     0.337 C 
ATOM     12  N   UNL d   1     -43.962  13.267  21.452  0.00  0.00    -0.204 NA
ATOM     13  O   UNL d   1     -43.154  12.161  21.854  0.00  0.00    -0.260 OA
BRANCH  12  14
ATOM     14  C   UNL d   1     -44.572  13.000  21.943  0.00  0.00     0.085 A 
ATOM     15  C   UNL d   1     -45.266  13.419  21.846  0.00  0.00     0.019 A 
ATOM     16  C   UNL d   1     -45.818  13.092  22.368  0.00  0.00     0.002 A 
ATOM     17  C   UNL d   1     -45.462  12.479  22.779  0.00  0.00     0.002 A 
ATOM     18  C   UNL d   1     -44.673  12.420  22.510  0.00  0.00     0.019 A 
ENDBRANCH  12  14
ENDBRANCH   9  11
ENDBRANCH   7   8
ENDBRANCH   2   7
BRANCH   1  19
ATOM     19  S   UNL d   1     -40.334  14.671  19.835  0.00  0.00     0.273 S 
ATOM     20  O   UNL d   1     -39.899  14.025  19.549  0.00  0.00    -0.200 OA
ATOM     21  O   UNL d   1     -40.767  15.314  20.121  0.00  0.00    -0.200 OA
BRANCH  19  22
ATOM     22  C   UNL d   1     -40.519  14.885  19.061  0.00  0.00     0.104 A 
ATOM     23  C   UNL d   1     -40.422  14.339  18.452  0.00  0.00     0.015 A 
ATOM     24  C   UNL d   1     -40.607  14.552  17.675  0.00  0.00     0.025 A 
ATOM     25  C   UNL d   1     -40.886  15.304  17.509  0.00  0.00     0.094 A 
ATOM     26  C   UNL d   1     -40.987  15.862  18.114  0.00  0.00     0.025 A 
ATOM     27  C   UNL d   1     -40.802  15.651  18.895  0.00  0.00     0.015 A 
BRANCH  25  28
ATOM     28  O   UNL d   1     -41.071  15.517  16.728  0.00  0.00    -0.328 OA
ATOM     29  C   UNL d   1     -41.771  15.922  16.565  0.00  0.00     0.181 C 
ENDBRANCH  25  28
ENDBRANCH  19  22
ENDBRANCH   1  19
TORSDOF 7
ENDMDL
MODEL 2
REMARK VINA RESULT:      -4.7      2.668      6.217
REMARK  7 active torsions:
REMARK  status: ('A' for Active; 'I' for Inactive)
REMARK    1  A    between atoms: N_2  and  S_1 
REMARK    2  A    between atoms: C_6  and  S_1 
REMARK    3  A    between atoms: C_11  and  C_3 
REMARK    4  A    between atoms: C_4  and  C_5 
REMARK       I    between atoms: N_7  and  C_4 
REMARK       I    between atoms: C_5  and  N_10 
REMARK    5  A    between atoms: C_19  and  N_7 
REMARK    6  A    between atoms: N_10  and  C_11 
REMARK    7  A    between atoms: O_23  and  C_18 
ROOT
ATOM      1  N   UNL d   1     -46.079  12.067  23.045  0.00  0.00    -0.209 N 
ATOM      2  C   UNL d   1     -45.325  12.003  22.711  0.00  0.00     0.197 A 
ATOM      3  O   UNL d   1     -44.851  11.353  22.865  0.00  0.00    -0.287 OA
ATOM      4  C   UNL d   1     -46.358  11.463  23.542  0.00  0.00     0.096 A 
ATOM      5  C   UNL d   1     -45.884  10.811  23.696  0.00  0.00     0.047 A 
ATOM      6  C   UNL d   1     -45.135  10.754  23.361  0.00  0.00     0.126 A 
ENDROOT
BRANCH   2   7
ATOM      7  C   UNL d   1     -45.045  12.609  22.212  0.00  0.00     0.146 C 
BRANCH   7   8
ATOM      8  N   UNL d   1     -44.235  12.745  22.145  0.00  0.00    -0.199 NA
ATOM      9  C   UNL d   1     -43.915  12.959  21.424  0.00  0.00     0.337 C 
ATOM     10  O   UNL d   1     -44.400  13.040  20.758  0.00  0.00    -0.260 OA
BRANCH   9  11
ATOM     11  C   UNL d   1     -43.104  13.096  21.356  0.00  0.00     0.337 C 
ATOM     12  N   UNL d   1     -42.821  13.861  21.256  0.00  0.00    -0.204 NA
ATOM     13  O   UNL d   1     -42.574  12.462  21.389  0.00  0.00    -0.260 OA
BRANCH  12  14
ATOM     14  C   UNL d   1     -42.007  13.998  21.189  0.00  0.00     0.085 A 
ATOM     15  C   UNL d   1     -41.830  14.762  20.959  0.00  0.00     0.019 A 
ATOM     16  C   UNL d   1     -41.006  14.814  20.916  0.00  0.00     0.002 A 
ATOM     17  C   UNL d   1     -40.685  14.087  21.118  0.00  0.00     0.002 A 
ATOM     18  C   UNL d   1     -41.318  13.571  21.291  0.00  0.00     0.019 A 
ENDBRANCH  12  14
ENDBRANCH   9  11
ENDBRANCH   7   8
ENDBRANCH   2   7
BRANCH   1  19
ATOM     19  S   UNL d   1     -46.547  12.726  22.883  0.00  0.00     0.273 S 
ATOM     20  O   UNL d   1     -46.955  12.288  22.309  0.00  0.00    -0.200 OA
ATOM     21  O   UNL d   1     -46.140  13.161  23.456  0.00  0.00    -0.200 OA
BRANCH  19  22
ATOM     22  C   UNL d   1     -47.020  13.380  22.716  0.00  0.00     0.104 A 
ATOM     23  C   UNL d   1     -47.642  13.307  22.181  0.00  0.00     0.015 A 
ATOM     24  C   UNL d   1     -48.117  13.963  22.012  0.00  0.00     0.025 A 
ATOM     25  C   UNL d   1     -47.971  14.683  22.374  0.00  0.00     0.094 A 
ATOM     26  C   UNL d   1     -47.347  14.768  22.914  0.00  0.00     0.025 A 
ATOM     27  C   UNL d   1     -46.869  14.111  23.085  0.00  0.00     0.015 A 
BRANCH  25  28
ATOM     28  O   UNL d   1     -48.448  15.340  22.203  0.00  0.00    -0.328 OA
ATOM     29  C   UNL d   1     -49.128  15.485  22.648  0.00  0.00     0.181 C 
ENDBRANCH  25  28
ENDBRANCH  19  22
ENDBRANCH   1  19
TORSDOF 7
ENDMDL
MODEL 3
REMARK VINA RESULT:      -4.0      3.850      7.514
REMARK  7 active torsions:
REMARK  status: ('A' for Active; 'I' for Inactive)
REMARK    1  A    between atoms: N_2  and  S_1 
REMARK    2  A    between atoms: C_6  and  S_1 
REMARK    3  A    between atoms: C_11  and  C_3 
REMARK    4  A    between atoms: C_4  and  C_5 
REMARK       I    between atoms: N_7  and  C_4 
REMARK       I    between atoms: C_5  and  N_10 
REMARK    5  A    between atoms: C_19  and  N_7 
REMARK    6  A    between atoms: N_10  and  C_11 
REMARK    7  A    between atoms: O_23  and  C_18 
ROOT
ATOM      1  N   UNL d   1     -48.101  12.094  23.174  0.00  0.00    -0.209 N 
ATOM      2  C   UNL d   1     -47.301  12.102  22.965  0.00  0.00     0.197 A 
ATOM      3  O   UNL d   1     -46.820  11.458  23.118  0.00  0.00    -0.287 OA
ATOM      4  C   UNL d   1     -48.418  11.422  23.544  0.00  0.00     0.096 A 
ATOM      5  C   UNL d   1     -47.937  10.776  23.698  0.00  0.00     0.047 A 
ATOM      6  C   UNL d   1     -47.142  10.792  23.487  0.00  0.00     0.126 A 
ENDROOT
BRANCH   2   7
ATOM      7  C   UNL d   1     -46.981  12.777  22.593  0.00  0.00     0.146 C 
BRANCH   7   8
ATOM      8  N   UNL d   1     -46.165  12.888  22.574  0.00  0.00    -0.199 NA
ATOM      9  C   UNL d   1     -45.806  13.171  21.895  0.00  0.00     0.337 C 
ATOM     10  O   UNL d   1     -46.259  13.347  21.225  0.00  0.00    -0.260 OA
BRANCH   9  11
ATOM     11  C   UNL d   1     -44.989  13.282  21.876  0.00  0.00     0.337 C 
ATOM     12  N   UNL d   1     -44.504  12.723  21.517  0.00  0.00    -0.204 NA
ATOM     13  O   UNL d   1     -44.656  13.958  22.217  0.00  0.00    -0.260 OA
BRANCH  12  14
ATOM     14  C   UNL d   1     -43.684  12.835  21.498  0.00  0.00     0.085 A 
ATOM     15  C   UNL d   1     -43.272  12.237  21.870  0.00  0.00     0.019 A 
ATOM     16  C   UNL d   1     -42.469  12.424  21.806  0.00  0.00     0.002 A 
ATOM     17  C   UNL d   1     -42.394  13.131  21.397  0.00  0.00     0.002 A 
ATOM     18  C   UNL d   1     -43.164  13.392  21.202  0.00  0.00     0.019 A 
ENDBRANCH  12  14
ENDBRANCH   9  11
ENDBRANCH   7   8
ENDBRANCH   2   7
BRANCH   1  19
ATOM     19  S   UNL d   1     -48.576  12.749  23.015  0.00  0.00     0.273 S 
ATOM     20  O   UNL d   1     -48.856  12.371  22.331  0.00  0.00    -0.200 OA
ATOM     21  O   UNL d   1     -48.295  13.123  23.696  0.00  0.00    -0.200 OA
BRANCH  19  22
ATOM     22  C   UNL d   1     -49.054  13.399  22.848  0.00  0.00     0.104 A 
ATOM     23  C   UNL d   1     -49.502  13.410  22.157  0.00  0.00     0.015 A 
ATOM     24  C   UNL d   1     -49.983  14.062  21.989  0.00  0.00     0.025 A 
ATOM     25  C   UNL d   1     -50.013  14.696  22.506  0.00  0.00     0.094 A 
ATOM     26  C   UNL d   1     -49.566  14.696  23.204  0.00  0.00     0.025 A 
ATOM     27  C   UNL d   1     -49.083  14.043  23.376  0.00  0.00     0.015 A 
BRANCH  25  28
ATOM     28  O   UNL d   1     -50.495  15.350  22.336  0.00  0.00    -0.328 OA
ATOM     29  C   UNL d   1     -50.713  15.871  22.937  0.00  0.00     0.181 C 
ENDBRANCH  25  28
ENDBRANCH  19  22
ENDBRANCH   1  19
TORSDOF 7
ENDMDL
MODEL 4
REMARK VINA RESULT:      -3.7      1.899      5.408
REMARK  7 active torsions:
REMARK  status: ('A' for Active; 'I' for Inactive)
REMARK    1  A    between atoms: N_2  and  S_1 
REMARK    2  A    between atoms: C_6  and  S_1 
REMARK    3  A    between atoms: C_11  and  C_3 
REMARK    4  A    between atoms: C_4  and  C_5 
REMARK       I    between atoms: N_7  and  C_4 
REMARK       I    between atoms: C_5  and  N_10 
REMARK    5  A    between atoms: C_19  and  N_7 
REMARK    6  A    between atoms: N_10  and  C_11 
REMARK    7  A    between atoms: O_23  and  C_18 
ROOT
ATOM      1  N   UNL d   1     -39.562  15.169  20.882  0.00  0.00    -0.209 N 
ATOM      2  C   UNL d   1     -39.213  15.209  20.133  0.00  0.00     0.197 A 
ATOM      3  O   UNL d   1     -38.492  15.581  20.025  0.00  0.00    -0.287 OA
ATOM      4  C   UNL d   1     -39.175  15.513  21.531  0.00  0.00     0.096 A 
ATOM      5  C   UNL d   1     -38.452  15.885  21.423  0.00  0.00     0.047 A 
ATOM      6  C   UNL d   1     -38.111  15.921  20.676  0.00  0.00     0.126 A 
ENDROOT
BRANCH   2   7
ATOM      7  C   UNL d   1     -39.601  14.865  19.481  0.00  0.00     0.146 C 
BRANCH   7   8
ATOM      8  N   UNL d   1     -39.318  14.994  18.718  0.00  0.00    -0.199 NA
ATOM      9  C   UNL d   1     -39.542  14.497  18.108  0.00  0.00     0.337 C 
ATOM     10  O   UNL d   1     -40.054  13.862  18.252  0.00  0.00    -0.260 OA
BRANCH   9  11
ATOM     11  C   UNL d   1     -39.259  14.627  17.344  0.00  0.00     0.337 C 
ATOM     12  N   UNL d   1     -38.669  14.145  17.035  0.00  0.00    -0.204 NA
ATOM     13  O   UNL d   1     -39.569  15.243  16.888  0.00  0.00    -0.260 OA
BRANCH  12  14
ATOM     14  C   UNL d   1     -38.385  14.276  16.268  0.00  0.00     0.085 A 
ATOM     15  C   UNL d   1     -38.236  13.583  15.861  0.00  0.00     0.019 A 
ATOM     16  C   UNL d   1     -37.958  13.801  15.113  0.00  0.00     0.002 A 
ATOM     17  C   UNL d   1     -37.940  14.619  15.066  0.00  0.00     0.002 A 
ATOM     18  C   UNL d   1     -38.210  14.920  15.797  0.00  0.00     0.019 A 
ENDBRANCH  12  14
ENDBRANCH   9  11
ENDBRANCH   7   8
ENDBRANCH   2   7
BRANCH   1  19
ATOM     19  S   UNL d   1     -40.289  14.792  20.979  0.00  0.00     0.273 S 
ATOM     20  O   UNL d   1     -39.891  14.084  21.150  0.00  0.00    -0.200 OA
ATOM     21  O   UNL d   1     -40.683  15.498  20.808  0.00  0.00    -0.200 OA
BRANCH  19  22
ATOM     22  C   UNL d   1     -41.011  14.407  21.078  0.00  0.00     0.104 A 
ATOM     23  C   UNL d   1     -41.713  14.822  20.964  0.00  0.00     0.015 A 
ATOM     24  C   UNL d   1     -42.439  14.437  21.063  0.00  0.00     0.025 A 
ATOM     25  C   UNL d   1     -42.461  13.646  21.273  0.00  0.00     0.094 A 
ATOM     26  C   UNL d   1     -41.760  13.218  21.390  0.00  0.00     0.025 A 
ATOM     27  C   UNL d   1     -41.030  13.602  21.291  0.00  0.00     0.015 A 
BRANCH  25  28
ATOM     28  O   UNL d   1     -43.189  13.261  21.372  0.00  0.00    -0.328 OA
ATOM     29  C   UNL d   1     -43.211  12.472  21.613  0.00  0.00     0.181 C 
ENDBRANCH  25  28
ENDBRANCH  19  22
ENDBRANCH   1  19
TORSDOF 7
ENDMDL
MODEL 5
REMARK VINA RESULT:      -3.2      4.397      7.858
REMARK  7 active torsions:
REMARK  status: ('A' for Active; 'I' for Inactive)
REMARK    1  A    between atoms: N_2  and  S_1 
REMARK    2  A    between atoms: C_6  and  S_1 
REMARK    3  A    between atoms: C_11  and  C_3 
REMARK    4  A    between atoms: C_4  and  C_5 
REMARK       I    between atoms: N_7  and  C_4 
REMARK       I    between atoms: C_5  and  N_10 
REMARK    5  A    between atoms: C_19  and  N_7 
REMARK    6  A    between atoms: N_10  and  C_11 
REMARK    7  A    between atoms: O_23  and  C_18 
ROOT
ATOM      1  N   UNL d   1     -48.346  14.538  22.555  0.00  0.00    -0.209 N 
ATOM      2  C   UNL d   1     -47.534  14.389  22.606  0.00  0.00     0.197 A 
ATOM      3  O   UNL d   1     -46.988  14.969  22.418  0.00  0.00    -0.287 OA
ATOM      4  C   UNL d   1     -48.608  15.288  22.311  0.00  0.00     0.096 A 
ATOM      5  C   UNL d   1     -48.061  15.869  22.123  0.00  0.00     0.047 A 
ATOM      6  C   UNL d   1     -47.256  15.714  22.175  0.00  0.00     0.126 A 
ENDROOT
BRANCH   2   7
ATOM      7  C   UNL d   1     -47.270  13.638  22.851  0.00  0.00     0.146 C 
BRANCH   7   8
ATOM      8  N   UNL d   1     -46.490  13.410  22.713  0.00  0.00    -0.199 NA
ATOM      9  C   UNL d   1     -46.223  12.684  22.977  0.00  0.00     0.337 C 
ATOM     10  O   UNL d   1     -46.733  12.172  23.383  0.00  0.00    -0.260 OA
BRANCH   9  11
ATOM     11  C   UNL d   1     -45.442  12.456  22.839  0.00  0.00     0.337 C 
ATOM     12  N   UNL d   1     -45.034  12.752  22.190  0.00  0.00    -0.204 NA
ATOM     13  O   UNL d   1     -45.069  11.929  23.355  0.00  0.00    -0.260 OA
BRANCH  12  14
ATOM     14  C   UNL d   1     -44.251  12.523  22.051  0.00  0.00     0.085 A 
ATOM     15  C   UNL d   1     -43.868  13.004  21.512  0.00  0.00     0.019 A 
ATOM     16  C   UNL d   1     -43.100  12.709  21.433  0.00  0.00     0.002 A 
ATOM     17  C   UNL d   1     -43.016  12.055  21.919  0.00  0.00     0.002 A 
ATOM     18  C   UNL d   1     -43.744  11.937  22.311  0.00  0.00     0.019 A 
ENDBRANCH  12  14
ENDBRANCH   9  11
ENDBRANCH   7   8
ENDBRANCH   2   7
BRANCH   1  19
ATOM     19  S   UNL d   1     -48.887  13.947  22.747  0.00  0.00     0.273 S 
ATOM     20  O   UNL d   1     -49.003  13.799  21.938  0.00  0.00    -0.200 OA
ATOM     21  O   UNL d   1     -48.771  14.095  23.551  0.00  0.00    -0.200 OA
BRANCH  19  22
ATOM     22  C   UNL d   1     -49.430  13.354  22.929  0.00  0.00     0.104 A 
ATOM     23  C   UNL d   1     -49.399  12.635  22.528  0.00  0.00     0.015 A 
ATOM     24  C   UNL d   1     -49.942  12.039  22.710  0.00  0.00     0.025 A 
ATOM     25  C   UNL d   1     -50.510  12.161  23.287  0.00  0.00     0.094 A 
ATOM     26  C   UNL d   1     -50.550  12.880  23.698  0.00  0.00     0.025 A 
ATOM     27  C   UNL d   1     -50.006  13.480  23.517  0.00  0.00     0.015 A 
BRANCH  25  28
ATOM     28  O   UNL d   1     -51.055  11.562  23.469  0.00  0.00    -0.328 OA
ATOM     29  C   UNL d   1     -50.789  10.815  23.697  0.00  0.00     0.181 C 
ENDBRANCH  25  28
ENDBRANCH  19  22
ENDBRANCH   1  19
TORSDOF 7
ENDMDL
MODEL 6
REMARK VINA RESULT:      -2.8      1.109      3.015
REMARK  7 active torsions:
REMARK  status: ('A' for Active; 'I' for Inactive)
REMARK    1  A    between atoms: N_2  and  S_1 
REMARK    2  A    between atoms: C_6  and  S_1 
REMARK    3  A    between atoms: C_11  and  C_3 
REMARK    4  A    between atoms: C_4  and  C_5 
REMARK       I    between atoms: N_7  and  C_4 
REMARK       I    between atoms: C_5  and  N_10 
REMARK    5  A    between atoms: C_19  and  N_7 
REMARK    6  A    between atoms: N_10  and  C_11 
REMARK    7  A    between atoms: O_23  and  C_18 
ROOT
ATOM      1  N   UNL d   1     -40.302  14.679  19.622  0.00  0.00    -0.209 N 
ATOM      2  C   UNL d   1     -41.002  14.241  19.666  0.00  0.00     0.197 A 
ATOM      3  O   UNL d   1     -41.420  14.047  18.990  0.00  0.00    -0.287 OA
ATOM      4  C   UNL d   1     -40.022  14.925  18.880  0.00  0.00     0.096 A 
ATOM      5  C   UNL d   1     -40.440  14.732  18.202  0.00  0.00     0.047 A 
ATOM      6  C   UNL d   1     -41.135  14.296  18.253  0.00  0.00     0.126 A 
ENDROOT
BRANCH   2   7
ATOM      7  C   UNL d   1     -41.285  13.993  20.410  0.00  0.00     0.146 C 
BRANCH   7   8
ATOM      8  N   UNL d   1     -42.077  13.786  20.502  0.00  0.00    -0.199 NA
ATOM      9  C   UNL d   1     -42.302  13.292  21.113  0.00  0.00     0.337 C 
ATOM     10  O   UNL d   1     -41.739  12.996  21.643  0.00  0.00    -0.260 OA
BRANCH   9  11
ATOM     11  C   UNL d   1     -43.096  13.085  21.205  0.00  0.00     0.337 C 
ATOM     12  N   UNL d   1     -43.538  13.408  21.818  0.00  0.00    -0.204 NA
ATOM     13  O   UNL d   1     -43.447  12.552  20.681  0.00  0.00    -0.260 OA
BRANCH  12  14
ATOM     14  C   UNL d   1     -44.335  13.201  21.911  0.00  0.00     0.085 A 
ATOM     15  C   UNL d   1     -44.800  13.824  22.159  0.00  0.00     0.019 A 
ATOM     16  C   UNL d   1     -45.572  13.535  22.226  0.00  0.00     0.002 A 
ATOM     17  C   UNL d   1     -45.575  12.741  22.019  0.00  0.00     0.002 A 
ATOM     18  C   UNL d   1     -44.792  12.530  21.820  0.00  0.00     0.019 A 
ENDBRANCH  12  14
ENDBRANCH   9  11
ENDBRANCH   7   8
ENDBRANCH   2   7
BRANCH   1  19
ATOM     19  S   UNL d   1     -39.890  14.868  20.310  0.00  0.00     0.273 S 
ATOM     20  O   UNL d   1     -39.494  14.140  20.266  0.00  0.00    -0.200 OA
ATOM     21  O   UNL d   1     -40.284  15.593  20.353  0.00  0.00    -0.200 OA
BRANCH  19  22
ATOM     22  C   UNL d   1     -39.473  15.050  20.998  0.00  0.00     0.104 A 
ATOM     23  C   UNL d   1     -38.880  14.542  21.261  0.00  0.00     0.015 A 
ATOM     24  C   UNL d   1     -38.460  14.723  21.951  0.00  0.00     0.025 A 
ATOM     25  C   UNL d   1     -38.633  15.404  22.372  0.00  0.00     0.094 A 
ATOM     26  C   UNL d   1     -39.228  15.922  22.116  0.00  0.00     0.025 A 
ATOM     27  C   UNL d   1     -39.650  15.743  21.424  0.00  0.00     0.015 A 
BRANCH  25  28
ATOM     28  O   UNL d   1     -38.212  15.584  23.064  0.00  0.00    -0.328 OA
ATOM     29  C   UNL d   1     -38.209  15.054  23.697  0.00  0.00     0.181 C 
ENDBRANCH  25  28
ENDBRANCH  19  22
ENDBRANCH   1  19
TORSDOF 7
ENDMDL
MODEL 7
REMARK VINA RESULT:      -2.6      1.714      2.212
REMARK  7 active torsions:
REMARK  status: ('A' for Active; 'I' for Inactive)
REMARK    1  A    between atoms: N_2  and  S_1 
REMARK    2  A    between atoms: C_6  and  S_1 
REMARK    3  A    between atoms: C_11  and  C_3 
REMARK    4  A    between atoms: C_4  and  C_5 
REMARK       I    between atoms: N_7  and  C_4 
REMARK       I    between atoms: C_5  and  N_10 
REMARK    5  A    between atoms: C_19  and  N_7 
REMARK    6  A    between atoms: N_10  and  C_11 
REMARK    7  A    between atoms: O_23  and  C_18 
ROOT
ATOM      1  N   UNL d   1     -38.614  14.548  20.665  0.00  0.00    -0.209 N 
ATOM      2  C   UNL d   1     -39.348  14.489  21.041  0.00  0.00     0.197 A 
ATOM      3  O   UNL d   1     -39.418  14.608  21.848  0.00  0.00    -0.287 OA
ATOM      4  C   UNL d   1     -37.940  14.732  21.115  0.00  0.00     0.096 A 
ATOM      5  C   UNL d   1     -38.009  14.851  21.923  0.00  0.00     0.047 A 
ATOM      6  C   UNL d   1     -38.742  14.791  22.290  0.00  0.00     0.126 A 
ENDROOT
BRANCH   2   7
ATOM      7  C   UNL d   1     -40.025  14.305  20.592  0.00  0.00     0.146 C 
BRANCH   7   8
ATOM      8  N   UNL d   1     -40.732  14.116  20.970  0.00  0.00    -0.199 NA
ATOM      9  C   UNL d   1     -41.426  14.064  20.540  0.00  0.00     0.337 C 
ATOM     10  O   UNL d   1     -41.423  14.202  19.723  0.00  0.00    -0.260 OA
BRANCH   9  11
ATOM     11  C   UNL d   1     -42.133  13.875  20.919  0.00  0.00     0.337 C 
ATOM     12  N   UNL d   1     -42.398  13.096  20.935  0.00  0.00    -0.204 NA
ATOM     13  O   UNL d   1     -42.579  14.468  21.283  0.00  0.00    -0.260 OA
BRANCH  12  14
ATOM     14  C   UNL d   1     -43.108  12.906  21.315  0.00  0.00     0.085 A 
ATOM     15  C   UNL d   1     -43.040  12.262  21.814  0.00  0.00     0.019 A 
ATOM     16  C   UNL d   1     -43.786  12.141  22.150  0.00  0.00     0.002 A 
ATOM     17  C   UNL d   1     -44.303  12.706  21.857  0.00  0.00     0.002 A 
ATOM     18  C   UNL d   1     -43.874  13.191  21.329  0.00  0.00     0.019 A 
ENDBRANCH  12  14
ENDBRANCH   9  11
ENDBRANCH   7   8
ENDBRANCH   2   7
BRANCH   1  19
ATOM     19  S   UNL d   1     -38.555  14.426  19.852  0.00  0.00     0.273 S 
ATOM     20  O   UNL d   1     -38.682  15.237  19.728  0.00  0.00    -0.200 OA
ATOM     21  O   UNL d   1     -38.429  13.619  19.978  0.00  0.00    -0.200 OA
BRANCH  19  22
ATOM     22  C   UNL d   1     -38.498  14.313  19.038  0.00  0.00     0.104 A 
ATOM     23  C   UNL d   1     -38.570  14.958  18.530  0.00  0.00     0.015 A 
ATOM     24  C   UNL d   1     -38.512  14.845  17.713  0.00  0.00     0.025 A 
ATOM     25  C   UNL d   1     -38.385  14.096  17.407  0.00  0.00     0.094 A 
ATOM     26  C   UNL d   1     -38.311  13.440  17.909  0.00  0.00     0.025 A 
ATOM     27  C   UNL d   1     -38.368  13.550  18.730  0.00  0.00     0.015 A 
BRANCH  25  28
ATOM     28  O   UNL d   1     -38.328  13.985  16.587  0.00  0.00    -0.328 OA
ATOM     29  C   UNL d   1     -37.944  13.320  16.285  0.00  0.00     0.181 C 
ENDBRANCH  25  28
ENDBRANCH  19  22
ENDBRANCH   1  19
TORSDOF 7
ENDMDL
MODEL 8
REMARK VINA RESULT:      -2.4      5.482      7.690
REMARK  7 active torsions:
REMARK  status: ('A' for Active; 'I' for Inactive)
REMARK    1  A    between atoms: N_2  and  S_1 
REMARK    2  A    between atoms: C_6  and  S_1 
REMARK    3  A    between atoms: C_11  and  C_3 
REMARK    4  A    between atoms: C_4  and  C_5 
REMARK       I    between atoms: N_7  and  C_4 
REMARK       I    between atoms: C_5  and  N_10 
REMARK    5  A    between atoms: C_19  and  N_7 
REMARK    6  A    between atoms: N_10  and  C_11 
REMARK    7  A    between atoms: O_23  and  C_18 
ROOT
ATOM      1  N   UNL d   1     -47.731  14.269  22.800  0.00  0.00    -0.209 N 
ATOM      2  C   UNL d   1     -46.977  13.981  22.981  0.00  0.00     0.197 A 
ATOM      3  O   UNL d   1     -46.314  14.454  22.894  0.00  0.00    -0.287 OA
ATOM      4  C   UNL d   1     -47.814  15.048  22.525  0.00  0.00     0.096 A 
ATOM      5  C   UNL d   1     -47.151  15.522  22.437  0.00  0.00     0.047 A 
ATOM      6  C   UNL d   1     -46.405  15.230  22.620  0.00  0.00     0.126 A 
ENDROOT
BRANCH   2   7
ATOM      7  C   UNL d   1     -46.891  13.199  23.257  0.00  0.00     0.146 C 
BRANCH   7   8
ATOM      8  N   UNL d   1     -46.157  12.827  23.221  0.00  0.00    -0.199 NA
ATOM      9  C   UNL d   1     -46.108  12.013  23.281  0.00  0.00     0.337 C 
ATOM     10  O   UNL d   1     -46.792  11.558  23.379  0.00  0.00    -0.260 OA
BRANCH   9  11
ATOM     11  C   UNL d   1     -45.372  11.641  23.245  0.00  0.00     0.337 C 
ATOM     12  N   UNL d   1     -45.318  10.825  23.334  0.00  0.00    -0.204 NA
ATOM     13  O   UNL d   1     -44.689  12.088  23.119  0.00  0.00    -0.260 OA
BRANCH  12  14
ATOM     14  C   UNL d   1     -44.580  10.451  23.297  0.00  0.00     0.085 A 
ATOM     15  C   UNL d   1     -44.562   9.740  23.698  0.00  0.00     0.019 A 
ATOM     16  C   UNL d   1     -43.798   9.436  23.612  0.00  0.00     0.002 A 
ATOM     17  C   UNL d   1     -43.355   9.959  23.163  0.00  0.00     0.002 A 
ATOM     18  C   UNL d   1     -43.849  10.602  22.963  0.00  0.00     0.019 A 
ENDBRANCH  12  14
ENDBRANCH   9  11
ENDBRANCH   7   8
ENDBRANCH   2   7
BRANCH   1  19
ATOM     19  S   UNL d   1     -48.391  13.784  22.892  0.00  0.00     0.273 S 
ATOM     20  O   UNL d   1     -48.288  13.507  22.116  0.00  0.00    -0.200 OA
ATOM     21  O   UNL d   1     -48.492  14.060  23.664  0.00  0.00    -0.200 OA
BRANCH  19  22
ATOM     22  C   UNL d   1     -49.050  13.295  22.975  0.00  0.00     0.104 A 
ATOM     23  C   UNL d   1     -49.092  12.772  23.610  0.00  0.00     0.015 A 
ATOM     24  C   UNL d   1     -49.753  12.282  23.696  0.00  0.00     0.025 A 
ATOM     25  C   UNL d   1     -50.364  12.315  23.151  0.00  0.00     0.094 A 
ATOM     26  C   UNL d   1     -50.331  12.837  22.508  0.00  0.00     0.025 A 
ATOM     27  C   UNL d   1     -49.670  13.331  22.420  0.00  0.00     0.015 A 
BRANCH  25  28
ATOM     28  O   UNL d   1     -51.026  11.822  23.238  0.00  0.00    -0.328 OA
ATOM     29  C   UNL d   1     -50.934  11.050  23.513  0.00  0.00     0.181 C 
ENDBRANCH  25  28
ENDBRANCH  19  22
ENDBRANCH   1  19
TORSDOF 7
ENDMDL
