MODEL 1
REMARK VINA RESULT:      -2.2      0.000      0.000
REMARK  3 active torsions:
REMARK  status: ('A' for Active; 'I' for Inactive)
REMARK    1  A    between atoms: C_4  and  N_1 
REMARK    2  A    between atoms: S_5  and  C_6 
REMARK    3  A    between atoms: C_9  and  S_5 
ROOT
ATOM      1  C   UNL d   1      59.102   0.051  29.687  0.00  0.00     0.078 A 
ATOM      2  C   UNL d   1      59.135  -0.689  29.303  0.00  0.00     0.080 A 
ATOM      3  C   UNL d   1      59.618   0.653  29.462  0.00  0.00     0.018 A 
ATOM      4  C   UNL d   1      59.686  -0.812  28.698  0.00  0.00     0.010 A 
ATOM      5  C   UNL d   1      60.167   0.528  28.860  0.00  0.00     0.002 A 
ATOM      6  C   UNL d   1      60.201  -0.208  28.476  0.00  0.00     0.001 A 
ENDROOT
BRANCH   1   7
ATOM      7  N   UNL d   1      58.556   0.178  30.288  0.00  0.00    -0.241 N 
ATOM      8  C   UNL d   1      58.700   0.114  31.097  0.00  0.00     0.267 A 
ATOM      9  C   UNL d   1      57.999   0.288  31.492  0.00  0.00     0.061 A 
ATOM     10  O   UNL d   1      59.419  -0.088  31.449  0.00  0.00    -0.267 OA
ATOM     11  C   UNL d   1      57.816   0.311  32.291  0.00  0.00     0.005 A 
ATOM     12  C   UNL d   1      57.422   0.458  30.934  0.00  0.00     0.061 A 
ATOM     13  C   UNL d   1      57.051   0.506  32.535  0.00  0.00     0.000 A 
ATOM     14  C   UNL d   1      56.473   0.678  31.964  0.00  0.00     0.000 A 
ATOM     15  C   UNL d   1      56.662   0.653  31.167  0.00  0.00     0.005 A 
ATOM     16  C   UNL d   1      57.763   0.391  30.186  0.00  0.00     0.267 A 
ATOM     17  O   UNL d   1      57.383   0.515  29.462  0.00  0.00    -0.267 OA
ENDBRANCH   1   7
BRANCH   2  18
ATOM     18  S   UNL d   1      58.619  -1.293  29.527  0.00  0.00     0.160 S 
ATOM     19  O   UNL d   1      58.037  -1.639  29.857  0.00  0.00    -0.244 OA
BRANCH  18  20
ATOM     20  C   UNL d   1      58.745  -2.061  29.256  0.00  0.00     0.477 C 
ATOM     21  F   UNL d   1      58.482  -2.435  28.521  0.00  0.00    -0.158 F 
ATOM     22  F   UNL d   1      59.178  -2.709  29.633  0.00  0.00    -0.158 F 
ATOM     23  F   UNL d   1      58.861  -2.761  29.010  0.00  0.00    -0.158 F 
ENDBRANCH  18  20
ENDBRANCH   2  18
TORSDOF 3
ENDMDL
MODEL 2
REMARK VINA RESULT:      -1.3      1.901      3.631
REMARK  3 active torsions:
REMARK  status: ('A' for Active; 'I' for Inactive)
REMARK    1  A    between atoms: C_4  and  N_1 
REMARK    2  A    between atoms: S_5  and  C_6 
REMARK    3  A    between atoms: C_9  and  S_5 
ROOT
ATOM      1  C   UNL d   1      58.652  -0.780  29.235  0.00  0.00     0.078 A 
ATOM      2  C   UNL d   1      58.167  -0.641  29.900  0.00  0.00     0.080 A 
ATOM      3  C   UNL d   1      58.745  -0.192  28.665  0.00  0.00     0.018 A 
ATOM      4  C   UNL d   1      57.783   0.088  29.981  0.00  0.00     0.010 A 
ATOM      5  C   UNL d   1      58.361   0.533  28.747  0.00  0.00     0.002 A 
ATOM      6  C   UNL d   1      57.878   0.674  29.408  0.00  0.00     0.001 A 
ENDROOT
BRANCH   1   7
ATOM      7  N   UNL d   1      59.035  -1.502  29.152  0.00  0.00    -0.241 N 
ATOM      8  C   UNL d   1      58.725  -2.179  28.798  0.00  0.00     0.267 A 
ATOM      9  C   UNL d   1      59.297  -2.769  28.837  0.00  0.00     0.061 A 
ATOM     10  O   UNL d   1      57.973  -2.252  28.464  0.00  0.00    -0.267 OA
ATOM     11  C   UNL d   1      59.297  -3.546  28.577  0.00  0.00     0.005 A 
ATOM     12  C   UNL d   1      59.960  -2.463  29.212  0.00  0.00     0.061 A 
ATOM     13  C   UNL d   1      59.962  -4.022  28.692  0.00  0.00     0.000 A 
ATOM     14  C   UNL d   1      60.629  -3.705  29.072  0.00  0.00     0.000 A 
ATOM     15  C   UNL d   1      60.624  -2.928  29.330  0.00  0.00     0.005 A 
ATOM     16  C   UNL d   1      59.801  -1.677  29.409  0.00  0.00     0.267 A 
ATOM     17  O   UNL d   1      60.315  -1.156  29.795  0.00  0.00    -0.267 OA
ENDBRANCH   1   7
BRANCH   2  18
ATOM     18  S   UNL d   1      58.073  -1.228  30.473  0.00  0.00     0.160 S 
ATOM     19  O   UNL d   1      58.176  -1.874  30.846  0.00  0.00    -0.244 OA
BRANCH  18  20
ATOM     20  C   UNL d   1      57.521  -1.127  31.076  0.00  0.00     0.477 C 
ATOM     21  F   UNL d   1      56.761  -1.524  31.199  0.00  0.00    -0.158 F 
ATOM     22  F   UNL d   1      57.547  -0.593  31.758  0.00  0.00    -0.158 F 
ATOM     23  F   UNL d   1      57.018  -1.034  31.626  0.00  0.00    -0.158 F 
ENDBRANCH  18  20
ENDBRANCH   2  18
TORSDOF 3
ENDMDL
MODEL 3
REMARK VINA RESULT:      -0.4      1.608      2.022
REMARK  3 active torsions:
REMARK  status: ('A' for Active; 'I' for Inactive)
REMARK    1  A    between atoms: C_4  and  N_1 
REMARK    2  A    between atoms: S_5  and  C_6 
REMARK    3  A    between atoms: C_9  and  S_5 
ROOT
ATOM      1  C   UNL d   1      58.455  -0.960  29.629  0.00  0.00     0.078 A 
ATOM      2  C   UNL d   1      59.217  -0.629  29.550  0.00  0.00     0.080 A 
ATOM      3  C   UNL d   1      58.218  -1.568  29.126  0.00  0.00     0.018 A 
ATOM      4  C   UNL d   1      59.728  -0.914  28.966  0.00  0.00     0.010 A 
ATOM      5  C   UNL d   1      58.729  -1.851  28.544  0.00  0.00     0.002 A 
ATOM      6  C   UNL d   1      59.488  -1.523  28.464  0.00  0.00     0.001 A 
ENDROOT
BRANCH   1   7
ATOM      7  N   UNL d   1      57.944  -0.679  30.208  0.00  0.00    -0.241 N 
ATOM      8  C   UNL d   1      57.747  -1.062  30.911  0.00  0.00     0.267 A 
ATOM      9  C   UNL d   1      57.221  -0.582  31.321  0.00  0.00     0.061 A 
ATOM     10  O   UNL d   1      58.029  -1.798  31.159  0.00  0.00    -0.267 OA
ATOM     11  C   UNL d   1      56.845  -0.678  32.044  0.00  0.00     0.005 A 
ATOM     12  C   UNL d   1      57.089   0.097  30.878  0.00  0.00     0.061 A 
ATOM     13  C   UNL d   1      56.334  -0.094  32.326  0.00  0.00     0.000 A 
ATOM     14  C   UNL d   1      56.206   0.590  31.872  0.00  0.00     0.000 A 
ATOM     15  C   UNL d   1      56.584   0.681  31.151  0.00  0.00     0.005 A 
ATOM     16  C   UNL d   1      57.536   0.040  30.187  0.00  0.00     0.267 A 
ATOM     17  O   UNL d   1      57.571   0.602  29.580  0.00  0.00    -0.267 OA
ENDBRANCH   1   7
BRANCH   2  18
ATOM     18  S   UNL d   1      59.456  -0.020  30.053  0.00  0.00     0.160 S 
ATOM     19  O   UNL d   1      59.412   0.561  30.531  0.00  0.00    -0.244 OA
BRANCH  18  20
ATOM     20  C   UNL d   1      60.259   0.120  30.173  0.00  0.00     0.477 C 
ATOM     21  F   UNL d   1      60.752  -0.062  30.861  0.00  0.00    -0.158 F 
ATOM     22  F   UNL d   1      60.835   0.491  29.643  0.00  0.00    -0.158 F 
ATOM     23  F   UNL d   1      60.991   0.248  30.283  0.00  0.00    -0.158 F 
ENDBRANCH  18  20
ENDBRANCH   2  18
TORSDOF 3
ENDMDL
MODEL 4
REMARK VINA RESULT:       0.2      2.663      4.352
REMARK  3 active torsions:
REMARK  status: ('A' for Active; 'I' for Inactive)
REMARK    1  A    between atoms: C_4  and  N_1 
REMARK    2  A    between atoms: S_5  and  C_6 
REMARK    3  A    between atoms: C_9  and  S_5 
ROOT
ATOM      1  C   UNL d   1      56.445   0.100  33.282  0.00  0.00     0.078 A 
ATOM      2  C   UNL d   1      56.008  -0.607  33.366  0.00  0.00     0.080 A 
ATOM      3  C   UNL d   1      56.407   0.678  33.868  0.00  0.00     0.018 A 
ATOM      4  C   UNL d   1      55.539  -0.720  34.039  0.00  0.00     0.010 A 
ATOM      5  C   UNL d   1      55.939   0.563  34.537  0.00  0.00     0.002 A 
ATOM      6  C   UNL d   1      55.503  -0.139  34.623  0.00  0.00     0.001 A 
ENDROOT
BRANCH   1   7
ATOM      7  N   UNL d   1      56.911   0.216  32.615  0.00  0.00    -0.241 N 
ATOM      8  C   UNL d   1      56.642   0.423  31.864  0.00  0.00     0.267 A 
ATOM      9  C   UNL d   1      57.297   0.480  31.369  0.00  0.00     0.061 A 
ATOM     10  O   UNL d   1      55.856   0.550  31.646  0.00  0.00    -0.267 OA
ATOM     11  C   UNL d   1      57.363   0.665  30.573  0.00  0.00     0.005 A 
ATOM     12  C   UNL d   1      57.969   0.310  31.807  0.00  0.00     0.061 A 
ATOM     13  C   UNL d   1      58.106   0.681  30.212  0.00  0.00     0.000 A 
ATOM     14  C   UNL d   1      58.782   0.508  30.662  0.00  0.00     0.000 A 
ATOM     15  C   UNL d   1      58.709   0.323  31.457  0.00  0.00     0.005 A 
ATOM     16  C   UNL d   1      57.734   0.146  32.581  0.00  0.00     0.267 A 
ATOM     17  O   UNL d   1      58.231  -0.054  33.212  0.00  0.00    -0.267 OA
ENDBRANCH   1   7
BRANCH   2  18
ATOM     18  S   UNL d   1      56.044  -1.187  32.780  0.00  0.00     0.160 S 
ATOM     19  O   UNL d   1      56.217  -1.524  32.129  0.00  0.00    -0.244 OA
BRANCH  18  20
ATOM     20  C   UNL d   1      55.677  -1.915  32.901  0.00  0.00     0.477 C 
ATOM     21  F   UNL d   1      55.938  -2.591  33.375  0.00  0.00    -0.158 F 
ATOM     22  F   UNL d   1      54.925  -2.206  32.587  0.00  0.00    -0.158 F 
ATOM     23  F   UNL d   1      55.342  -2.578  33.011  0.00  0.00    -0.158 F 
ENDBRANCH  18  20
ENDBRANCH   2  18
TORSDOF 3
ENDMDL
