MODEL 1
REMARK VINA RESULT:      32.2      0.000      0.000
REMARK  3 active torsions:
REMARK  status: ('A' for Active; 'I' for Inactive)
REMARK    1  A    between atoms: C_5  and  C_1 
REMARK    2  A    between atoms: N_6  and  C_2 
REMARK       I    between atoms: C_8  and  N_6 
REMARK    3  A    between atoms: C_9  and  C_8 
ROOT
ATOM      1  C   UNL d   1      13.381  12.244  -3.777  0.00  0.00     0.231 A 
ATOM      2  C   UNL d   1      13.703  12.546  -2.516  0.00  0.00     0.297 A 
ATOM      3  O   UNL d   1      13.866  12.722  -3.305  0.00  0.00    -0.252 OA
ATOM      4  N   UNL d   1      12.926  11.781  -3.276  0.00  0.00    -0.117 NA
ATOM      5  N   UNL d   1      13.124  11.967  -2.498  0.00  0.00    -0.101 NA
ENDROOT
BRANCH   2   6
ATOM      6  N   UNL d   1      14.066  12.898  -1.864  0.00  0.00    -0.165 NA
ATOM      7  C   UNL d   1      14.669  13.437  -1.970  0.00  0.00     0.282 C 
ATOM      8  O   UNL d   1      14.926  13.638  -2.731  0.00  0.00    -0.265 OA
BRANCH   7   9
ATOM      9  C   UNL d   1      15.032  13.789  -1.318  0.00  0.00     0.060 A 
ATOM     10  C   UNL d   1      14.821  14.543  -1.086  0.00  0.00     0.034 A 
ATOM     11  C   UNL d   1      15.185  14.891  -0.435  0.00  0.00     0.140 A 
ATOM     12  F   UNL d   1      14.975  15.662  -0.192  0.00  0.00    -0.204 F 
ATOM     13  C   UNL d   1      15.764  14.479  -0.016  0.00  0.00     0.030 A 
ATOM     14  C   UNL d   1      15.973  13.716  -0.255  0.00  0.00     0.003 A 
ATOM     15  C   UNL d   1      15.604  13.371  -0.910  0.00  0.00     0.005 A 
ENDBRANCH   7   9
ENDBRANCH   2   6
BRANCH   1  16
ATOM     16  C   UNL d   1      13.365  12.242  -4.605  0.00  0.00     0.168 A 
ATOM     17  O   UNL d   1      13.904  12.701  -5.023  0.00  0.00    -0.297 OA
ATOM     18  C   UNL d   1      13.889  12.699  -5.839  0.00  0.00     0.149 A 
ATOM     19  C   UNL d   1      13.340  12.243  -6.243  0.00  0.00     0.149 A 
ATOM     20  O   UNL d   1      12.796  11.780  -5.836  0.00  0.00    -0.299 OA
ATOM     21  C   UNL d   1      12.810  11.781  -5.017  0.00  0.00     0.151 A 
ENDBRANCH   1  16
TORSDOF 3
ENDMDL
