MODEL 1
REMARK VINA RESULT:      -2.9      0.000      0.000
REMARK  6 active torsions:
REMARK  status: ('A' for Active; 'I' for Inactive)
REMARK    1  A    between atoms: C_10  and  C_2 
REMARK    2  A    between atoms: S_12  and  C_7 
REMARK    3  A    between atoms: C_11  and  C_14 
REMARK    4  A    between atoms: O_15  and  C_11 
REMARK    5  A    between atoms: C_14  and  S_12 
REMARK    6  A    between atoms: C_18  and  O_15 
ROOT
ATOM      1  N   UNL d   1      31.629  16.667 -24.264  0.00  0.00    -0.191 N 
ATOM      2  C   UNL d   1      30.937  16.251 -24.404  0.00  0.00     0.187 A 
ATOM      3  N   UNL d   1      31.144  15.501 -24.665  0.00  0.00    -0.127 NA
ATOM      4  C   UNL d   1      32.270  16.188 -24.433  0.00  0.00     0.187 A 
ATOM      5  N   UNL d   1      31.761  17.450 -23.993  0.00  0.00    -0.156 NA
ATOM      6  N   UNL d   1      31.968  15.454 -24.686  0.00  0.00    -0.127 NA
ATOM      7  C   UNL d   1      32.531  17.731 -23.900  0.00  0.00     0.131 A 
ATOM      8  C   UNL d   1      33.041  16.469 -24.340  0.00  0.00     0.043 A 
ATOM      9  C   UNL d   1      33.171  17.240 -24.074  0.00  0.00     0.031 A 
ENDROOT
BRANCH   7  10
ATOM     10  S   UNL d   1      32.662  18.502 -23.633  0.00  0.00    -0.060 SA
BRANCH  10  11
ATOM     11  C   UNL d   1      32.874  18.634 -22.849  0.00  0.00     0.105 C 
BRANCH  11  12
ATOM     12  C   UNL d   1      33.039  19.391 -22.594  0.00  0.00     0.307 C 
ATOM     13  O   UNL d   1      33.205  19.987 -23.141  0.00  0.00    -0.258 OA
BRANCH  12  14
ATOM     14  O   UNL d   1      33.038  19.557 -21.789  0.00  0.00    -0.271 OA
BRANCH  14  15
ATOM     15  C   UNL d   1      33.241  20.319 -21.522  0.00  0.00     0.126 C 
ATOM     16  C   UNL d   1      32.734  20.720 -21.026  0.00  0.00     0.029 C 
ENDBRANCH  14  15
ENDBRANCH  12  14
ENDBRANCH  11  12
ENDBRANCH  10  11
ENDBRANCH   7  10
BRANCH   2  17
ATOM     17  C   UNL d   1      30.171  16.526 -24.304  0.00  0.00     0.038 A 
ATOM     18  C   UNL d   1      29.765  16.379 -23.609  0.00  0.00     0.003 A 
ATOM     19  C   UNL d   1      28.992  16.655 -23.506  0.00  0.00     0.000 A 
ATOM     20  C   UNL d   1      28.632  17.084 -24.115  0.00  0.00     0.000 A 
ATOM     21  C   UNL d   1      29.037  17.235 -24.818  0.00  0.00     0.000 A 
ATOM     22  C   UNL d   1      29.811  16.955 -24.914  0.00  0.00     0.003 A 
ENDBRANCH   2  17
TORSDOF 6
ENDMDL
MODEL 2
REMARK VINA RESULT:      -1.9      3.102      5.981
REMARK  6 active torsions:
REMARK  status: ('A' for Active; 'I' for Inactive)
REMARK    1  A    between atoms: C_10  and  C_2 
REMARK    2  A    between atoms: S_12  and  C_7 
REMARK    3  A    between atoms: C_11  and  C_14 
REMARK    4  A    between atoms: O_15  and  C_11 
REMARK    5  A    between atoms: C_14  and  S_12 
REMARK    6  A    between atoms: C_18  and  O_15 
ROOT
ATOM      1  N   UNL d   1      32.891  22.361 -22.390  0.00  0.00    -0.191 N 
ATOM      2  C   UNL d   1      32.722  22.979 -21.879  0.00  0.00     0.187 A 
ATOM      3  N   UNL d   1      32.702  23.670 -22.320  0.00  0.00    -0.127 NA
ATOM      4  C   UNL d   1      32.979  22.655 -23.149  0.00  0.00     0.187 A 
ATOM      5  N   UNL d   1      32.979  21.537 -22.257  0.00  0.00    -0.156 NA
ATOM      6  N   UNL d   1      32.860  23.479 -23.108  0.00  0.00    -0.127 NA
ATOM      7  C   UNL d   1      33.153  21.032 -22.886  0.00  0.00     0.131 A 
ATOM      8  C   UNL d   1      33.152  22.150 -23.778  0.00  0.00     0.043 A 
ATOM      9  C   UNL d   1      33.240  21.339 -23.647  0.00  0.00     0.031 A 
ENDROOT
BRANCH   7  10
ATOM     10  S   UNL d   1      33.240  20.221 -22.754  0.00  0.00    -0.060 SA
BRANCH  10  11
ATOM     11  C   UNL d   1      32.790  19.685 -23.186  0.00  0.00     0.105 C 
BRANCH  11  12
ATOM     12  C   UNL d   1      32.789  18.895 -22.982  0.00  0.00     0.307 C 
ATOM     13  O   UNL d   1      33.025  18.662 -22.225  0.00  0.00    -0.258 OA
BRANCH  12  14
ATOM     14  O   UNL d   1      32.552  18.333 -23.533  0.00  0.00    -0.271 OA
BRANCH  14  15
ATOM     15  C   UNL d   1      32.514  17.531 -23.317  0.00  0.00     0.126 C 
ATOM     16  C   UNL d   1      32.159  16.995 -23.819  0.00  0.00     0.029 C 
ENDBRANCH  14  15
ENDBRANCH  12  14
ENDBRANCH  11  12
ENDBRANCH  10  11
ENDBRANCH   7  10
BRANCH   2  17
ATOM     17  C   UNL d   1      32.593  22.925 -21.072  0.00  0.00     0.038 A 
ATOM     18  C   UNL d   1      31.833  22.849 -20.777  0.00  0.00     0.003 A 
ATOM     19  C   UNL d   1      31.701  22.795 -19.962  0.00  0.00     0.000 A 
ATOM     20  C   UNL d   1      32.347  22.818 -19.445  0.00  0.00     0.000 A 
ATOM     21  C   UNL d   1      33.115  22.893 -19.738  0.00  0.00     0.000 A 
ATOM     22  C   UNL d   1      33.239  22.947 -20.555  0.00  0.00     0.003 A 
ENDBRANCH   2  17
TORSDOF 6
ENDMDL
MODEL 3
REMARK VINA RESULT:      -1.4      2.096      4.021
REMARK  6 active torsions:
REMARK  status: ('A' for Active; 'I' for Inactive)
REMARK    1  A    between atoms: C_10  and  C_2 
REMARK    2  A    between atoms: S_12  and  C_7 
REMARK    3  A    between atoms: C_11  and  C_14 
REMARK    4  A    between atoms: O_15  and  C_11 
REMARK    5  A    between atoms: C_14  and  S_12 
REMARK    6  A    between atoms: C_18  and  O_15 
ROOT
ATOM      1  N   UNL d   1      31.917  16.693 -24.549  0.00  0.00    -0.191 N 
ATOM      2  C   UNL d   1      32.652  16.996 -24.351  0.00  0.00     0.187 A 
ATOM      3  N   UNL d   1      33.213  16.421 -24.520  0.00  0.00    -0.127 NA
ATOM      4  C   UNL d   1      32.007  15.933 -24.840  0.00  0.00     0.187 A 
ATOM      5  N   UNL d   1      31.148  17.025 -24.498  0.00  0.00    -0.156 NA
ATOM      6  N   UNL d   1      32.822  15.760 -24.822  0.00  0.00    -0.127 NA
ATOM      7  C   UNL d   1      30.491  16.587 -24.741  0.00  0.00     0.131 A 
ATOM      8  C   UNL d   1      31.351  15.495 -25.082  0.00  0.00     0.043 A 
ATOM      9  C   UNL d   1      30.594  15.822 -25.032  0.00  0.00     0.031 A 
ENDROOT
BRANCH   7  10
ATOM     10  S   UNL d   1      29.734  16.914 -24.691  0.00  0.00    -0.060 SA
BRANCH  10  11
ATOM     11  C   UNL d   1      29.362  16.977 -23.960  0.00  0.00     0.105 C 
BRANCH  11  12
ATOM     12  C   UNL d   1      28.585  17.223 -23.918  0.00  0.00     0.307 C 
ATOM     13  O   UNL d   1      28.399  18.024 -23.987  0.00  0.00    -0.258 OA
BRANCH  12  14
ATOM     14  O   UNL d   1      27.990  16.667 -23.806  0.00  0.00    -0.271 OA
BRANCH  14  15
ATOM     15  C   UNL d   1      27.401  16.799 -23.232  0.00  0.00     0.126 C 
ATOM     16  C   UNL d   1      27.019  16.164 -22.894  0.00  0.00     0.029 C 
ENDBRANCH  14  15
ENDBRANCH  12  14
ENDBRANCH  11  12
ENDBRANCH  10  11
ENDBRANCH   7  10
BRANCH   2  17
ATOM     17  C   UNL d   1      32.810  17.738 -24.042  0.00  0.00     0.038 A 
ATOM     18  C   UNL d   1      32.842  17.851 -23.231  0.00  0.00     0.003 A 
ATOM     19  C   UNL d   1      33.000  18.599 -22.916  0.00  0.00     0.000 A 
ATOM     20  C   UNL d   1      33.126  19.236 -23.429  0.00  0.00     0.000 A 
ATOM     21  C   UNL d   1      33.095  19.127 -24.247  0.00  0.00     0.000 A 
ATOM     22  C   UNL d   1      32.936  18.375 -24.555  0.00  0.00     0.003 A 
ENDBRANCH   2  17
TORSDOF 6
ENDMDL
MODEL 4
REMARK VINA RESULT:      -1.4      2.079      4.414
REMARK  6 active torsions:
REMARK  status: ('A' for Active; 'I' for Inactive)
REMARK    1  A    between atoms: C_10  and  C_2 
REMARK    2  A    between atoms: S_12  and  C_7 
REMARK    3  A    between atoms: C_11  and  C_14 
REMARK    4  A    between atoms: O_15  and  C_11 
REMARK    5  A    between atoms: C_14  and  S_12 
REMARK    6  A    between atoms: C_18  and  O_15 
ROOT
ATOM      1  N   UNL d   1      32.641  18.971 -23.807  0.00  0.00    -0.191 N 
ATOM      2  C   UNL d   1      32.960  19.652 -23.480  0.00  0.00     0.187 A 
ATOM      3  N   UNL d   1      33.240  20.118 -24.094  0.00  0.00    -0.127 NA
ATOM      4  C   UNL d   1      32.717  19.003 -24.622  0.00  0.00     0.187 A 
ATOM      5  N   UNL d   1      32.279  18.302 -23.454  0.00  0.00    -0.156 NA
ATOM      6  N   UNL d   1      33.093  19.724 -24.805  0.00  0.00    -0.127 NA
ATOM      7  C   UNL d   1      32.002  17.684 -23.926  0.00  0.00     0.131 A 
ATOM      8  C   UNL d   1      32.441  18.385 -25.094  0.00  0.00     0.043 A 
ATOM      9  C   UNL d   1      32.084  17.727 -24.747  0.00  0.00     0.031 A 
ENDROOT
BRANCH   7  10
ATOM     10  S   UNL d   1      31.645  17.025 -23.579  0.00  0.00    -0.060 SA
BRANCH  10  11
ATOM     11  C   UNL d   1      30.960  16.709 -23.908  0.00  0.00     0.105 C 
BRANCH  11  12
ATOM     12  C   UNL d   1      30.502  16.190 -23.476  0.00  0.00     0.307 C 
ATOM     13  O   UNL d   1      30.803  15.453 -23.259  0.00  0.00    -0.258 OA
BRANCH  12  14
ATOM     14  O   UNL d   1      29.740  16.407 -23.259  0.00  0.00    -0.271 OA
BRANCH  14  15
ATOM     15  C   UNL d   1      29.111  15.871 -23.360  0.00  0.00     0.126 C 
ATOM     16  C   UNL d   1      28.345  16.148 -23.385  0.00  0.00     0.029 C 
ENDBRANCH  14  15
ENDBRANCH  12  14
ENDBRANCH  11  12
ENDBRANCH  10  11
ENDBRANCH   7  10
BRANCH   2  17
ATOM     17  C   UNL d   1      32.997  19.841 -22.684  0.00  0.00     0.038 A 
ATOM     18  C   UNL d   1      33.142  19.260 -22.125  0.00  0.00     0.003 A 
ATOM     19  C   UNL d   1      33.180  19.448 -21.321  0.00  0.00     0.000 A 
ATOM     20  C   UNL d   1      33.069  20.233 -21.084  0.00  0.00     0.000 A 
ATOM     21  C   UNL d   1      32.923  20.823 -21.642  0.00  0.00     0.000 A 
ATOM     22  C   UNL d   1      32.886  20.626 -22.447  0.00  0.00     0.003 A 
ENDBRANCH   2  17
TORSDOF 6
ENDMDL
