MODEL 1
REMARK VINA RESULT:      11.1      0.000      0.000
REMARK  4 active torsions:
REMARK  status: ('A' for Active; 'I' for Inactive)
REMARK    1  A    between atoms: N_10  and  C_5 
REMARK    2  A    between atoms: C_12  and  N_6 
REMARK    3  A    between atoms: C_19  and  N_11 
REMARK    4  A    between atoms: C_20  and  C_12 
ROOT
ATOM      1  C   UNL d   1     -42.888-123.094 -50.274  0.00  0.00     0.191 A 
ATOM      2  C   UNL d   1     -42.158-122.701 -50.199  0.00  0.00     0.173 A 
ATOM      3  N   UNL d   1     -43.063-123.118 -51.082  0.00  0.00    -0.042 NA
ATOM      4  N   UNL d   1     -43.292-123.377 -49.579  0.00  0.00    -0.240 N 
ATOM      5  C   UNL d   1     -42.433-122.734 -51.516  0.00  0.00     0.722 A 
ATOM      6  N   UNL d   1     -41.905-122.496 -50.939  0.00  0.00    -0.133 N 
ATOM      7  N   UNL d   1     -42.255-122.879 -48.787  0.00  0.00    -0.223 N 
ATOM      8  C   UNL d   1     -42.995-123.279 -48.844  0.00  0.00     0.343 A 
ATOM      9  C   UNL d   1     -41.854-122.601 -49.444  0.00  0.00     0.288 A 
ATOM     10  O   UNL d   1     -43.392-123.557 -48.164  0.00  0.00    -0.245 OA
ATOM     11  O   UNL d   1     -41.128-122.211 -49.352  0.00  0.00    -0.265 OA
ATOM     12  C   UNL d   1     -44.006-123.760 -49.663  0.00  0.00     0.105 C 
ATOM     13  C   UNL d   1     -41.898-122.750 -48.031  0.00  0.00     0.107 C 
ENDROOT
BRANCH   5  14
ATOM     14  N   UNL d   1     -42.341-122.611 -52.347  0.00  0.00    -0.136 N 
ATOM     15  C   UNL d   1     -42.851-122.072 -52.736  0.00  0.00     0.117 A 
ATOM     16  C   UNL d   1     -42.761-121.948 -53.562  0.00  0.00     0.100 A 
ATOM     17  N   UNL d   1     -42.166-122.362 -53.992  0.00  0.00    -0.301 N 
ATOM     18  C   UNL d   1     -41.664-122.898 -53.586  0.00  0.00     0.100 A 
ATOM     19  C   UNL d   1     -41.747-123.027 -52.765  0.00  0.00     0.117 A 
BRANCH  17  20
ATOM     20  C   UNL d   1     -42.138-122.188 -54.803  0.00  0.00     0.064 A 
ATOM     21  C   UNL d   1     -42.798-122.335 -55.284  0.00  0.00     0.018 A 
ATOM     22  C   UNL d   1     -42.762-122.159 -56.089  0.00  0.00     0.002 A 
ATOM     23  C   UNL d   1     -42.070-121.837 -56.417  0.00  0.00     0.000 A 
ATOM     24  C   UNL d   1     -41.406-121.688 -55.933  0.00  0.00     0.002 A 
ATOM     25  C   UNL d   1     -41.442-121.864 -55.128  0.00  0.00     0.018 A 
ENDBRANCH  17  20
ENDBRANCH   5  14
BRANCH   6  26
ATOM     26  C   UNL d   1     -41.196-122.113 -50.879  0.00  0.00     0.098 C 
BRANCH  26  27
ATOM     27  C   UNL d   1     -41.172-121.313 -50.919  0.00  0.00     0.018 A 
ATOM     28  C   UNL d   1     -41.165-120.958 -51.621  0.00  0.00     0.002 A 
ATOM     29  C   UNL d   1     -41.140-120.157 -51.666  0.00  0.00     0.000 A 
ATOM     30  C   UNL d   1     -41.127-119.618 -52.272  0.00  0.00     0.000 C 
ATOM     31  C   UNL d   1     -41.123-119.712 -50.997  0.00  0.00     0.000 A 
ATOM     32  C   UNL d   1     -41.130-120.090 -50.277  0.00  0.00     0.000 A 
ATOM     33  C   UNL d   1     -41.154-120.878 -50.238  0.00  0.00     0.002 A 
ENDBRANCH  26  27
ENDBRANCH   6  26
TORSDOF 4
ENDMDL
