MODEL 1
REMARK VINA RESULT:      29.9      0.000      0.000
REMARK  4 active torsions:
REMARK  status: ('A' for Active; 'I' for Inactive)
REMARK    1  A    between atoms: C_4  and  C_1 
REMARK    2  A    between atoms: C_12  and  N_2 
REMARK    3  A    between atoms: C_11  and  N_5 
REMARK    4  A    between atoms: C_14  and  C_12 
ROOT
ATOM      1  C   UNL d   1      46.149 -17.140  43.138  0.00  0.00     0.149 A 
ATOM      2  N   UNL d   1      46.333 -17.912  43.410  0.00  0.00    -0.289 N 
ATOM      3  N   UNL d   1      46.107 -17.160  42.312  0.00  0.00    -0.227 NA
ATOM      4  C   UNL d   1      46.402 -18.401  42.740  0.00  0.00     0.083 A 
ATOM      5  C   UNL d   1      46.264 -17.944  42.063  0.00  0.00     0.099 A 
ATOM      6  C   UNL d   1      46.575 -19.213  42.663  0.00  0.00     0.019 A 
ATOM      7  C   UNL d   1      46.296 -18.284  41.315  0.00  0.00     0.021 A 
ATOM      8  C   UNL d   1      46.607 -19.551  41.906  0.00  0.00     0.002 A 
ATOM      9  C   UNL d   1      46.467 -19.088  41.234  0.00  0.00     0.002 A 
ENDROOT
BRANCH   1  10
ATOM     10  C   UNL d   1      46.031 -16.479  43.617  0.00  0.00     0.057 A 
ATOM     11  C   UNL d   1      45.318 -16.093  43.746  0.00  0.00     0.081 A 
ATOM     12  N   UNL d   1      45.461 -15.461  44.264  0.00  0.00    -0.298 N 
ATOM     13  C   UNL d   1      46.263 -15.461  44.454  0.00  0.00     0.261 A 
ATOM     14  C   UNL d   1      46.618 -16.091  44.054  0.00  0.00     0.065 A 
ATOM     15  O   UNL d   1      46.642 -14.930  44.951  0.00  0.00    -0.267 OA
BRANCH  12  16
ATOM     16  C   UNL d   1      44.897 -14.926  44.541  0.00  0.00     0.071 C 
ATOM     17  C   UNL d   1      44.415 -14.303  44.762  0.00  0.00     0.023 C 
ATOM     18  C   UNL d   1      44.995 -14.123  44.408  0.00  0.00     0.023 C 
ATOM     19  C   UNL d   1      44.238 -15.206  44.951  0.00  0.00     0.023 C 
ENDBRANCH  12  16
ENDBRANCH   1  10
BRANCH   2  20
ATOM     20  C   UNL d   1      46.427 -18.140  44.191  0.00  0.00     0.082 C 
BRANCH  20  21
ATOM     21  C   UNL d   1      46.144 -18.875  44.446  0.00  0.00     0.018 A 
ATOM     22  C   UNL d   1      45.350 -18.954  44.661  0.00  0.00     0.002 A 
ATOM     23  C   UNL d   1      45.065 -19.682  44.915  0.00  0.00     0.000 A 
ATOM     24  C   UNL d   1      45.571 -20.330  44.955  0.00  0.00     0.000 A 
ATOM     25  C   UNL d   1      46.366 -20.245  44.739  0.00  0.00     0.000 A 
ATOM     26  C   UNL d   1      46.645 -19.521  44.487  0.00  0.00     0.002 A 
ENDBRANCH  20  21
ENDBRANCH   2  20
TORSDOF 4
ENDMDL
