MODEL 1
REMARK VINA RESULT:      -2.1      0.000      0.000
REMARK  5 active torsions:
REMARK  status: ('A' for Active; 'I' for Inactive)
REMARK    1  A    between atoms: N_5  and  S_1 
REMARK    2  A    between atoms: C_9  and  S_1 
REMARK    3  A    between atoms: C_2  and  N_4 
REMARK    4  A    between atoms: C_7  and  C_3 
REMARK       I    between atoms: N_4  and  C_6 
REMARK    5  A    between atoms: C_6  and  C_14 
ROOT
ATOM      1  C   UNL d   1      32.749  18.629 -23.325  0.00  0.00     0.104 A 
ATOM      2  C   UNL d   1      32.922  20.224 -22.934  0.00  0.00     0.058 A 
ATOM      3  C   UNL d   1      32.433  19.216 -23.817  0.00  0.00     0.013 A 
ATOM      4  C   UNL d   1      33.149  18.845 -22.642  0.00  0.00     0.013 A 
ATOM      5  C   UNL d   1      32.522  20.008 -23.617  0.00  0.00     0.005 A 
ATOM      6  C   UNL d   1      33.238  19.636 -22.443  0.00  0.00     0.005 A 
ENDROOT
BRANCH   2   7
ATOM      7  C   UNL d   1      33.011  21.024 -22.734  0.00  0.00     0.280 C 
ATOM      8  N   UNL d   1      32.866  21.275 -21.963  0.00  0.00    -0.201 NA
ATOM      9  O   UNL d   1      33.241  21.551 -23.309  0.00  0.00    -0.265 OA
BRANCH   8  10
ATOM     10  C   UNL d   1      32.955  22.070 -21.772  0.00  0.00     0.119 A 
ATOM     11  C   UNL d   1      32.819  22.407 -21.029  0.00  0.00     0.084 A 
ATOM     12  C   UNL d   1      32.978  23.222 -21.086  0.00  0.00     0.014 A 
ATOM     13  C   UNL d   1      33.209  23.378 -21.863  0.00  0.00     0.037 A 
ATOM     14  S   UNL d   1      33.193  22.668 -22.279  0.00  0.00    -0.067 SA
BRANCH  11  15
ATOM     15  C   UNL d   1      32.572  22.015 -20.349  0.00  0.00     0.299 C 
ATOM     16  O   UNL d   1      31.763  21.895 -20.220  0.00  0.00    -0.264 OA
ATOM     17  N   UNL d   1      33.125  21.743 -19.800  0.00  0.00    -0.102 N 
ENDBRANCH  11  15
ENDBRANCH   8  10
ENDBRANCH   2   7
BRANCH   1  18
ATOM     18  S   UNL d   1      32.660  17.837 -23.525  0.00  0.00     0.271 S 
ATOM     19  O   UNL d   1      33.115  17.619 -22.868  0.00  0.00    -0.200 OA
ATOM     20  O   UNL d   1      32.209  18.051 -24.176  0.00  0.00    -0.200 OA
BRANCH  18  21
ATOM     21  N   UNL d   1      32.570  17.042 -23.726  0.00  0.00    -0.229 N 
ATOM     22  C   UNL d   1      31.819  16.706 -23.758  0.00  0.00     0.092 A 
ATOM     23  C   UNL d   1      31.730  15.906 -23.960  0.00  0.00     0.020 A 
ATOM     24  C   UNL d   1      32.391  15.453 -24.128  0.00  0.00     0.003 A 
ATOM     25  C   UNL d   1      33.147  15.786 -24.096  0.00  0.00     0.020 A 
ATOM     26  C   UNL d   1      33.238  16.577 -23.896  0.00  0.00     0.092 A 
ENDBRANCH  18  21
ENDBRANCH   1  18
TORSDOF 5
ENDMDL
MODEL 2
REMARK VINA RESULT:      -2.0      1.440      5.456
REMARK  5 active torsions:
REMARK  status: ('A' for Active; 'I' for Inactive)
REMARK    1  A    between atoms: N_5  and  S_1 
REMARK    2  A    between atoms: C_9  and  S_1 
REMARK    3  A    between atoms: C_2  and  N_4 
REMARK    4  A    between atoms: C_7  and  C_3 
REMARK       I    between atoms: N_4  and  C_6 
REMARK    5  A    between atoms: C_6  and  C_14 
ROOT
ATOM      1  C   UNL d   1      33.047  21.601 -21.000  0.00  0.00     0.104 A 
ATOM      2  C   UNL d   1      33.075  20.718 -22.395  0.00  0.00     0.058 A 
ATOM      3  C   UNL d   1      32.907  20.786 -20.980  0.00  0.00     0.013 A 
ATOM      4  C   UNL d   1      33.200  21.968 -21.718  0.00  0.00     0.013 A 
ATOM      5  C   UNL d   1      32.922  20.351 -21.677  0.00  0.00     0.005 A 
ATOM      6  C   UNL d   1      33.215  21.534 -22.415  0.00  0.00     0.005 A 
ENDROOT
BRANCH   2   7
ATOM      7  C   UNL d   1      33.089  20.277 -23.097  0.00  0.00     0.280 C 
ATOM      8  N   UNL d   1      33.016  19.456 -23.070  0.00  0.00    -0.201 NA
ATOM      9  O   UNL d   1      33.177  20.664 -23.805  0.00  0.00    -0.265 OA
BRANCH   8  10
ATOM     10  C   UNL d   1      33.031  19.024 -23.769  0.00  0.00     0.119 A 
ATOM     11  C   UNL d   1      32.837  18.224 -23.849  0.00  0.00     0.084 A 
ATOM     12  C   UNL d   1      32.929  18.017 -24.649  0.00  0.00     0.014 A 
ATOM     13  C   UNL d   1      33.179  18.691 -25.055  0.00  0.00     0.037 A 
ATOM     14  S   UNL d   1      33.240  19.306 -24.510  0.00  0.00    -0.067 SA
BRANCH  11  15
ATOM     15  C   UNL d   1      32.594  17.716 -23.248  0.00  0.00     0.299 C 
ATOM     16  O   UNL d   1      31.784  17.617 -23.101  0.00  0.00    -0.264 OA
ATOM     17  N   UNL d   1      33.151  17.308 -22.796  0.00  0.00    -0.102 N 
ENDBRANCH  11  15
ENDBRANCH   8  10
ENDBRANCH   2   7
BRANCH   1  18
ATOM     18  S   UNL d   1      33.032  22.036 -20.303  0.00  0.00     0.271 S 
ATOM     19  O   UNL d   1      33.058  21.335 -19.863  0.00  0.00    -0.200 OA
ATOM     20  O   UNL d   1      33.005  22.732 -20.738  0.00  0.00    -0.200 OA
BRANCH  18  21
ATOM     21  N   UNL d   1      33.017  22.474 -19.605  0.00  0.00    -0.229 N 
ATOM     22  C   UNL d   1      32.781  23.263 -19.616  0.00  0.00     0.092 A 
ATOM     23  C   UNL d   1      32.766  23.702 -18.912  0.00  0.00     0.020 A 
ATOM     24  C   UNL d   1      32.986  23.349 -18.207  0.00  0.00     0.003 A 
ATOM     25  C   UNL d   1      33.224  22.557 -18.191  0.00  0.00     0.020 A 
ATOM     26  C   UNL d   1      33.239  22.120 -18.886  0.00  0.00     0.092 A 
ENDBRANCH  18  21
ENDBRANCH   1  18
TORSDOF 5
ENDMDL
MODEL 3
REMARK VINA RESULT:      -1.7      0.971      1.498
REMARK  5 active torsions:
REMARK  status: ('A' for Active; 'I' for Inactive)
REMARK    1  A    between atoms: N_5  and  S_1 
REMARK    2  A    between atoms: C_9  and  S_1 
REMARK    3  A    between atoms: C_2  and  N_4 
REMARK    4  A    between atoms: C_7  and  C_3 
REMARK       I    between atoms: N_4  and  C_6 
REMARK    5  A    between atoms: C_6  and  C_14 
ROOT
ATOM      1  C   UNL d   1      32.761  18.630 -23.016  0.00  0.00     0.104 A 
ATOM      2  C   UNL d   1      32.947  19.965 -22.063  0.00  0.00     0.058 A 
ATOM      3  C   UNL d   1      33.061  18.555 -22.249  0.00  0.00     0.013 A 
ATOM      4  C   UNL d   1      32.557  19.372 -23.301  0.00  0.00     0.013 A 
ATOM      5  C   UNL d   1      33.151  19.223 -21.778  0.00  0.00     0.005 A 
ATOM      6  C   UNL d   1      32.648  20.039 -22.831  0.00  0.00     0.005 A 
ENDROOT
BRANCH   2   7
ATOM      7  C   UNL d   1      33.040  20.637 -21.586  0.00  0.00     0.280 C 
ATOM      8  N   UNL d   1      32.930  21.388 -21.906  0.00  0.00    -0.201 NA
ATOM      9  O   UNL d   1      33.239  20.542 -20.804  0.00  0.00    -0.265 OA
BRANCH   8  10
ATOM     10  C   UNL d   1      33.023  22.051 -21.429  0.00  0.00     0.119 A 
ATOM     11  C   UNL d   1      32.959  22.838 -21.675  0.00  0.00     0.084 A 
ATOM     12  C   UNL d   1      33.094  23.324 -21.013  0.00  0.00     0.014 A 
ATOM     13  C   UNL d   1      33.240  22.832 -20.367  0.00  0.00     0.037 A 
ATOM     14  S   UNL d   1      33.195  22.052 -20.628  0.00  0.00    -0.067 SA
BRANCH  11  15
ATOM     15  C   UNL d   1      32.792  23.103 -22.436  0.00  0.00     0.299 C 
ATOM     16  O   UNL d   1      33.234  22.813 -23.074  0.00  0.00    -0.264 OA
ATOM     17  N   UNL d   1      32.189  23.652 -22.564  0.00  0.00    -0.102 N 
ENDBRANCH  11  15
ENDBRANCH   8  10
ENDBRANCH   2   7
BRANCH   1  18
ATOM     18  S   UNL d   1      32.670  17.963 -23.487  0.00  0.00     0.271 S 
ATOM     19  O   UNL d   1      32.884  17.481 -22.847  0.00  0.00    -0.200 OA
ATOM     20  O   UNL d   1      32.459  18.438 -24.122  0.00  0.00    -0.200 OA
BRANCH  18  21
ATOM     21  N   UNL d   1      32.579  17.293 -23.960  0.00  0.00    -0.229 N 
ATOM     22  C   UNL d   1      32.006  16.731 -23.775  0.00  0.00     0.092 A 
ATOM     23  C   UNL d   1      31.915  16.058 -24.252  0.00  0.00     0.020 A 
ATOM     24  C   UNL d   1      32.396  15.954 -24.906  0.00  0.00     0.003 A 
ATOM     25  C   UNL d   1      32.973  16.516 -25.095  0.00  0.00     0.020 A 
ATOM     26  C   UNL d   1      33.065  17.183 -24.625  0.00  0.00     0.092 A 
ENDBRANCH  18  21
ENDBRANCH   1  18
TORSDOF 5
ENDMDL
