MODEL 1
REMARK VINA RESULT:       9.4      0.000      0.000
REMARK  3 active torsions:
REMARK  status: ('A' for Active; 'I' for Inactive)
REMARK    1  A    between atoms: C_7  and  C_1 
REMARK    2  A    between atoms: C_10  and  N_2 
REMARK    3  A    between atoms: C_14  and  C_7 
ROOT
ATOM      1  C   UNL d   1     -41.479-121.194 -53.210  0.00  0.00     0.155 A 
ATOM      2  N   UNL d   1     -41.573-121.972 -52.936  0.00  0.00    -0.277 N 
ATOM      3  C   UNL d   1     -41.516-122.121 -52.136  0.00  0.00     0.153 A 
ATOM      4  C   UNL d   1     -41.365-121.501 -51.605  0.00  0.00     0.092 A 
ATOM      5  N   UNL d   1     -41.328-120.577 -52.682  0.00  0.00    -0.190 NA
ATOM      6  C   UNL d   1     -41.274-120.743 -51.883  0.00  0.00     0.283 A 
ATOM      7  N   UNL d   1     -41.610-122.903 -51.852  0.00  0.00    -0.228 NA
ATOM      8  C   UNL d   1     -41.309-121.667 -50.794  0.00  0.00     0.009 A 
ATOM      9  O   UNL d   1     -41.123-120.128 -51.347  0.00  0.00    -0.265 OA
ATOM     10  C   UNL d   1     -41.403-122.435 -50.526  0.00  0.00     0.019 A 
ATOM     11  C   UNL d   1     -41.551-123.044 -51.048  0.00  0.00     0.083 A 
ATOM     12  C   UNL d   1     -41.159-121.051 -50.266  0.00  0.00     0.000 C 
ATOM     13  C   UNL d   1     -41.644-123.817 -50.762  0.00  0.00     0.021 C 
ENDROOT
BRANCH   2  14
ATOM     14  C   UNL d   1     -41.722-122.584 -53.460  0.00  0.00     0.067 A 
ATOM     15  C   UNL d   1     -42.454-122.652 -53.807  0.00  0.00     0.018 A 
ATOM     16  C   UNL d   1     -42.605-123.270 -54.336  0.00  0.00     0.002 A 
ATOM     17  C   UNL d   1     -42.023-123.817 -54.516  0.00  0.00     0.000 A 
ATOM     18  C   UNL d   1     -41.275-123.740 -54.155  0.00  0.00     0.002 A 
ATOM     19  C   UNL d   1     -41.125-123.127 -53.630  0.00  0.00     0.018 A 
ENDBRANCH   2  14
BRANCH   1  20
ATOM     20  C   UNL d   1     -41.535-121.038 -54.015  0.00  0.00     0.080 C 
BRANCH  20  21
ATOM     21  C   UNL d   1     -41.973-120.415 -54.333  0.00  0.00     0.199 C 
ATOM     22  O   UNL d   1     -42.575-120.660 -54.952  0.00  0.00    -0.286 OA
ATOM     23  C   UNL d   1     -41.874-119.383 -54.066  0.00  0.00     0.045 C 
ENDBRANCH  20  21
ENDBRANCH   1  20
TORSDOF 3
ENDMDL
MODEL 2
REMARK VINA RESULT:      11.4      1.299      3.879
REMARK  3 active torsions:
REMARK  status: ('A' for Active; 'I' for Inactive)
REMARK    1  A    between atoms: C_7  and  C_1 
REMARK    2  A    between atoms: C_10  and  N_2 
REMARK    3  A    between atoms: C_14  and  C_7 
ROOT
ATOM      1  C   UNL d   1     -41.684-122.479 -52.048  0.00  0.00     0.155 A 
ATOM      2  N   UNL d   1     -41.640-121.748 -52.441  0.00  0.00    -0.277 N 
ATOM      3  C   UNL d   1     -41.769-121.721 -53.245  0.00  0.00     0.153 A 
ATOM      4  C   UNL d   1     -41.942-122.416 -53.665  0.00  0.00     0.092 A 
ATOM      5  N   UNL d   1     -41.857-123.171 -52.466  0.00  0.00    -0.190 NA
ATOM      6  C   UNL d   1     -41.984-123.126 -53.273  0.00  0.00     0.283 A 
ATOM      7  N   UNL d   1     -41.725-120.988 -53.648  0.00  0.00    -0.228 NA
ATOM      8  C   UNL d   1     -42.071-122.373 -54.484  0.00  0.00     0.009 A 
ATOM      9  O   UNL d   1     -42.158-123.817 -53.698  0.00  0.00    -0.265 OA
ATOM     10  C   UNL d   1     -42.027-121.652 -54.868  0.00  0.00     0.019 A 
ATOM     11  C   UNL d   1     -41.856-120.969 -54.455  0.00  0.00     0.083 A 
ATOM     12  C   UNL d   1     -42.244-123.063 -54.901  0.00  0.00     0.000 C 
ATOM     13  C   UNL d   1     -41.814-120.245 -54.858  0.00  0.00     0.021 C 
ENDROOT
BRANCH   2  14
ATOM     14  C   UNL d   1     -41.469-121.063 -52.026  0.00  0.00     0.067 A 
ATOM     15  C   UNL d   1     -41.328-121.096 -51.227  0.00  0.00     0.018 A 
ATOM     16  C   UNL d   1     -41.155-120.403 -50.808  0.00  0.00     0.002 A 
ATOM     17  C   UNL d   1     -41.124-119.681 -51.192  0.00  0.00     0.000 A 
ATOM     18  C   UNL d   1     -41.269-119.655 -52.012  0.00  0.00     0.002 A 
ATOM     19  C   UNL d   1     -41.441-120.343 -52.427  0.00  0.00     0.018 A 
ENDBRANCH   2  14
BRANCH   1  20
ATOM     20  C   UNL d   1     -41.555-122.513 -51.237  0.00  0.00     0.080 C 
BRANCH  20  21
ATOM     21  C   UNL d   1     -41.853-123.108 -50.750  0.00  0.00     0.199 C 
ATOM     22  O   UNL d   1     -41.263-123.753 -50.546  0.00  0.00    -0.286 OA
ATOM     23  C   UNL d   1     -42.849-123.158 -50.361  0.00  0.00     0.045 C 
ENDBRANCH  20  21
ENDBRANCH   1  20
TORSDOF 3
ENDMDL
