MODEL 1
REMARK VINA RESULT:      -3.8      0.000      0.000
REMARK  3 active torsions:
REMARK  status: ('A' for Active; 'I' for Inactive)
REMARK    1  A    between atoms: N_10  and  C_3 
REMARK    2  A    between atoms: C_11  and  C_4 
REMARK    3  A    between atoms: C_12  and  N_10 
ROOT
ATOM      1  C   UNL d   1      58.740   0.287  30.340  0.00  0.00     0.167 A 
ATOM      2  N   UNL d   1      57.927   0.347  30.492  0.00  0.00    -0.195 N 
ATOM      3  C   UNL d   1      57.666   0.517  31.252  0.00  0.00     0.167 A 
ATOM      4  C   UNL d   1      58.830   0.116  29.546  0.00  0.00     0.057 A 
ATOM      5  N   UNL d   1      57.535   0.212  29.788  0.00  0.00    -0.161 NA
ATOM      6  N   UNL d   1      59.278   0.397  30.950  0.00  0.00    -0.227 NA
ATOM      7  C   UNL d   1      58.214   0.627  31.863  0.00  0.00     0.058 A 
ATOM      8  C   UNL d   1      58.078   0.070  29.209  0.00  0.00     0.124 A 
ATOM      9  C   UNL d   1      59.009   0.568  31.715  0.00  0.00     0.086 A 
ATOM     10  C   UNL d   1      59.545   0.682  32.339  0.00  0.00     0.021 C 
ENDROOT
BRANCH   3  11
ATOM     11  N   UNL d   1      56.854   0.577  31.404  0.00  0.00    -0.227 NA
BRANCH  11  12
ATOM     12  C   UNL d   1      56.515   0.120  31.996  0.00  0.00     0.083 A 
ATOM     13  C   UNL d   1      56.527  -0.692  32.141  0.00  0.00     0.019 A 
ATOM     14  C   UNL d   1      56.084  -0.833  32.821  0.00  0.00     0.002 A 
ATOM     15  C   UNL d   1      55.798  -0.121  33.099  0.00  0.00     0.002 A 
ATOM     16  C   UNL d   1      56.060   0.480  32.594  0.00  0.00     0.019 A 
ENDBRANCH  11  12
ENDBRANCH   3  11
BRANCH   4  17
ATOM     17  C   UNL d   1      59.584   0.021  29.221  0.00  0.00     0.004 A 
ATOM     18  C   UNL d   1      59.942  -0.712  29.225  0.00  0.00     0.000 A 
ATOM     19  C   UNL d   1      60.698  -0.811  28.900  0.00  0.00     0.000 A 
ATOM     20  C   UNL d   1      61.088  -0.156  28.571  0.00  0.00     0.000 A 
ATOM     21  C   UNL d   1      60.721   0.581  28.571  0.00  0.00     0.000 A 
ATOM     22  C   UNL d   1      59.975   0.668  28.894  0.00  0.00     0.000 A 
ENDBRANCH   4  17
TORSDOF 3
ENDMDL
MODEL 2
REMARK VINA RESULT:      -2.3      0.725      4.139
REMARK  3 active torsions:
REMARK  status: ('A' for Active; 'I' for Inactive)
REMARK    1  A    between atoms: N_10  and  C_3 
REMARK    2  A    between atoms: C_11  and  C_4 
REMARK    3  A    between atoms: C_12  and  N_10 
ROOT
ATOM      1  C   UNL d   1      57.873   0.219  31.439  0.00  0.00     0.167 A 
ATOM      2  N   UNL d   1      58.135   0.335  30.661  0.00  0.00    -0.195 N 
ATOM      3  C   UNL d   1      58.912   0.562  30.522  0.00  0.00     0.167 A 
ATOM      4  C   UNL d   1      57.087  -0.002  31.404  0.00  0.00     0.057 A 
ATOM      5  N   UNL d   1      57.504   0.182  30.164  0.00  0.00    -0.161 NA
ATOM      6  N   UNL d   1      58.392   0.333  32.065  0.00  0.00    -0.227 NA
ATOM      7  C   UNL d   1      59.431   0.675  31.158  0.00  0.00     0.058 A 
ATOM      8  C   UNL d   1      56.864  -0.023  30.610  0.00  0.00     0.124 A 
ATOM      9  C   UNL d   1      59.175   0.562  31.919  0.00  0.00     0.086 A 
ATOM     10  C   UNL d   1      59.707   0.680  32.545  0.00  0.00     0.021 C 
ENDROOT
BRANCH   3  11
ATOM     11  N   UNL d   1      59.173   0.678  29.745  0.00  0.00    -0.227 NA
BRANCH  11  12
ATOM     12  C   UNL d   1      59.875   0.331  29.494  0.00  0.00     0.083 A 
ATOM     13  C   UNL d   1      60.664   0.503  29.659  0.00  0.00     0.019 A 
ATOM     14  C   UNL d   1      61.131  -0.036  29.247  0.00  0.00     0.002 A 
ATOM     15  C   UNL d   1      60.642  -0.540  28.831  0.00  0.00     0.002 A 
ATOM     16  C   UNL d   1      59.858  -0.321  28.977  0.00  0.00     0.019 A 
ENDBRANCH  11  12
ENDBRANCH   3  11
BRANCH   4  17
ATOM     17  C   UNL d   1      56.665  -0.158  32.098  0.00  0.00     0.004 A 
ATOM     18  C   UNL d   1      56.686  -0.903  32.430  0.00  0.00     0.000 A 
ATOM     19  C   UNL d   1      56.264  -1.063  33.126  0.00  0.00     0.000 A 
ATOM     20  C   UNL d   1      55.821  -0.457  33.480  0.00  0.00     0.000 A 
ATOM     21  C   UNL d   1      55.804   0.292  33.140  0.00  0.00     0.000 A 
ATOM     22  C   UNL d   1      56.223   0.440  32.454  0.00  0.00     0.000 A 
ENDBRANCH   4  17
TORSDOF 3
ENDMDL
MODEL 3
REMARK VINA RESULT:      -1.5      1.563      2.514
REMARK  3 active torsions:
REMARK  status: ('A' for Active; 'I' for Inactive)
REMARK    1  A    between atoms: N_10  and  C_3 
REMARK    2  A    between atoms: C_11  and  C_4 
REMARK    3  A    between atoms: C_12  and  N_10 
ROOT
ATOM      1  C   UNL d   1      57.328  -0.482  31.504  0.00  0.00     0.167 A 
ATOM      2  N   UNL d   1      57.247   0.064  32.123  0.00  0.00    -0.195 N 
ATOM      3  C   UNL d   1      56.715  -0.085  32.731  0.00  0.00     0.167 A 
ATOM      4  C   UNL d   1      57.890  -0.187  30.989  0.00  0.00     0.057 A 
ATOM      5  N   UNL d   1      57.760   0.682  31.975  0.00  0.00    -0.161 NA
ATOM      6  N   UNL d   1      56.876  -1.167  31.503  0.00  0.00    -0.227 NA
ATOM      7  C   UNL d   1      56.262  -0.779  32.724  0.00  0.00     0.058 A 
ATOM      8  C   UNL d   1      58.154   0.536  31.287  0.00  0.00     0.124 A 
ATOM      9  C   UNL d   1      56.342  -1.313  32.118  0.00  0.00     0.086 A 
ATOM     10  C   UNL d   1      55.880  -2.003  32.126  0.00  0.00     0.021 C 
ENDROOT
BRANCH   3  11
ATOM     11  N   UNL d   1      56.634   0.459  33.349  0.00  0.00    -0.227 NA
BRANCH  11  12
ATOM     12  C   UNL d   1      55.910   0.539  33.730  0.00  0.00     0.083 A 
ATOM     13  C   UNL d   1      55.138   0.588  33.443  0.00  0.00     0.019 A 
ATOM     14  C   UNL d   1      54.634   0.663  34.090  0.00  0.00     0.002 A 
ATOM     15  C   UNL d   1      55.081   0.662  34.773  0.00  0.00     0.002 A 
ATOM     16  C   UNL d   1      55.877   0.585  34.561  0.00  0.00     0.019 A 
ENDBRANCH  11  12
ENDBRANCH   3  11
BRANCH   4  17
ATOM     17  C   UNL d   1      58.096  -0.610  30.309  0.00  0.00     0.004 A 
ATOM     18  C   UNL d   1      57.967  -0.286  29.571  0.00  0.00     0.000 A 
ATOM     19  C   UNL d   1      58.172  -0.707  28.887  0.00  0.00     0.000 A 
ATOM     20  C   UNL d   1      58.511  -1.461  28.961  0.00  0.00     0.000 A 
ATOM     21  C   UNL d   1      58.639  -1.782  29.708  0.00  0.00     0.000 A 
ATOM     22  C   UNL d   1      58.433  -1.359  30.376  0.00  0.00     0.000 A 
ENDBRANCH   4  17
TORSDOF 3
ENDMDL
