MODEL 1
REMARK VINA RESULT:       1.3      0.000      0.000
REMARK  8 active torsions:
REMARK  status: ('A' for Active; 'I' for Inactive)
REMARK    1  A    between atoms: C_11  and  N_1 
REMARK    2  A    between atoms: S_7  and  C_2 
REMARK    3  A    between atoms: C_18  and  S_7 
REMARK    4  A    between atoms: C_8  and  C_10 
REMARK       I    between atoms: N_14  and  C_8 
REMARK    5  A    between atoms: C_13  and  C_11 
REMARK    6  A    between atoms: C_25  and  N_14 
REMARK    7  A    between atoms: C_19  and  C_18 
REMARK    8  A    between atoms: C_26  and  C_25 
ROOT
ATOM      1  N   UNL d   1     -41.673-121.688 -53.166  0.00  0.00    -0.253 N 
ATOM      2  C   UNL d   1     -41.409-122.405 -52.960  0.00  0.00     0.182 A 
ATOM      3  C   UNL d   1     -41.863-121.512 -53.954  0.00  0.00     0.268 A 
ATOM      4  N   UNL d   1     -41.313-123.004 -53.524  0.00  0.00    -0.222 NA
ATOM      5  C   UNL d   1     -41.775-122.085 -54.517  0.00  0.00     0.074 A 
ATOM      6  C   UNL d   1     -41.495-122.846 -54.298  0.00  0.00     0.088 A 
ATOM      7  O   UNL d   1     -42.136-120.771 -54.167  0.00  0.00    -0.267 OA
ATOM      8  C   UNL d   1     -41.956-121.934 -55.298  0.00  0.00     0.006 A 
ATOM      9  C   UNL d   1     -41.406-123.426 -54.868  0.00  0.00     0.019 A 
ATOM     10  C   UNL d   1     -41.860-122.532 -55.857  0.00  0.00     0.000 A 
ATOM     11  C   UNL d   1     -41.596-123.249 -55.651  0.00  0.00     0.002 A 
ENDROOT
BRANCH   2  12
ATOM     12  S   UNL d   1     -41.224-122.561 -52.164  0.00  0.00    -0.049 SA
BRANCH  12  13
ATOM     13  C   UNL d   1     -41.431-123.295 -51.835  0.00  0.00     0.038 C 
BRANCH  13  14
ATOM     14  C   UNL d   1     -41.632-123.369 -51.039  0.00  0.00     0.007 A 
ATOM     15  C   UNL d   1     -41.123-123.034 -50.463  0.00  0.00     0.001 A 
ATOM     16  C   UNL d   1     -41.305-123.097 -49.676  0.00  0.00     0.005 A 
ATOM     17  C   UNL d   1     -41.995-123.492 -49.439  0.00  0.00     0.058 A 
ATOM     18  C   UNL d   1     -42.485-123.816 -50.007  0.00  0.00     0.005 A 
ATOM     19  C   UNL d   1     -42.292-123.746 -50.800  0.00  0.00     0.001 A 
BRANCH  17  20
ATOM     20  C   UNL d   1     -42.207-123.572 -48.629  0.00  0.00     0.279 C 
ATOM     21  O   UNL d   1     -43.011-123.698 -48.421  0.00  0.00    -0.265 OA
ATOM     22  N   UNL d   1     -41.630-123.528 -48.038  0.00  0.00    -0.203 NA
BRANCH  22  23
ATOM     23  C   UNL d   1     -41.849-123.609 -47.217  0.00  0.00     0.148 C 
BRANCH  23  24
ATOM     24  C   UNL d   1     -41.747-122.997 -46.696  0.00  0.00     0.255 C 
ATOM     25  O   UNL d   1     -42.099-122.273 -46.835  0.00  0.00    -0.281 OA
ENDBRANCH  23  24
ENDBRANCH  22  23
ENDBRANCH  17  20
ENDBRANCH  13  14
ENDBRANCH  12  13
ENDBRANCH   2  12
BRANCH   1  26
ATOM     26  C   UNL d   1     -41.764-121.096 -52.586  0.00  0.00     0.085 C 
BRANCH  26  27
ATOM     27  C   UNL d   1     -41.440-120.341 -52.733  0.00  0.00     0.019 C 
ATOM     28  C   UNL d   1     -41.123-119.892 -52.112  0.00  0.00     0.002 C 
ENDBRANCH  26  27
ENDBRANCH   1  26
TORSDOF 8
ENDMDL
