MODEL 1
REMARK VINA RESULT:      59.9      0.000      0.000
REMARK  5 active torsions:
REMARK  status: ('A' for Active; 'I' for Inactive)
REMARK    1  A    between atoms: S_2  and  C_1 
REMARK    2  A    between atoms: C_9  and  S_2 
REMARK    3  A    between atoms: N_14  and  C_10 
REMARK    4  A    between atoms: C_22  and  N_14 
REMARK    5  A    between atoms: C_23  and  N_14 
ROOT
ATOM      1  C   UNL d   1      14.093  16.122  -4.748  0.00  0.00     0.151 A 
ATOM      2  C   UNL d   1      14.673  15.866  -4.220  0.00  0.00     0.311 A 
ATOM      3  C   UNL d   1      13.468  15.614  -4.954  0.00  0.00     0.019 A 
ATOM      4  O   UNL d   1      14.628  15.101  -3.898  0.00  0.00    -0.272 OA
ATOM      5  C   UNL d   1      14.009  14.601  -4.105  0.00  0.00     0.105 A 
ATOM      6  C   UNL d   1      13.429  14.857  -4.633  0.00  0.00     0.024 A 
ATOM      7  C   UNL d   1      13.968  13.844  -3.784  0.00  0.00     0.042 A 
ATOM      8  C   UNL d   1      13.349  13.343  -3.990  0.00  0.00     0.066 A 
ATOM      9  O   UNL d   1      15.294  16.371  -4.014  0.00  0.00    -0.258 OA
ATOM     10  C   UNL d   1      12.808  14.356  -4.839  0.00  0.00     0.004 A 
ATOM     11  C   UNL d   1      12.769  13.599  -4.518  0.00  0.00     0.018 A 
ENDROOT
BRANCH   1  12
ATOM     12  S   UNL d   1      14.129  16.885  -5.075  0.00  0.00     0.215 S 
ATOM     13  O   UNL d   1      14.350  17.196  -4.330  0.00  0.00    -0.217 OA
ATOM     14  O   UNL d   1      13.908  16.583  -5.823  0.00  0.00    -0.217 OA
BRANCH  12  15
ATOM     15  C   UNL d   1      14.166  17.657  -5.405  0.00  0.00     0.088 A 
ATOM     16  C   UNL d   1      14.689  18.209  -5.091  0.00  0.00     0.011 A 
ATOM     17  C   UNL d   1      14.728  18.967  -5.411  0.00  0.00     0.001 A 
ATOM     18  C   UNL d   1      14.244  19.172  -6.046  0.00  0.00     0.000 A 
ATOM     19  C   UNL d   1      13.718  18.616  -6.361  0.00  0.00     0.001 A 
ATOM     20  C   UNL d   1      14.279  19.940  -6.376  0.00  0.00     0.000 C 
ATOM     21  C   UNL d   1      13.679  17.858  -6.041  0.00  0.00     0.011 A 
ENDBRANCH  12  15
ENDBRANCH   1  12
BRANCH   8  22
ATOM     22  N   UNL d   1      13.303  12.575  -3.668  0.00  0.00    -0.304 N 
BRANCH  22  23
ATOM     23  C   UNL d   1      13.758  12.379  -3.004  0.00  0.00     0.080 C 
ATOM     24  C   UNL d   1      13.448  11.880  -2.425  0.00  0.00     0.021 C 
ENDBRANCH  22  23
BRANCH  22  25
ATOM     25  C   UNL d   1      12.803  12.017  -4.014  0.00  0.00     0.080 C 
ATOM     26  C   UNL d   1      12.926  11.781  -4.794  0.00  0.00     0.021 C 
ENDBRANCH  22  25
ENDBRANCH   8  22
TORSDOF 5
ENDMDL
MODEL 2
REMARK VINA RESULT:      60.4      1.702      5.298
REMARK  5 active torsions:
REMARK  status: ('A' for Active; 'I' for Inactive)
REMARK    1  A    between atoms: S_2  and  C_1 
REMARK    2  A    between atoms: C_9  and  S_2 
REMARK    3  A    between atoms: N_14  and  C_10 
REMARK    4  A    between atoms: C_22  and  N_14 
REMARK    5  A    between atoms: C_23  and  N_14 
ROOT
ATOM      1  C   UNL d   1      13.796  15.783  -5.031  0.00  0.00     0.151 A 
ATOM      2  C   UNL d   1      14.413  16.147  -4.624  0.00  0.00     0.311 A 
ATOM      3  C   UNL d   1      13.347  16.219  -5.578  0.00  0.00     0.019 A 
ATOM      4  O   UNL d   1      14.582  16.948  -4.763  0.00  0.00    -0.272 OA
ATOM      5  C   UNL d   1      14.136  17.377  -5.305  0.00  0.00     0.105 A 
ATOM      6  C   UNL d   1      13.518  17.013  -5.712  0.00  0.00     0.024 A 
ATOM      7  C   UNL d   1      14.307  18.172  -5.440  0.00  0.00     0.042 A 
ATOM      8  C   UNL d   1      13.861  18.601  -5.982  0.00  0.00     0.066 A 
ATOM      9  O   UNL d   1      14.861  15.714  -4.080  0.00  0.00    -0.258 OA
ATOM     10  C   UNL d   1      13.071  17.442  -6.255  0.00  0.00     0.004 A 
ATOM     11  C   UNL d   1      13.243  18.236  -6.389  0.00  0.00     0.018 A 
ENDROOT
BRANCH   1  12
ATOM     12  S   UNL d   1      13.619  14.981  -4.898  0.00  0.00     0.215 S 
ATOM     13  O   UNL d   1      13.242  15.182  -4.179  0.00  0.00    -0.217 OA
ATOM     14  O   UNL d   1      13.994  14.772  -5.616  0.00  0.00    -0.217 OA
BRANCH  12  15
ATOM     15  C   UNL d   1      13.440  14.171  -4.764  0.00  0.00     0.088 A 
ATOM     16  C   UNL d   1      12.947  13.963  -4.139  0.00  0.00     0.011 A 
ATOM     17  C   UNL d   1      12.769  13.170  -4.003  0.00  0.00     0.001 A 
ATOM     18  C   UNL d   1      13.085  12.586  -4.493  0.00  0.00     0.000 A 
ATOM     19  C   UNL d   1      13.581  12.797  -5.120  0.00  0.00     0.001 A 
ATOM     20  C   UNL d   1      12.908  11.779  -4.360  0.00  0.00     0.000 C 
ATOM     21  C   UNL d   1      13.759  13.591  -5.256  0.00  0.00     0.011 A 
ENDBRANCH  12  15
ENDBRANCH   1  12
BRANCH   8  22
ATOM     22  N   UNL d   1      14.029  19.405  -6.123  0.00  0.00    -0.304 N 
BRANCH  22  23
ATOM     23  C   UNL d   1      13.414  19.929  -6.306  0.00  0.00     0.080 C 
ATOM     24  C   UNL d   1      13.282  20.592  -5.833  0.00  0.00     0.021 C 
ENDBRANCH  22  23
BRANCH  22  25
ATOM     25  C   UNL d   1      14.808  19.672  -6.078  0.00  0.00     0.080 C 
ATOM     26  C   UNL d   1      14.982  20.464  -6.226  0.00  0.00     0.021 C 
ENDBRANCH  22  25
ENDBRANCH   8  22
TORSDOF 5
ENDMDL
