MODEL 1
REMARK VINA RESULT:      -4.4      0.000      0.000
REMARK  6 active torsions:
REMARK  status: ('A' for Active; 'I' for Inactive)
REMARK    1  A    between atoms: S_6  and  C_1 
REMARK    2  A    between atoms: C_13  and  S_6 
REMARK    3  A    between atoms: C_7  and  O_9 
REMARK    4  A    between atoms: O_9  and  C_14 
REMARK    5  A    between atoms: C_10  and  C_13 
REMARK    6  A    between atoms: C_14  and  C_10 
ROOT
ATOM      1  C   UNL d   1      58.205  -0.746  30.327  0.00  0.00     0.040 C 
ENDROOT
BRANCH   1   2
ATOM      2  C   UNL d   1      58.545  -0.793  29.579  0.00  0.00     0.034 C 
BRANCH   2   3
ATOM      3  C   UNL d   1      59.190  -1.293  29.453  0.00  0.00     0.123 C 
BRANCH   3   4
ATOM      4  O   UNL d   1      59.117  -1.906  28.909  0.00  0.00    -0.305 OA
BRANCH   4   5
ATOM      5  C   UNL d   1      59.717  -2.461  28.832  0.00  0.00     0.100 A 
ATOM      6  C   UNL d   1      59.539  -3.233  28.607  0.00  0.00     0.023 A 
ATOM      7  C   UNL d   1      58.759  -3.456  28.455  0.00  0.00     0.002 C 
ATOM      8  C   UNL d   1      60.151  -3.791  28.530  0.00  0.00     0.002 A 
ATOM      9  C   UNL d   1      60.931  -3.572  28.680  0.00  0.00     0.000 A 
ATOM     10  C   UNL d   1      61.103  -2.791  28.908  0.00  0.00     0.002 A 
ATOM     11  C   UNL d   1      60.499  -2.234  28.985  0.00  0.00     0.025 A 
ENDBRANCH   4   5
ENDBRANCH   3   4
ENDBRANCH   2   3
ENDBRANCH   1   2
BRANCH   1  12
ATOM     12  S   UNL d   1      57.763  -0.081  30.530  0.00  0.00    -0.048 SA
BRANCH  12  13
ATOM     13  C   UNL d   1      57.361  -0.052  31.247  0.00  0.00     0.194 A 
ATOM     14  N   UNL d   1      56.736  -0.542  31.485  0.00  0.00    -0.220 NA
ATOM     15  C   UNL d   1      56.505  -0.311  32.247  0.00  0.00     0.101 A 
ATOM     16  C   UNL d   1      55.919  -0.601  32.749  0.00  0.00     0.021 A 
ATOM     17  C   UNL d   1      56.984   0.323  32.490  0.00  0.00     0.101 A 
ATOM     18  C   UNL d   1      55.808  -0.261  33.490  0.00  0.00     0.002 A 
ATOM     19  C   UNL d   1      56.283   0.367  33.730  0.00  0.00     0.002 A 
ATOM     20  C   UNL d   1      56.867   0.656  33.230  0.00  0.00     0.021 A 
ATOM     21  N   UNL d   1      57.518   0.486  31.867  0.00  0.00    -0.220 NA
ENDBRANCH  12  13
ENDBRANCH   1  12
TORSDOF 6
ENDMDL
MODEL 2
REMARK VINA RESULT:      -4.2      0.991      1.837
REMARK  6 active torsions:
REMARK  status: ('A' for Active; 'I' for Inactive)
REMARK    1  A    between atoms: S_6  and  C_1 
REMARK    2  A    between atoms: C_13  and  S_6 
REMARK    3  A    between atoms: C_7  and  O_9 
REMARK    4  A    between atoms: O_9  and  C_14 
REMARK    5  A    between atoms: C_10  and  C_13 
REMARK    6  A    between atoms: C_14  and  C_10 
ROOT
ATOM      1  C   UNL d   1      57.509   0.196  31.143  0.00  0.00     0.040 C 
ENDROOT
BRANCH   1   2
ATOM      2  C   UNL d   1      58.106   0.244  30.578  0.00  0.00     0.034 C 
BRANCH   2   3
ATOM      3  C   UNL d   1      58.320  -0.428  30.150  0.00  0.00     0.123 C 
BRANCH   3   4
ATOM      4  O   UNL d   1      58.969  -0.388  29.645  0.00  0.00    -0.305 OA
BRANCH   4   5
ATOM      5  C   UNL d   1      59.241  -1.066  29.270  0.00  0.00     0.100 A 
ATOM      6  C   UNL d   1      60.011  -1.097  28.982  0.00  0.00     0.023 A 
ATOM      7  C   UNL d   1      60.517  -0.450  29.065  0.00  0.00     0.002 C 
ATOM      8  C   UNL d   1      60.282  -1.787  28.603  0.00  0.00     0.002 A 
ATOM      9  C   UNL d   1      59.780  -2.434  28.518  0.00  0.00     0.000 A 
ATOM     10  C   UNL d   1      59.004  -2.396  28.812  0.00  0.00     0.002 A 
ATOM     11  C   UNL d   1      58.732  -1.714  29.189  0.00  0.00     0.025 A 
ENDBRANCH   4   5
ENDBRANCH   3   4
ENDBRANCH   2   3
ENDBRANCH   1   2
BRANCH   1  12
ATOM     12  S   UNL d   1      57.661   0.445  31.914  0.00  0.00    -0.048 SA
BRANCH  12  13
ATOM     13  C   UNL d   1      57.067   0.418  32.483  0.00  0.00     0.194 A 
ATOM     14  N   UNL d   1      57.125   0.672  33.270  0.00  0.00    -0.220 NA
ATOM     15  C   UNL d   1      56.392   0.538  33.637  0.00  0.00     0.101 A 
ATOM     16  C   UNL d   1      56.134   0.682  34.406  0.00  0.00     0.021 A 
ATOM     17  C   UNL d   1      55.875   0.200  33.081  0.00  0.00     0.101 A 
ATOM     18  C   UNL d   1      55.365   0.491  34.623  0.00  0.00     0.002 A 
ATOM     19  C   UNL d   1      54.852   0.156  34.073  0.00  0.00     0.002 A 
ATOM     20  C   UNL d   1      55.109   0.012  33.306  0.00  0.00     0.021 A 
ATOM     21  N   UNL d   1      56.295   0.125  32.361  0.00  0.00    -0.220 NA
ENDBRANCH  12  13
ENDBRANCH   1  12
TORSDOF 6
ENDMDL
