MODEL 1
REMARK VINA RESULT:      47.8      0.000      0.000
REMARK  4 active torsions:
REMARK  status: ('A' for Active; 'I' for Inactive)
REMARK    1  A    between atoms: C_4  and  C_3 
REMARK    2  A    between atoms: C_5  and  C_4 
REMARK    3  A    between atoms: C_9  and  C_5 
REMARK    4  A    between atoms: C_13  and  C_9 
ROOT
ATOM      1  N   UNL d   1     -50.703  24.095  33.308  0.00  0.00    -0.234 NA
ATOM      2  C   UNL d   1     -50.359  24.846  33.307  0.00  0.00     0.138 A 
ATOM      3  C   UNL d   1     -50.838  25.519  33.306  0.00  0.00     0.029 A 
ATOM      4  C   UNL d   1     -51.524  24.016  33.308  0.00  0.00     0.082 A 
ATOM      5  C   UNL d   1     -52.003  24.689  33.307  0.00  0.00     0.018 A 
ATOM      6  C   UNL d   1     -51.629  25.396  33.306  0.00  0.00     0.004 A 
ATOM      7  C   UNL d   1     -52.793  24.567  33.307  0.00  0.00     0.002 A 
ATOM      8  C   UNL d   1     -51.867  23.267  33.309  0.00  0.00     0.019 A 
ATOM      9 CL   UNL d   1     -49.539  24.924  33.307  0.00  0.00    -0.061 Cl
ATOM     10  C   UNL d   1     -53.167  23.861  33.308  0.00  0.00     0.000 A 
ATOM     11  C   UNL d   1     -52.688  23.188  33.309  0.00  0.00     0.002 A 
ATOM     12  C   UNL d   1     -53.935  23.754  33.308  0.00  0.00     0.000 C 
ENDROOT
BRANCH   3  13
ATOM     13  C   UNL d   1     -50.464  26.224  33.306  0.00  0.00     0.006 C 
BRANCH  13  14
ATOM     14  C   UNL d   1     -49.988  26.807  33.644  0.00  0.00     0.042 C 
BRANCH  14  15
ATOM     15  C   UNL d   1     -50.109  27.419  34.174  0.00  0.00     0.196 C 
ATOM     16  O   UNL d   1     -50.878  27.639  34.383  0.00  0.00    -0.287 OA
BRANCH  15  17
ATOM     17  C   UNL d   1     -49.478  27.819  34.501  0.00  0.00     0.039 A 
ATOM     18  C   UNL d   1     -48.771  27.433  34.666  0.00  0.00     0.003 A 
ATOM     19  C   UNL d   1     -48.145  27.857  34.997  0.00  0.00     0.000 A 
ATOM     20  C   UNL d   1     -48.218  28.664  35.166  0.00  0.00     0.000 A 
ATOM     21  C   UNL d   1     -48.919  29.049  35.003  0.00  0.00     0.000 A 
ATOM     22  C   UNL d   1     -49.551  28.624  34.669  0.00  0.00     0.003 A 
ENDBRANCH  15  17
ENDBRANCH  14  15
ENDBRANCH  13  14
ENDBRANCH   3  13
TORSDOF 4
ENDMDL
