MODEL 1
REMARK VINA RESULT:      24.6      0.000      0.000
REMARK  5 active torsions:
REMARK  status: ('A' for Active; 'I' for Inactive)
REMARK    1  A    between atoms: N_6  and  S_1 
REMARK    2  A    between atoms: C_16  and  S_1 
REMARK    3  A    between atoms: N_2  and  C_15 
REMARK       I    between atoms: C_9  and  N_8 
REMARK    4  A    between atoms: C_10  and  C_9 
REMARK    5  A    between atoms: C_15  and  C_10 
ROOT
ATOM      1  N   UNL d   1      45.949 -17.158  44.048  0.00  0.00    -0.226 N 
ATOM      2  N   UNL d   1      45.848 -15.582  44.510  0.00  0.00    -0.269 N 
ATOM      3  C   UNL d   1      45.789 -14.793  44.741  0.00  0.00     0.267 C 
ATOM      4  C   UNL d   1      46.646 -16.745  44.260  0.00  0.00     0.111 A 
ATOM      5  C   UNL d   1      45.217 -16.781  44.069  0.00  0.00     0.111 A 
ATOM      6  C   UNL d   1      45.167 -15.991  44.301  0.00  0.00     0.103 A 
ATOM      7  C   UNL d   1      46.595 -15.955  44.492  0.00  0.00     0.103 A 
ATOM      8  O   UNL d   1      46.470 -14.377  44.952  0.00  0.00    -0.267 OA
ENDROOT
BRANCH   3   9
ATOM      9  C   UNL d   1      45.055 -14.423  44.760  0.00  0.00     0.082 C 
BRANCH   9  10
ATOM     10  C   UNL d   1      45.016 -13.599  44.775  0.00  0.00     0.105 C 
BRANCH  10  11
ATOM     11  N   UNL d   1      45.034 -13.177  44.063  0.00  0.00    -0.228 N 
ATOM     12  N   UNL d   1      45.700 -13.004  43.610  0.00  0.00    -0.165 NA
ATOM     13  C   UNL d   1      45.465 -12.574  42.946  0.00  0.00     0.103 A 
ATOM     14  C   UNL d   1      45.959 -12.287  42.344  0.00  0.00     0.022 C 
ATOM     15  C   UNL d   1      44.647 -12.478  42.985  0.00  0.00     0.037 A 
ATOM     16  C   UNL d   1      44.377 -12.849  43.674  0.00  0.00     0.084 A 
ATOM     17  C   UNL d   1      44.179 -12.082  42.437  0.00  0.00     0.003 C 
ATOM     18  C   UNL d   1      43.591 -12.883  43.924  0.00  0.00     0.021 C 
ENDBRANCH  10  11
ENDBRANCH   9  10
ENDBRANCH   3   9
BRANCH   1  19
ATOM     19  S   UNL d   1      45.999 -17.952  43.815  0.00  0.00     0.271 S 
ATOM     20  O   UNL d   1      45.944 -18.189  44.611  0.00  0.00    -0.200 OA
ATOM     21  O   UNL d   1      46.054 -17.717  43.027  0.00  0.00    -0.200 OA
BRANCH  19  22
ATOM     22  C   UNL d   1      46.050 -18.750  43.580  0.00  0.00     0.104 A 
ATOM     23  C   UNL d   1      46.197 -19.331  44.155  0.00  0.00     0.013 A 
ATOM     24  C   UNL d   1      46.248 -20.128  43.920  0.00  0.00     0.001 A 
ATOM     25  C   UNL d   1      46.151 -20.330  43.116  0.00  0.00     0.000 A 
ATOM     26  C   UNL d   1      46.005 -19.735  42.555  0.00  0.00     0.001 A 
ATOM     27  C   UNL d   1      45.956 -18.946  42.791  0.00  0.00     0.013 A 
ENDBRANCH  19  22
ENDBRANCH   1  19
TORSDOF 5
ENDMDL
