MODEL 1
REMARK VINA RESULT:      -7.6      0.000      0.000
REMARK  2 active torsions:
REMARK  status: ('A' for Active; 'I' for Inactive)
REMARK    1  A    between atoms: C_6  and  N_1 
REMARK    2  A    between atoms: C_7  and  C_6 
ROOT
ATOM      1  N   UNL d   1     -48.423  12.423  23.291  0.00  0.00    -0.287 N 
ATOM      2  N   UNL d   1     -48.986  11.473  22.569  0.00  0.00    -0.224 NA
ATOM      3  C   UNL d   1     -48.283  11.693  22.943  0.00  0.00     0.183 A 
ATOM      4  C   UNL d   1     -49.182  12.650  23.139  0.00  0.00     0.083 A 
ATOM      5  C   UNL d   1     -49.534  12.056  22.688  0.00  0.00     0.099 A 
ATOM      6  C   UNL d   1     -49.615  13.320  23.348  0.00  0.00     0.019 A 
ATOM      7  C   UNL d   1     -50.319  12.132  22.445  0.00  0.00     0.021 A 
ATOM      8  C   UNL d   1     -50.400  13.397  23.105  0.00  0.00     0.002 A 
ATOM      9  C   UNL d   1     -50.752  12.803  22.654  0.00  0.00     0.002 A 
ENDROOT
BRANCH   1  10
ATOM     10  C   UNL d   1     -47.764  12.728  23.695  0.00  0.00     0.082 C 
BRANCH  10  11
ATOM     11  C   UNL d   1     -47.080  12.905  23.286  0.00  0.00     0.018 A 
ATOM     12  C   UNL d   1     -46.973  13.661  22.977  0.00  0.00     0.002 A 
ATOM     13  C   UNL d   1     -46.283  13.845  22.563  0.00  0.00     0.011 A 
ATOM     14  C   UNL d   1     -45.700  13.270  22.458  0.00  0.00     0.058 A 
ATOM     15  C   UNL d   1     -45.828  12.533  22.772  0.00  0.00     0.011 A 
ATOM     16 CL   UNL d   1     -45.029  13.476  22.046  0.00  0.00    -0.082 Cl
ATOM     17  C   UNL d   1     -46.497  12.330  23.182  0.00  0.00     0.002 A 
ENDBRANCH  10  11
ENDBRANCH   1  10
TORSDOF 2
ENDMDL
MODEL 2
REMARK VINA RESULT:      -7.6      0.948      1.128
REMARK  2 active torsions:
REMARK  status: ('A' for Active; 'I' for Inactive)
REMARK    1  A    between atoms: C_6  and  N_1 
REMARK    2  A    between atoms: C_7  and  C_6 
ROOT
ATOM      1  N   UNL d   1     -48.871  12.382  22.480  0.00  0.00    -0.287 N 
ATOM      2  N   UNL d   1     -48.991  11.405  23.359  0.00  0.00    -0.224 NA
ATOM      3  C   UNL d   1     -48.461  11.769  22.840  0.00  0.00     0.183 A 
ATOM      4  C   UNL d   1     -49.627  12.400  22.762  0.00  0.00     0.083 A 
ATOM      5  C   UNL d   1     -49.702  11.789  23.312  0.00  0.00     0.099 A 
ATOM      6  C   UNL d   1     -50.270  12.889  22.599  0.00  0.00     0.019 A 
ATOM      7  C   UNL d   1     -50.420  11.668  23.698  0.00  0.00     0.021 A 
ATOM      8  C   UNL d   1     -50.989  12.768  22.985  0.00  0.00     0.002 A 
ATOM      9  C   UNL d   1     -51.064  12.158  23.534  0.00  0.00     0.002 A 
ENDROOT
BRANCH   1  10
ATOM     10  C   UNL d   1     -48.413  12.810  21.935  0.00  0.00     0.082 C 
BRANCH  10  11
ATOM     11  C   UNL d   1     -47.763  13.233  22.192  0.00  0.00     0.018 A 
ATOM     12  C   UNL d   1     -47.852  14.020  22.420  0.00  0.00     0.002 A 
ATOM     13  C   UNL d   1     -47.198  14.452  22.680  0.00  0.00     0.011 A 
ATOM     14  C   UNL d   1     -46.455  14.095  22.711  0.00  0.00     0.058 A 
ATOM     15  C   UNL d   1     -46.393  13.319  22.481  0.00  0.00     0.011 A 
ATOM     16 CL   UNL d   1     -45.826  14.542  22.971  0.00  0.00    -0.082 Cl
ATOM     17  C   UNL d   1     -47.020  12.876  22.223  0.00  0.00     0.002 A 
ENDBRANCH  10  11
ENDBRANCH   1  10
TORSDOF 2
ENDMDL
MODEL 3
REMARK VINA RESULT:      -7.4      1.675      2.379
REMARK  2 active torsions:
REMARK  status: ('A' for Active; 'I' for Inactive)
REMARK    1  A    between atoms: C_6  and  N_1 
REMARK    2  A    between atoms: C_7  and  C_6 
ROOT
ATOM      1  N   UNL d   1     -48.860  14.228  22.437  0.00  0.00    -0.287 N 
ATOM      2  N   UNL d   1     -48.696  15.448  22.912  0.00  0.00    -0.224 NA
ATOM      3  C   UNL d   1     -48.301  14.818  22.552  0.00  0.00     0.183 A 
ATOM      4  C   UNL d   1     -49.575  14.480  22.714  0.00  0.00     0.083 A 
ATOM      5  C   UNL d   1     -49.472  15.243  23.010  0.00  0.00     0.099 A 
ATOM      6  C   UNL d   1     -50.318  14.123  22.741  0.00  0.00     0.019 A 
ATOM      7  C   UNL d   1     -50.113  15.649  23.334  0.00  0.00     0.021 A 
ATOM      8  C   UNL d   1     -50.959  14.529  23.065  0.00  0.00     0.002 A 
ATOM      9  C   UNL d   1     -50.857  15.292  23.362  0.00  0.00     0.002 A 
ENDROOT
BRANCH   1  10
ATOM     10  C   UNL d   1     -48.551  13.547  22.076  0.00  0.00     0.082 C 
BRANCH  10  11
ATOM     11  C   UNL d   1     -48.012  13.082  22.477  0.00  0.00     0.018 A 
ATOM     12  C   UNL d   1     -48.274  12.422  22.896  0.00  0.00     0.002 A 
ATOM     13  C   UNL d   1     -47.733  11.949  23.302  0.00  0.00     0.011 A 
ATOM     14  C   UNL d   1     -46.930  12.137  23.289  0.00  0.00     0.058 A 
ATOM     15  C   UNL d   1     -46.696  12.791  22.869  0.00  0.00     0.011 A 
ATOM     16 CL   UNL d   1     -46.416  11.654  23.698  0.00  0.00    -0.082 Cl
ATOM     17  C   UNL d   1     -47.209  13.270  22.463  0.00  0.00     0.002 A 
ENDBRANCH  10  11
ENDBRANCH   1  10
TORSDOF 2
ENDMDL
MODEL 4
REMARK VINA RESULT:      -5.9      8.584      9.794
REMARK  2 active torsions:
REMARK  status: ('A' for Active; 'I' for Inactive)
REMARK    1  A    between atoms: C_6  and  N_1 
REMARK    2  A    between atoms: C_7  and  C_6 
ROOT
ATOM      1  N   UNL d   1     -40.322  14.638  18.279  0.00  0.00    -0.287 N 
ATOM      2  N   UNL d   1     -40.142  15.510  17.306  0.00  0.00    -0.224 NA
ATOM      3  C   UNL d   1     -40.563  15.373  18.004  0.00  0.00     0.183 A 
ATOM      4  C   UNL d   1     -39.774  14.329  17.775  0.00  0.00     0.083 A 
ATOM      5  C   UNL d   1     -39.661  14.875  17.166  0.00  0.00     0.099 A 
ATOM      6  C   UNL d   1     -39.352  13.621  17.776  0.00  0.00     0.019 A 
ATOM      7  C   UNL d   1     -39.127  14.712  16.559  0.00  0.00     0.021 A 
ATOM      8  C   UNL d   1     -38.817  13.457  17.170  0.00  0.00     0.002 A 
ATOM      9  C   UNL d   1     -38.704  14.003  16.561  0.00  0.00     0.002 A 
ENDROOT
BRANCH   1  10
ATOM     10  C   UNL d   1     -40.697  14.412  18.986  0.00  0.00     0.082 C 
BRANCH  10  11
ATOM     11  C   UNL d   1     -40.516  14.795  19.684  0.00  0.00     0.018 A 
ATOM     12  C   UNL d   1     -39.955  14.472  20.194  0.00  0.00     0.002 A 
ATOM     13  C   UNL d   1     -39.769  14.855  20.901  0.00  0.00     0.011 A 
ATOM     14  C   UNL d   1     -40.145  15.563  21.097  0.00  0.00     0.058 A 
ATOM     15  C   UNL d   1     -40.693  15.862  20.579  0.00  0.00     0.011 A 
ATOM     16 CL   UNL d   1     -39.943  15.922  21.800  0.00  0.00    -0.082 Cl
ATOM     17  C   UNL d   1     -40.891  15.503  19.880  0.00  0.00     0.002 A 
ENDBRANCH  10  11
ENDBRANCH   1  10
TORSDOF 2
ENDMDL
