MODEL 1
REMARK VINA RESULT:      -8.6      0.000      0.000
REMARK  5 active torsions:
REMARK  status: ('A' for Active; 'I' for Inactive)
REMARK    1  A    between atoms: C_20  and  N_1 
REMARK       I    between atoms: C_6  and  N_7 
REMARK    2  A    between atoms: C_10  and  C_6 
REMARK    3  A    between atoms: N_7  and  C_8 
REMARK    4  A    between atoms: O_22  and  C_13 
REMARK    5  A    between atoms: O_23  and  C_16 
ROOT
ATOM      1  N   UNL d   1      54.025  33.020  54.331  0.00  0.00    -0.273 N 
ATOM      2  C   UNL d   1      54.064  32.054  53.982  0.00  0.00     0.265 A 
ATOM      3  C   UNL d   1      53.253  33.297  54.006  0.00  0.00     0.067 A 
ATOM      4  C   UNL d   1      52.906  32.729  53.594  0.00  0.00     0.022 A 
ATOM      5  C   UNL d   1      53.284  31.997  53.524  0.00  0.00     0.058 A 
ATOM      6  C   UNL d   1      51.812  33.564  53.304  0.00  0.00     0.085 A 
ATOM      7  C   UNL d   1      52.189  32.860  53.245  0.00  0.00     0.019 A 
ATOM      8  C   UNL d   1      52.861  34.055  54.078  0.00  0.00     0.019 A 
ATOM      9  O   UNL d   1      54.652  31.540  54.113  0.00  0.00    -0.267 OA
ATOM     10  C   UNL d   1      52.171  34.168  53.736  0.00  0.00     0.021 A 
ATOM     11  C   UNL d   1      52.928  31.410  53.100  0.00  0.00     0.005 A 
ATOM     12  C   UNL d   1      51.817  32.255  52.805  0.00  0.00     0.002 A 
ATOM     13  C   UNL d   1      52.191  31.534  52.736  0.00  0.00     0.000 A 
ENDROOT
BRANCH   6  14
ATOM     14  N   UNL d   1      51.068  33.706  52.944  0.00  0.00    -0.208 NA
ATOM     15  C   UNL d   1      50.827  34.480  52.852  0.00  0.00     0.279 C 
ATOM     16  O   UNL d   1      51.280  35.095  53.097  0.00  0.00    -0.265 OA
BRANCH  15  17
ATOM     17  C   UNL d   1      50.124  34.623  52.512  0.00  0.00     0.060 A 
ATOM     18  C   UNL d   1      49.605  34.985  52.952  0.00  0.00     0.031 A 
ATOM     19  C   UNL d   1      48.809  35.158  52.595  0.00  0.00     0.116 A 
ATOM     20  C   UNL d   1      48.656  34.926  51.810  0.00  0.00     0.116 A 
ATOM     21  C   UNL d   1      49.233  34.545  51.378  0.00  0.00     0.026 A 
ATOM     22  C   UNL d   1      49.977  34.392  51.733  0.00  0.00     0.007 A 
BRANCH  19  23
ATOM     23  O   UNL d   1      48.240  35.526  53.002  0.00  0.00    -0.326 OA
ATOM     24  C   UNL d   1      48.444  36.059  53.589  0.00  0.00     0.181 C 
ENDBRANCH  19  23
BRANCH  20  25
ATOM     25  O   UNL d   1      47.914  35.081  51.460  0.00  0.00    -0.326 OA
ATOM     26  C   UNL d   1      47.779  34.868  50.672  0.00  0.00     0.181 C 
ENDBRANCH  20  25
ENDBRANCH  15  17
ENDBRANCH   6  14
BRANCH   1  27
ATOM     27  C   UNL d   1      54.391  33.766  54.822  0.00  0.00     0.083 C 
ATOM     28  C   UNL d   1      55.112  33.697  55.178  0.00  0.00     0.021 C 
ENDBRANCH   1  27
TORSDOF 5
ENDMDL
MODEL 2
REMARK VINA RESULT:      -7.5      1.344      5.406
REMARK  5 active torsions:
REMARK  status: ('A' for Active; 'I' for Inactive)
REMARK    1  A    between atoms: C_20  and  N_1 
REMARK       I    between atoms: C_6  and  N_7 
REMARK    2  A    between atoms: C_10  and  C_6 
REMARK    3  A    between atoms: N_7  and  C_8 
REMARK    4  A    between atoms: O_22  and  C_13 
REMARK    5  A    between atoms: O_23  and  C_16 
ROOT
ATOM      1  N   UNL d   1      47.406  35.951  52.611  0.00  0.00    -0.273 N 
ATOM      2  C   UNL d   1      47.167  35.688  51.647  0.00  0.00     0.265 A 
ATOM      3  C   UNL d   1      48.203  35.586  52.704  0.00  0.00     0.067 A 
ATOM      4  C   UNL d   1      48.417  35.216  52.048  0.00  0.00     0.022 A 
ATOM      5  C   UNL d   1      47.902  35.218  51.401  0.00  0.00     0.058 A 
ATOM      6  C   UNL d   1      49.640  34.829  52.627  0.00  0.00     0.085 A 
ATOM      7  C   UNL d   1      49.131  34.839  52.008  0.00  0.00     0.019 A 
ATOM      8  C   UNL d   1      48.737  35.583  53.374  0.00  0.00     0.019 A 
ATOM      9  O   UNL d   1      46.496  35.877  51.270  0.00  0.00    -0.267 OA
ATOM     10  C   UNL d   1      49.422  35.216  53.321  0.00  0.00     0.021 A 
ATOM     11  C   UNL d   1      48.121  34.838  50.724  0.00  0.00     0.005 A 
ATOM     12  C   UNL d   1      49.361  34.444  51.309  0.00  0.00     0.002 A 
ATOM     13  C   UNL d   1      48.852  34.447  50.672  0.00  0.00     0.000 A 
ENDROOT
BRANCH   6  14
ATOM     14  N   UNL d   1      50.381  34.440  52.591  0.00  0.00    -0.208 NA
ATOM     15  C   UNL d   1      50.660  34.080  53.267  0.00  0.00     0.279 C 
ATOM     16  O   UNL d   1      50.244  34.091  53.953  0.00  0.00    -0.265 OA
BRANCH  15  17
ATOM     17  C   UNL d   1      51.362  33.709  53.242  0.00  0.00     0.060 A 
ATOM     18  C   UNL d   1      51.977  34.145  53.399  0.00  0.00     0.031 A 
ATOM     19  C   UNL d   1      52.777  33.755  53.378  0.00  0.00     0.116 A 
ATOM     20  C   UNL d   1      52.828  32.945  53.192  0.00  0.00     0.116 A 
ATOM     21  C   UNL d   1      52.152  32.519  53.032  0.00  0.00     0.026 A 
ATOM     22  C   UNL d   1      51.409  32.906  53.057  0.00  0.00     0.007 A 
BRANCH  19  23
ATOM     23  O   UNL d   1      53.440  34.155  53.531  0.00  0.00    -0.326 OA
ATOM     24  C   UNL d   1      53.400  34.865  53.936  0.00  0.00     0.181 C 
ENDBRANCH  19  23
BRANCH  20  25
ATOM     25  O   UNL d   1      53.571  32.563  53.167  0.00  0.00    -0.326 OA
ATOM     26  C   UNL d   1      53.621  31.752  53.324  0.00  0.00     0.181 C 
ENDBRANCH  20  25
ENDBRANCH  15  17
ENDBRANCH   6  14
BRANCH   1  27
ATOM     27  C   UNL d   1      47.211  36.385  53.451  0.00  0.00     0.083 C 
ATOM     28  C   UNL d   1      46.483  36.710  53.575  0.00  0.00     0.021 C 
ENDBRANCH   1  27
TORSDOF 5
ENDMDL
MODEL 3
REMARK VINA RESULT:      -6.1      9.859     10.983
REMARK  5 active torsions:
REMARK  status: ('A' for Active; 'I' for Inactive)
REMARK    1  A    between atoms: C_20  and  N_1 
REMARK       I    between atoms: C_6  and  N_7 
REMARK    2  A    between atoms: C_10  and  C_6 
REMARK    3  A    between atoms: N_7  and  C_8 
REMARK    4  A    between atoms: O_22  and  C_13 
REMARK    5  A    between atoms: O_23  and  C_16 
ROOT
ATOM      1  N   UNL d   1      44.674  30.502  59.089  0.00  0.00    -0.273 N 
ATOM      2  C   UNL d   1      44.682  31.072  58.234  0.00  0.00     0.265 A 
ATOM      3  C   UNL d   1      44.648  29.685  58.760  0.00  0.00     0.067 A 
ATOM      4  C   UNL d   1      44.642  29.702  57.977  0.00  0.00     0.022 A 
ATOM      5  C   UNL d   1      44.659  30.433  57.592  0.00  0.00     0.058 A 
ATOM      6  C   UNL d   1      44.602  28.297  57.915  0.00  0.00     0.085 A 
ATOM      7  C   UNL d   1      44.619  29.012  57.556  0.00  0.00     0.019 A 
ATOM      8  C   UNL d   1      44.630  28.927  59.158  0.00  0.00     0.019 A 
ATOM      9  O   UNL d   1      44.704  31.864  58.208  0.00  0.00    -0.267 OA
ATOM     10  C   UNL d   1      44.608  28.270  58.739  0.00  0.00     0.021 A 
ATOM     11  C   UNL d   1      44.652  30.453  56.785  0.00  0.00     0.005 A 
ATOM     12  C   UNL d   1      44.612  29.028  56.720  0.00  0.00     0.002 A 
ATOM     13  C   UNL d   1      44.629  29.750  56.342  0.00  0.00     0.000 A 
ENDROOT
BRANCH   6  14
ATOM     14  N   UNL d   1      44.578  27.578  57.484  0.00  0.00    -0.208 NA
ATOM     15  C   UNL d   1      44.849  26.902  57.848  0.00  0.00     0.279 C 
ATOM     16  O   UNL d   1      45.132  26.911  58.598  0.00  0.00    -0.265 OA
BRANCH  15  17
ATOM     17  C   UNL d   1      44.829  26.217  57.446  0.00  0.00     0.060 A 
ATOM     18  C   UNL d   1      44.587  25.602  57.842  0.00  0.00     0.031 A 
ATOM     19  C   UNL d   1      44.555  24.821  57.416  0.00  0.00     0.116 A 
ATOM     20  C   UNL d   1      44.786  24.786  56.617  0.00  0.00     0.116 A 
ATOM     21  C   UNL d   1      45.037  25.460  56.234  0.00  0.00     0.026 A 
ATOM     22  C   UNL d   1      45.059  26.185  56.654  0.00  0.00     0.007 A 
BRANCH  19  23
ATOM     23  O   UNL d   1      44.314  24.160  57.774  0.00  0.00    -0.326 OA
ATOM     24  C   UNL d   1      44.330  24.114  58.591  0.00  0.00     0.181 C 
ENDBRANCH  19  23
BRANCH  20  25
ATOM     25  O   UNL d   1      44.763  24.061  56.202  0.00  0.00    -0.326 OA
ATOM     26  C   UNL d   1      44.956  24.042  55.397  0.00  0.00     0.181 C 
ENDBRANCH  20  25
ENDBRANCH  15  17
ENDBRANCH   6  14
BRANCH   1  27
ATOM     27  C   UNL d   1      44.679  30.403  60.049  0.00  0.00     0.083 C 
ATOM     28  C   UNL d   1      44.532  31.042  60.519  0.00  0.00     0.021 C 
ENDBRANCH   1  27
TORSDOF 5
ENDMDL
MODEL 4
REMARK VINA RESULT:      -5.9     10.773     11.553
REMARK  5 active torsions:
REMARK  status: ('A' for Active; 'I' for Inactive)
REMARK    1  A    between atoms: C_20  and  N_1 
REMARK       I    between atoms: C_6  and  N_7 
REMARK    2  A    between atoms: C_10  and  C_6 
REMARK    3  A    between atoms: N_7  and  C_8 
REMARK    4  A    between atoms: O_22  and  C_13 
REMARK    5  A    between atoms: O_23  and  C_16 
ROOT
ATOM      1  N   UNL d   1      44.620  23.481  57.603  0.00  0.00    -0.273 N 
ATOM      2  C   UNL d   1      44.496  23.497  56.582  0.00  0.00     0.265 A 
ATOM      3  C   UNL d   1      44.619  24.342  57.797  0.00  0.00     0.067 A 
ATOM      4  C   UNL d   1      44.529  24.772  57.149  0.00  0.00     0.022 A 
ATOM      5  C   UNL d   1      44.452  24.388  56.421  0.00  0.00     0.058 A 
ATOM      6  C   UNL d   1      44.586  25.964  57.894  0.00  0.00     0.085 A 
ATOM      7  C   UNL d   1      44.512  25.578  57.195  0.00  0.00     0.019 A 
ATOM      8  C   UNL d   1      44.699  24.740  58.551  0.00  0.00     0.019 A 
ATOM      9  O   UNL d   1      44.457  22.860  56.113  0.00  0.00    -0.267 OA
ATOM     10  C   UNL d   1      44.681  25.518  58.581  0.00  0.00     0.021 A 
ATOM     11  C   UNL d   1      44.359  24.830  55.752  0.00  0.00     0.005 A 
ATOM     12  C   UNL d   1      44.416  26.039  56.505  0.00  0.00     0.002 A 
ATOM     13  C   UNL d   1      44.340  25.660  55.788  0.00  0.00     0.000 A 
ENDROOT
BRANCH   6  14
ATOM     14  N   UNL d   1      44.570  26.800  57.949  0.00  0.00    -0.208 NA
ATOM     15  C   UNL d   1      45.043  27.158  58.508  0.00  0.00     0.279 C 
ATOM     16  O   UNL d   1      45.515  26.732  58.997  0.00  0.00    -0.265 OA
BRANCH  15  17
ATOM     17  C   UNL d   1      45.033  27.950  58.566  0.00  0.00     0.060 A 
ATOM     18  C   UNL d   1      44.784  28.234  59.238  0.00  0.00     0.031 A 
ATOM     19  C   UNL d   1      44.763  29.119  59.331  0.00  0.00     0.116 A 
ATOM     20  C   UNL d   1      45.010  29.599  58.697  0.00  0.00     0.116 A 
ATOM     21  C   UNL d   1      45.266  29.259  58.003  0.00  0.00     0.026 A 
ATOM     22  C   UNL d   1      45.278  28.423  57.936  0.00  0.00     0.007 A 
BRANCH  19  23
ATOM     23  O   UNL d   1      44.516  29.462  59.998  0.00  0.00    -0.326 OA
ATOM     24  C   UNL d   1      44.316  28.998  60.641  0.00  0.00     0.181 C 
ENDBRANCH  19  23
BRANCH  20  25
ATOM     25  O   UNL d   1      44.996  30.432  58.767  0.00  0.00    -0.326 OA
ATOM     26  C   UNL d   1      45.011  30.901  58.086  0.00  0.00     0.181 C 
ENDBRANCH  20  25
ENDBRANCH  15  17
ENDBRANCH   6  14
BRANCH   1  27
ATOM     27  C   UNL d   1      44.734  23.018  58.442  0.00  0.00     0.083 C 
ATOM     28  C   UNL d   1      44.674  22.214  58.467  0.00  0.00     0.021 C 
ENDBRANCH   1  27
TORSDOF 5
ENDMDL
