MODEL 1
REMARK VINA RESULT:      29.2      0.000      0.000
REMARK  5 active torsions:
REMARK  status: ('A' for Active; 'I' for Inactive)
REMARK    1  A    between atoms: C_7  and  N_2 
REMARK    2  A    between atoms: C_8  and  C_7 
REMARK    3  A    between atoms: C_13  and  C_8 
REMARK    4  A    between atoms: C_9  and  O_11 
REMARK    5  A    between atoms: O_11  and  C_13 
ROOT
ATOM      1  C   UNL d   1     -58.540 -98.991 -43.987  0.00  0.00     0.378 A 
ATOM      2  N   UNL d   1     -57.954 -98.865 -44.563  0.00  0.00    -0.251 N 
ATOM      3  O   UNL d   1     -59.262 -99.071 -44.372  0.00  0.00    -0.258 OA
ATOM      4  C   UNL d   1     -58.328 -98.868 -45.305  0.00  0.00     0.092 A 
ATOM      5  C   UNL d   1     -59.135 -98.995 -45.185  0.00  0.00     0.121 A 
ATOM      6  O   UNL d   1     -58.410 -99.029 -43.175  0.00  0.00    -0.237 OA
ATOM      7  C   UNL d   1     -58.028 -98.770 -46.066  0.00  0.00     0.020 A 
ATOM      8  C   UNL d   1     -59.651 -99.025 -45.838  0.00  0.00     0.026 A 
ATOM      9  C   UNL d   1     -58.543 -98.800 -46.715  0.00  0.00     0.002 A 
ATOM     10  C   UNL d   1     -59.354 -98.928 -46.601  0.00  0.00     0.002 A 
ENDROOT
BRANCH   2  11
ATOM     11  C   UNL d   1     -57.156 -98.757 -44.423  0.00  0.00     0.087 C 
BRANCH  11  12
ATOM     12  C   UNL d   1     -56.596 -99.240 -44.783  0.00  0.00     0.046 C 
BRANCH  12  13
ATOM     13  C   UNL d   1     -55.832 -99.275 -44.500  0.00  0.00     0.124 C 
BRANCH  13  14
ATOM     14  O   UNL d   1     -55.273 -99.760 -44.857  0.00  0.00    -0.305 OA
BRANCH  14  15
ATOM     15  C   UNL d   1     -55.087-100.500 -44.536  0.00  0.00     0.100 A 
ATOM     16  C   UNL d   1     -55.007-101.150 -45.025  0.00  0.00     0.025 A 
ATOM     17  C   UNL d   1     -54.821-101.890 -44.704  0.00  0.00     0.002 A 
ATOM     18  C   UNL d   1     -54.717-101.966 -43.894  0.00  0.00     0.000 A 
ATOM     19  C   UNL d   1     -54.798-101.308 -43.400  0.00  0.00     0.002 A 
ATOM     20  C   UNL d   1     -54.984-100.568 -43.721  0.00  0.00     0.025 A 
ENDBRANCH  14  15
ENDBRANCH  13  14
ENDBRANCH  12  13
ENDBRANCH  11  12
ENDBRANCH   2  11
TORSDOF 5
ENDMDL
