MODEL 1
REMARK VINA RESULT:      -2.0      0.000      0.000
REMARK  3 active torsions:
REMARK  status: ('A' for Active; 'I' for Inactive)
REMARK    1  A    between atoms: C_11  and  N_2 
REMARK    2  A    between atoms: C_9  and  N_3 
REMARK    3  A    between atoms: C_10  and  C_12 
ROOT
ATOM      1  C   UNL d   1      56.887  -0.067  31.450  0.00  0.00     0.339 A 
ATOM      2  N   UNL d   1      56.845   0.046  32.264  0.00  0.00    -0.258 N 
ATOM      3  N   UNL d   1      57.669   0.058  31.205  0.00  0.00    -0.258 N 
ATOM      4  S   UNL d   1      58.830   0.557  32.955  0.00  0.00     0.214 S 
ATOM      5  C   UNL d   1      57.611   0.244  32.536  0.00  0.00     0.097 A 
ATOM      6  C   UNL d   1      58.114   0.249  31.874  0.00  0.00     0.097 A 
ATOM      7  C   UNL d   1      58.058   0.434  33.198  0.00  0.00     0.118 A 
ATOM      8  C   UNL d   1      58.872   0.445  32.145  0.00  0.00     0.118 A 
ATOM      9  O   UNL d   1      56.255  -0.270  30.954  0.00  0.00    -0.245 OA
ATOM     10  O   UNL d   1      59.617   0.681  32.706  0.00  0.00    -0.217 OA
ATOM     11  O   UNL d   1      58.846   0.682  33.774  0.00  0.00    -0.217 OA
ENDROOT
BRANCH   3  12
ATOM     12  C   UNL d   1      57.955   0.001  30.431  0.00  0.00     0.068 A 
ATOM     13  C   UNL d   1      58.292  -0.701  30.163  0.00  0.00     0.021 A 
ATOM     14  C   UNL d   1      58.578  -0.762  29.397  0.00  0.00     0.073 A 
ATOM     15  C   UNL d   1      58.526  -0.112  28.890  0.00  0.00     0.004 A 
ATOM     16  C   UNL d   1      58.189   0.597  29.150  0.00  0.00     0.001 A 
ATOM     17  C   UNL d   1      57.903   0.651  29.924  0.00  0.00     0.018 A 
BRANCH  14  18
ATOM     18  C   UNL d   1      58.916  -1.467  29.129  0.00  0.00     0.419 C 
ATOM     19  F   UNL d   1      59.221  -2.112  28.883  0.00  0.00    -0.166 F 
ATOM     20  F   UNL d   1      58.567  -2.085  28.632  0.00  0.00    -0.166 F 
ATOM     21  F   UNL d   1      59.705  -1.784  29.269  0.00  0.00    -0.166 F 
ENDBRANCH  14  18
ENDBRANCH   3  12
BRANCH   2  22
ATOM     22  C   UNL d   1      56.169  -0.023  32.738  0.00  0.00     0.068 A 
ATOM     23  C   UNL d   1      55.901  -0.769  32.965  0.00  0.00     0.016 A 
ATOM     24  C   UNL d   1      56.300  -1.448  32.725  0.00  0.00     0.002 C 
ATOM     25  C   UNL d   1      55.223  -0.825  33.440  0.00  0.00     0.001 A 
ATOM     26  C   UNL d   1      54.824  -0.147  33.680  0.00  0.00     0.000 A 
ATOM     27  C   UNL d   1      55.097   0.595  33.450  0.00  0.00     0.002 A 
ATOM     28  C   UNL d   1      55.770   0.655  32.979  0.00  0.00     0.018 A 
ENDBRANCH   2  22
TORSDOF 3
ENDMDL
MODEL 2
REMARK VINA RESULT:      -1.5      2.628      4.540
REMARK  3 active torsions:
REMARK  status: ('A' for Active; 'I' for Inactive)
REMARK    1  A    between atoms: C_11  and  N_2 
REMARK    2  A    between atoms: C_9  and  N_3 
REMARK    3  A    between atoms: C_10  and  C_12 
ROOT
ATOM      1  C   UNL d   1      58.567  -1.598  29.795  0.00  0.00     0.339 A 
ATOM      2  N   UNL d   1      59.216  -1.863  29.365  0.00  0.00    -0.258 N 
ATOM      3  N   UNL d   1      58.633  -0.779  29.900  0.00  0.00    -0.258 N 
ATOM      4  S   UNL d   1      60.456  -0.143  28.933  0.00  0.00     0.214 S 
ATOM      5  C   UNL d   1      59.699  -1.200  29.195  0.00  0.00     0.097 A 
ATOM      6  C   UNL d   1      59.330  -0.535  29.530  0.00  0.00     0.097 A 
ATOM      7  C   UNL d   1      60.391  -0.953  28.830  0.00  0.00     0.118 A 
ATOM      8  C   UNL d   1      59.809   0.120  29.362  0.00  0.00     0.118 A 
ATOM      9  O   UNL d   1      57.947  -2.070  30.079  0.00  0.00    -0.245 OA
ATOM     10  O   UNL d   1      60.521   0.682  29.039  0.00  0.00    -0.217 OA
ATOM     11  O   UNL d   1      61.129  -0.353  28.498  0.00  0.00    -0.217 OA
ENDROOT
BRANCH   3  12
ATOM     12  C   UNL d   1      58.099  -0.290  30.301  0.00  0.00     0.068 A 
ATOM     13  C   UNL d   1      58.104  -0.259  31.124  0.00  0.00     0.021 A 
ATOM     14  C   UNL d   1      57.577   0.224  31.527  0.00  0.00     0.073 A 
ATOM     15  C   UNL d   1      57.038   0.682  31.102  0.00  0.00     0.004 A 
ATOM     16  C   UNL d   1      57.026   0.657  30.275  0.00  0.00     0.001 A 
ATOM     17  C   UNL d   1      57.560   0.168  29.876  0.00  0.00     0.018 A 
BRANCH  14  18
ATOM     18  C   UNL d   1      57.582   0.254  32.353  0.00  0.00     0.419 C 
ATOM     19  F   UNL d   1      57.583   0.279  33.107  0.00  0.00    -0.166 F 
ATOM     20  F   UNL d   1      56.980  -0.019  32.913  0.00  0.00    -0.166 F 
ATOM     21  F   UNL d   1      58.184   0.563  32.886  0.00  0.00    -0.166 F 
ENDBRANCH  14  18
ENDBRANCH   3  12
BRANCH   2  22
ATOM     22  C   UNL d   1      59.372  -2.643  29.136  0.00  0.00     0.068 A 
ATOM     23  C   UNL d   1      58.820  -3.056  28.682  0.00  0.00     0.016 A 
ATOM     24  C   UNL d   1      58.115  -2.699  28.455  0.00  0.00     0.002 C 
ATOM     25  C   UNL d   1      58.987  -3.837  28.459  0.00  0.00     0.001 A 
ATOM     26  C   UNL d   1      59.693  -4.194  28.686  0.00  0.00     0.000 A 
ATOM     27  C   UNL d   1      60.239  -3.776  29.138  0.00  0.00     0.002 A 
ATOM     28  C   UNL d   1      60.078  -3.001  29.362  0.00  0.00     0.018 A 
ENDBRANCH   2  22
TORSDOF 3
ENDMDL
MODEL 3
REMARK VINA RESULT:      -0.0      2.470      4.603
REMARK  3 active torsions:
REMARK  status: ('A' for Active; 'I' for Inactive)
REMARK    1  A    between atoms: C_11  and  N_2 
REMARK    2  A    between atoms: C_9  and  N_3 
REMARK    3  A    between atoms: C_10  and  C_12 
ROOT
ATOM      1  C   UNL d   1      58.554  -0.077  30.377  0.00  0.00     0.339 A 
ATOM      2  N   UNL d   1      59.026  -0.456  29.820  0.00  0.00    -0.258 N 
ATOM      3  N   UNL d   1      57.929  -0.582  30.582  0.00  0.00    -0.258 N 
ATOM      4  S   UNL d   1      58.159  -2.402  29.445  0.00  0.00     0.214 S 
ATOM      5  C   UNL d   1      58.694  -1.210  29.671  0.00  0.00     0.097 A 
ATOM      6  C   UNL d   1      58.016  -1.279  30.147  0.00  0.00     0.097 A 
ATOM      7  C   UNL d   1      58.777  -1.904  29.242  0.00  0.00     0.118 A 
ATOM      8  C   UNL d   1      57.689  -2.025  29.999  0.00  0.00     0.118 A 
ATOM      9  O   UNL d   1      58.678   0.682  30.685  0.00  0.00    -0.245 OA
ATOM     10  O   UNL d   1      57.530  -2.908  29.652  0.00  0.00    -0.217 OA
ATOM     11  O   UNL d   1      58.598  -2.829  28.887  0.00  0.00    -0.217 OA
ENDROOT
BRANCH   3  12
ATOM     12  C   UNL d   1      57.325  -0.420  31.124  0.00  0.00     0.068 A 
ATOM     13  C   UNL d   1      57.087  -0.995  31.664  0.00  0.00     0.021 A 
ATOM     14  C   UNL d   1      56.489  -0.839  32.203  0.00  0.00     0.073 A 
ATOM     15  C   UNL d   1      56.123  -0.099  32.203  0.00  0.00     0.004 A 
ATOM     16  C   UNL d   1      56.355   0.484  31.665  0.00  0.00     0.001 A 
ATOM     17  C   UNL d   1      56.959   0.320  31.125  0.00  0.00     0.018 A 
BRANCH  14  18
ATOM     18  C   UNL d   1      56.250  -1.417  32.744  0.00  0.00     0.419 C 
ATOM     19  F   UNL d   1      56.029  -1.946  33.235  0.00  0.00    -0.166 F 
ATOM     20  F   UNL d   1      55.582  -1.966  32.696  0.00  0.00    -0.166 F 
ATOM     21  F   UNL d   1      56.597  -1.635  33.502  0.00  0.00    -0.166 F 
ENDBRANCH  14  18
ENDBRANCH   3  12
BRANCH   2  22
ATOM     22  C   UNL d   1      59.710  -0.152  29.464  0.00  0.00     0.068 A 
ATOM     23  C   UNL d   1      59.645   0.385  28.841  0.00  0.00     0.016 A 
ATOM     24  C   UNL d   1      58.905   0.622  28.570  0.00  0.00     0.002 C 
ATOM     25  C   UNL d   1      60.336   0.682  28.493  0.00  0.00     0.001 A 
ATOM     26  C   UNL d   1      61.076   0.444  28.765  0.00  0.00     0.000 A 
ATOM     27  C   UNL d   1      61.133  -0.091  29.386  0.00  0.00     0.002 A 
ATOM     28  C   UNL d   1      60.450  -0.389  29.735  0.00  0.00     0.018 A 
ENDBRANCH   2  22
TORSDOF 3
ENDMDL
