MODEL 1
REMARK VINA RESULT:       9.0      0.000      0.000
REMARK  5 active torsions:
REMARK  status: ('A' for Active; 'I' for Inactive)
REMARK    1  A    between atoms: C_4  and  C_1 
REMARK       I    between atoms: N_2  and  C_3 
REMARK    2  A    between atoms: C_6  and  N_2 
REMARK    3  A    between atoms: C_3  and  C_5 
REMARK    4  A    between atoms: C_5  and  C_7 
REMARK    5  A    between atoms: C_7  and  C_14 
ROOT
ATOM      1  C   UNL d   1      45.835 -17.063  44.182  0.00  0.00     0.062 C 
ENDROOT
BRANCH   1   2
ATOM      2  C   UNL d   1      45.923 -16.298  44.434  0.00  0.00     0.279 C 
ATOM      3  N   UNL d   1      45.402 -15.724  44.164  0.00  0.00    -0.208 NA
ATOM      4  O   UNL d   1      46.519 -16.103  44.947  0.00  0.00    -0.265 OA
BRANCH   3   5
ATOM      5  C   UNL d   1      45.490 -14.937  44.420  0.00  0.00     0.085 A 
ATOM      6  C   UNL d   1      44.820 -14.528  44.694  0.00  0.00     0.018 A 
ATOM      7  C   UNL d   1      44.085 -14.901  44.707  0.00  0.00     0.002 C 
ATOM      8  C   UNL d   1      44.895 -13.744  44.951  0.00  0.00     0.002 A 
ATOM      9  C   UNL d   1      45.625 -13.374  44.937  0.00  0.00     0.000 A 
ATOM     10  C   UNL d   1      46.283 -13.783  44.666  0.00  0.00     0.002 A 
ATOM     11  C   UNL d   1      46.220 -14.567  44.406  0.00  0.00     0.019 A 
ENDBRANCH   3   5
ENDBRANCH   1   2
BRANCH   1  12
ATOM     12  C   UNL d   1      46.507 -17.529  44.027  0.00  0.00     0.005 C 
BRANCH  12  13
ATOM     13  C   UNL d   1      46.433 -18.313  43.775  0.00  0.00     0.000 A 
ATOM     14  C   UNL d   1      46.512 -18.487  42.983  0.00  0.00     0.004 A 
ATOM     15  C   UNL d   1      46.434 -19.277  42.754  0.00  0.00     0.071 A 
ATOM     16  C   UNL d   1      46.286 -19.870  43.272  0.00  0.00     0.004 A 
ATOM     17  C   UNL d   1      46.208 -19.696  44.062  0.00  0.00    -0.000 A 
ATOM     18  C   UNL d   1      46.278 -18.935  44.321  0.00  0.00    -0.000 A 
BRANCH  15  19
ATOM     19  C   UNL d   1      46.518 -19.432  41.943  0.00  0.00     0.419 C 
ATOM     20  F   UNL d   1      46.606 -19.619  41.123  0.00  0.00    -0.166 F 
ATOM     21  F   UNL d   1      46.446 -18.656  41.762  0.00  0.00    -0.166 F 
ATOM     22  F   UNL d   1      46.596 -20.260  42.119  0.00  0.00    -0.166 F 
ENDBRANCH  15  19
ENDBRANCH  12  13
ENDBRANCH   1  12
TORSDOF 5
ENDMDL
MODEL 2
REMARK VINA RESULT:      10.7      2.608      5.129
REMARK  5 active torsions:
REMARK  status: ('A' for Active; 'I' for Inactive)
REMARK    1  A    between atoms: C_4  and  C_1 
REMARK       I    between atoms: N_2  and  C_3 
REMARK    2  A    between atoms: C_6  and  N_2 
REMARK    3  A    between atoms: C_3  and  C_5 
REMARK    4  A    between atoms: C_5  and  C_7 
REMARK    5  A    between atoms: C_7  and  C_14 
ROOT
ATOM      1  C   UNL d   1      45.845 -15.566  43.939  0.00  0.00     0.062 C 
ENDROOT
BRANCH   1   2
ATOM      2  C   UNL d   1      46.088 -16.312  44.144  0.00  0.00     0.279 C 
ATOM      3  N   UNL d   1      45.886 -16.946  43.664  0.00  0.00    -0.208 NA
ATOM      4  O   UNL d   1      46.526 -16.429  44.816  0.00  0.00    -0.265 OA
BRANCH   3   5
ATOM      5  C   UNL d   1      46.134 -17.713  43.870  0.00  0.00     0.085 A 
ATOM      6  C   UNL d   1      46.383 -18.230  43.269  0.00  0.00     0.018 A 
ATOM      7  C   UNL d   1      46.381 -17.980  42.483  0.00  0.00     0.002 C 
ATOM      8  C   UNL d   1      46.632 -18.996  43.463  0.00  0.00     0.002 A 
ATOM      9  C   UNL d   1      46.633 -19.242  44.244  0.00  0.00     0.000 A 
ATOM     10  C   UNL d   1      46.386 -18.728  44.833  0.00  0.00     0.002 A 
ATOM     11  C   UNL d   1      46.135 -17.960  44.651  0.00  0.00     0.019 A 
ENDBRANCH   3   5
ENDBRANCH   1   2
BRANCH   1  12
ATOM     12  C   UNL d   1      45.569 -15.045  44.525  0.00  0.00     0.005 C 
BRANCH  12  13
ATOM     13  C   UNL d   1      45.575 -14.226  44.404  0.00  0.00     0.000 A 
ATOM     14  C   UNL d   1      45.190 -13.915  43.759  0.00  0.00     0.004 A 
ATOM     15  C   UNL d   1      45.209 -13.094  43.658  0.00  0.00     0.071 A 
ATOM     16  C   UNL d   1      45.587 -12.601  44.164  0.00  0.00     0.004 A 
ATOM     17  C   UNL d   1      45.972 -12.913  44.809  0.00  0.00    -0.000 A 
ATOM     18  C   UNL d   1      45.973 -13.710  44.938  0.00  0.00    -0.000 A 
BRANCH  15  19
ATOM     19  C   UNL d   1      44.810 -12.798  42.994  0.00  0.00     0.419 C 
ATOM     20  F   UNL d   1      44.380 -12.489  42.335  0.00  0.00    -0.166 F 
ATOM     21  F   UNL d   1      45.434 -12.957  42.518  0.00  0.00    -0.166 F 
ATOM     22  F   UNL d   1      44.140 -12.623  43.486  0.00  0.00    -0.166 F 
ENDBRANCH  15  19
ENDBRANCH  12  13
ENDBRANCH   1  12
TORSDOF 5
ENDMDL
