MODEL 1
REMARK VINA RESULT:      -0.5      0.000      0.000
REMARK  6 active torsions:
REMARK  status: ('A' for Active; 'I' for Inactive)
REMARK    1  A    between atoms: C_6  and  C_1 
REMARK    2  A    between atoms: C_8  and  N_2 
REMARK    3  A    between atoms: C_12  and  C_5 
REMARK    4  A    between atoms: C_7  and  C_6 
REMARK    5  A    between atoms: C_18  and  C_8 
REMARK    6  A    between atoms: N_10  and  C_18 
ROOT
ATOM      1  C   UNL d   1      30.466  16.899 -24.557  0.00  0.00     0.099 A 
ATOM      2  N   UNL d   1      31.363  17.878 -24.374  0.00  0.00    -0.269 N 
ATOM      3  C   UNL d   1      30.103  17.598 -24.798  0.00  0.00     0.256 A 
ATOM      4  C   UNL d   1      30.653  18.196 -24.686  0.00  0.00     0.304 A 
ATOM      5  C   UNL d   1      31.223  17.067 -24.302  0.00  0.00     0.073 A 
ATOM      6  O   UNL d   1      30.532  18.990 -24.851  0.00  0.00    -0.263 OA
ATOM      7  O   UNL d   1      29.334  17.675 -25.095  0.00  0.00    -0.281 OA
ENDROOT
BRANCH   2   8
ATOM      8  C   UNL d   1      32.063  18.281 -24.175  0.00  0.00     0.102 C 
BRANCH   8   9
ATOM      9  C   UNL d   1      32.108  19.090 -24.288  0.00  0.00     0.100 C 
BRANCH   9  10
ATOM     10  N   UNL d   1      32.483  19.570 -23.737  0.00  0.00    -0.298 N 
ATOM     11  C   UNL d   1      32.697  20.356 -23.969  0.00  0.00     0.107 A 
ATOM     12  C   UNL d   1      33.080  20.855 -23.415  0.00  0.00     0.142 A 
ATOM     13  O   UNL d   1      33.241  20.565 -22.650  0.00  0.00    -0.300 OA
ATOM     14  C   UNL d   1      33.033  19.802 -22.426  0.00  0.00     0.142 A 
ATOM     15  C   UNL d   1      32.646  19.300 -22.985  0.00  0.00     0.107 A 
ENDBRANCH   9  10
ENDBRANCH   8   9
ENDBRANCH   2   8
BRANCH   5  16
ATOM     16  C   UNL d   1      31.780  16.527 -24.013  0.00  0.00     0.016 A 
ATOM     17  C   UNL d   1      32.187  16.035 -24.535  0.00  0.00     0.001 A 
ATOM     18  C   UNL d   1      32.737  15.501 -24.252  0.00  0.00     0.000 A 
ATOM     19  C   UNL d   1      32.888  15.453 -23.436  0.00  0.00     0.000 A 
ATOM     20  C   UNL d   1      32.477  15.947 -22.923  0.00  0.00     0.000 A 
ATOM     21  C   UNL d   1      31.920  16.488 -23.217  0.00  0.00     0.001 A 
ENDBRANCH   5  16
BRANCH   1  22
ATOM     22  C   UNL d   1      30.108  16.156 -24.576  0.00  0.00     0.206 C 
ATOM     23  O   UNL d   1      30.377  15.596 -25.097  0.00  0.00    -0.286 OA
BRANCH  22  24
ATOM     24  C   UNL d   1      29.466  15.978 -24.057  0.00  0.00     0.069 A 
ATOM     25  S   UNL d   1      28.708  15.734 -24.284  0.00  0.00    -0.083 SA
ATOM     26  C   UNL d   1      28.262  15.624 -23.599  0.00  0.00     0.035 A 
ATOM     27  C   UNL d   1      28.731  15.795 -22.948  0.00  0.00     0.008 A 
ATOM     28  C   UNL d   1      29.480  16.016 -23.234  0.00  0.00     0.010 A 
ENDBRANCH  22  24
ENDBRANCH   1  22
TORSDOF 6
ENDMDL
MODEL 2
REMARK VINA RESULT:       0.6      3.423      6.591
REMARK  6 active torsions:
REMARK  status: ('A' for Active; 'I' for Inactive)
REMARK    1  A    between atoms: C_6  and  C_1 
REMARK    2  A    between atoms: C_8  and  N_2 
REMARK    3  A    between atoms: C_12  and  C_5 
REMARK    4  A    between atoms: C_7  and  C_6 
REMARK    5  A    between atoms: C_18  and  C_8 
REMARK    6  A    between atoms: N_10  and  C_18 
ROOT
ATOM      1  C   UNL d   1      32.446  22.127 -20.697  0.00  0.00     0.099 A 
ATOM      2  N   UNL d   1      32.880  21.222 -21.584  0.00  0.00    -0.269 N 
ATOM      3  C   UNL d   1      32.588  21.434 -20.275  0.00  0.00     0.256 A 
ATOM      4  C   UNL d   1      32.853  20.882 -20.819  0.00  0.00     0.304 A 
ATOM      5  C   UNL d   1      32.622  22.000 -21.483  0.00  0.00     0.073 A 
ATOM      6  O   UNL d   1      33.063  20.108 -20.646  0.00  0.00    -0.263 OA
ATOM      7  O   UNL d   1      32.482  21.325 -19.461  0.00  0.00    -0.281 OA
ENDROOT
BRANCH   2   8
ATOM      8  C   UNL d   1      33.114  20.864 -22.298  0.00  0.00     0.102 C 
BRANCH   8   9
ATOM      9  C   UNL d   1      33.240  20.056 -22.322  0.00  0.00     0.100 C 
BRANCH   9  10
ATOM     10  N   UNL d   1      33.084  19.627 -23.004  0.00  0.00    -0.298 N 
ATOM     11  C   UNL d   1      32.820  18.827 -22.923  0.00  0.00     0.107 A 
ATOM     12  C   UNL d   1      32.657  18.378 -23.613  0.00  0.00     0.142 A 
ATOM     13  O   UNL d   1      32.759  18.733 -24.361  0.00  0.00    -0.300 OA
ATOM     14  C   UNL d   1      33.015  19.509 -24.438  0.00  0.00     0.142 A 
ATOM     15  C   UNL d   1      33.179  19.960 -23.742  0.00  0.00     0.107 A 
ENDBRANCH   9  10
ENDBRANCH   8   9
ENDBRANCH   2   8
BRANCH   5  16
ATOM     16  C   UNL d   1      32.558  22.548 -22.100  0.00  0.00     0.016 A 
ATOM     17  C   UNL d   1      33.234  22.804 -22.496  0.00  0.00     0.001 A 
ATOM     18  C   UNL d   1      33.174  23.345 -23.106  0.00  0.00     0.000 A 
ATOM     19  C   UNL d   1      32.429  23.639 -23.328  0.00  0.00     0.000 A 
ATOM     20  C   UNL d   1      31.760  23.379 -22.927  0.00  0.00     0.000 A 
ATOM     21  C   UNL d   1      31.828  22.829 -22.309  0.00  0.00     0.001 A 
ENDBRANCH   5  16
BRANCH   1  22
ATOM     22  C   UNL d   1      32.171  22.830 -20.363  0.00  0.00     0.206 C 
ATOM     23  O   UNL d   1      31.634  23.282 -20.768  0.00  0.00    -0.286 OA
BRANCH  22  24
ATOM     24  C   UNL d   1      32.446  23.078 -19.603  0.00  0.00     0.069 A 
ATOM     25  S   UNL d   1      33.227  23.266 -19.404  0.00  0.00    -0.083 SA
ATOM     26  C   UNL d   1      33.240  23.478 -18.607  0.00  0.00     0.035 A 
ATOM     27  C   UNL d   1      32.479  23.425 -18.306  0.00  0.00     0.008 A 
ATOM     28  C   UNL d   1      31.985  23.176 -18.926  0.00  0.00     0.010 A 
ENDBRANCH  22  24
ENDBRANCH   1  22
TORSDOF 6
ENDMDL
