MODEL 1
REMARK VINA RESULT:      56.8      0.000      0.000
REMARK  7 active torsions:
REMARK  status: ('A' for Active; 'I' for Inactive)
REMARK    1  A    between atoms: N_8  and  C_3 
REMARK    2  A    between atoms: C_10  and  C_5 
REMARK    3  A    between atoms: C_15  and  N_8 
REMARK    4  A    between atoms: N_12  and  C_10 
REMARK    5  A    between atoms: C_21  and  N_12 
REMARK    6  A    between atoms: O_22  and  C_16 
REMARK    7  A    between atoms: C_23  and  C_21 
ROOT
ATOM      1  N   UNL d   1      46.311 -17.926  43.354  0.00  0.00    -0.209 NA
ATOM      2  N   UNL d   1      46.430 -19.308  42.999  0.00  0.00    -0.258 N 
ATOM      3  C   UNL d   1      46.412 -17.704  42.573  0.00  0.00     0.170 A 
ATOM      4  C   UNL d   1      46.319 -18.731  43.578  0.00  0.00     0.152 A 
ATOM      5  C   UNL d   1      46.523 -18.282  41.994  0.00  0.00     0.111 A 
ATOM      6  C   UNL d   1      46.533 -19.081  42.198  0.00  0.00     0.270 A 
ATOM      7  C   UNL d   1      46.219 -18.952  44.359  0.00  0.00     0.035 A 
ATOM      8  C   UNL d   1      46.440 -20.108  43.203  0.00  0.00     0.084 A 
ATOM      9  O   UNL d   1      46.646 -19.655  41.603  0.00  0.00    -0.266 OA
ATOM     10  C   UNL d   1      46.340 -20.330  43.984  0.00  0.00     0.019 A 
ATOM     11  C   UNL d   1      46.229 -19.751  44.563  0.00  0.00     0.005 A 
ATOM     12  C   UNL d   1      46.106 -18.379  44.954  0.00  0.00     0.003 C 
ENDROOT
BRANCH   3  13
ATOM     13  N   UNL d   1      46.400 -16.884  42.374  0.00  0.00    -0.227 NA
BRANCH  13  14
ATOM     14  C   UNL d   1      46.201 -16.320  42.933  0.00  0.00     0.083 A 
ATOM     15  C   UNL d   1      45.629 -16.508  43.487  0.00  0.00     0.021 A 
ATOM     16  C   UNL d   1      45.417 -15.940  44.063  0.00  0.00     0.026 A 
ATOM     17  C   UNL d   1      45.777 -15.212  44.070  0.00  0.00     0.094 A 
ATOM     18  C   UNL d   1      46.351 -15.020  43.517  0.00  0.00     0.026 A 
ATOM     19  C   UNL d   1      46.562 -15.569  42.952  0.00  0.00     0.021 A 
BRANCH  17  20
ATOM     20  O   UNL d   1      45.548 -14.649  44.663  0.00  0.00    -0.328 OA
ATOM     21  C   UNL d   1      45.642 -13.824  44.517  0.00  0.00     0.181 C 
ENDBRANCH  17  20
ENDBRANCH  13  14
ENDBRANCH   3  13
BRANCH   5  22
ATOM     22  C   UNL d   1      46.625 -18.057  41.201  0.00  0.00     0.107 C 
BRANCH  22  23
ATOM     23  N   UNL d   1      45.974 -17.806  40.760  0.00  0.00    -0.242 NA
BRANCH  23  24
ATOM     24  C   UNL d   1      45.940 -17.969  39.958  0.00  0.00     0.099 C 
BRANCH  24  25
ATOM     25  C   UNL d   1      45.483 -17.492  39.463  0.00  0.00     0.019 A 
ATOM     26  C   UNL d   1      44.669 -17.573  39.459  0.00  0.00     0.002 A 
ATOM     27  C   UNL d   1      44.212 -17.097  38.964  0.00  0.00     0.000 A 
ATOM     28  C   UNL d   1      44.570 -16.539  38.474  0.00  0.00     0.000 A 
ATOM     29  C   UNL d   1      45.385 -16.457  38.478  0.00  0.00     0.000 A 
ATOM     30  C   UNL d   1      45.841 -16.934  38.972  0.00  0.00     0.002 A 
ENDBRANCH  24  25
ENDBRANCH  23  24
ENDBRANCH  22  23
ENDBRANCH   5  22
TORSDOF 7
ENDMDL
