MODEL 1
REMARK VINA RESULT:      38.5      0.000      0.000
REMARK  4 active torsions:
REMARK  status: ('A' for Active; 'I' for Inactive)
REMARK    1  A    between atoms: C_2  and  S_1 
REMARK    2  A    between atoms: N_3  and  S_1 
REMARK    3  A    between atoms: C_16  and  C_7 
REMARK    4  A    between atoms: O_17  and  C_8 
ROOT
ATOM      1  C   UNL d   1      60.110  49.624  51.080  0.00  0.00     0.126 A 
ATOM      2  C   UNL d   1      60.286  49.594  51.883  0.00  0.00     0.015 A 
ATOM      3  C   UNL d   1      61.067  49.617  52.125  0.00  0.00     0.001 A 
ATOM      4  C   UNL d   1      60.704  49.677  50.520  0.00  0.00     0.106 A 
ATOM      5  C   UNL d   1      61.674  49.671  51.569  0.00  0.00     0.002 A 
ATOM      6  C   UNL d   1      61.490  49.701  50.764  0.00  0.00     0.025 A 
ENDROOT
BRANCH   1   7
ATOM      7  S   UNL d   1      59.321  49.600  50.832  0.00  0.00     0.273 S 
ATOM      8  O   UNL d   1      59.072  49.688  51.615  0.00  0.00    -0.200 OA
ATOM      9  O   UNL d   1      59.571  49.513  50.048  0.00  0.00    -0.200 OA
BRANCH   7  10
ATOM     10  N   UNL d   1      58.533  49.577  50.583  0.00  0.00    -0.226 N 
ATOM     11  C   UNL d   1      58.346  49.698  49.789  0.00  0.00     0.111 A 
ATOM     12  C   UNL d   1      57.567  49.675  49.539  0.00  0.00     0.100 A 
ATOM     13  N   UNL d   1      56.958  49.531  50.082  0.00  0.00    -0.299 N 
ATOM     14  C   UNL d   1      57.143  49.409  50.880  0.00  0.00     0.100 A 
ATOM     15  C   UNL d   1      56.172  49.509  49.825  0.00  0.00     0.100 C 
ATOM     16  C   UNL d   1      57.932  49.433  51.129  0.00  0.00     0.111 A 
ENDBRANCH   7  10
ENDBRANCH   1   7
BRANCH   4  17
ATOM     17  O   UNL d   1      60.511  49.706  49.712  0.00  0.00    -0.327 OA
ATOM     18  C   UNL d   1      61.021  49.365  49.163  0.00  0.00     0.181 C 
ENDBRANCH   4  17
BRANCH   3  19
ATOM     19  C   UNL d   1      61.248  49.587  52.930  0.00  0.00     0.000 C 
ATOM     20  C   UNL d   1      60.661  49.705  53.492  0.00  0.00     0.000 C 
ATOM     21  C   UNL d   1      62.026  49.438  53.166  0.00  0.00     0.000 C 
ENDBRANCH   3  19
TORSDOF 4
ENDMDL
