MODEL 1
REMARK VINA RESULT:      -4.7      0.000      0.000
REMARK  6 active torsions:
REMARK  status: ('A' for Active; 'I' for Inactive)
REMARK    1  A    between atoms: C_21  and  N_1 
REMARK       I    between atoms: N_7  and  C_10 
REMARK    2  A    between atoms: C_15  and  N_8 
REMARK    3  A    between atoms: C_10  and  C_27 
REMARK    4  A    between atoms: C_29  and  C_21 
REMARK    5  A    between atoms: O_28  and  C_24 
REMARK    6  A    between atoms: C_27  and  C_29 
ROOT
ATOM      1  N   UNL d   1     -43.921  12.784  21.855  0.00  0.00    -0.269 N 
ATOM      2  N   UNL d   1     -45.461  12.788  22.400  0.00  0.00    -0.301 N 
ATOM      3  C   UNL d   1     -43.134  12.790  21.573  0.00  0.00     0.265 C 
ATOM      4  C   UNL d   1     -44.201  12.131  22.255  0.00  0.00     0.102 A 
ATOM      5  C   UNL d   1     -44.389  13.445  21.718  0.00  0.00     0.102 A 
ATOM      6  C   UNL d   1     -44.980  12.124  22.534  0.00  0.00     0.100 A 
ATOM      7  C   UNL d   1     -45.176  13.439  22.000  0.00  0.00     0.100 A 
ATOM      8  O   UNL d   1     -42.635  12.137  21.695  0.00  0.00    -0.267 OA
ENDROOT
BRANCH   3   9
ATOM      9  C   UNL d   1     -42.866  13.466  21.167  0.00  0.00     0.063 C 
BRANCH   9  10
ATOM     10  C   UNL d   1     -42.047  13.522  20.992  0.00  0.00     0.024 C 
BRANCH  10  11
ATOM     11  C   UNL d   1     -41.753  14.239  20.674  0.00  0.00     0.088 C 
BRANCH  11  12
ATOM     12  N   UNL d   1     -40.960  14.285  20.417  0.00  0.00    -0.224 N 
ATOM     13  C   UNL d   1     -40.761  14.135  19.619  0.00  0.00     0.276 A 
ATOM     14  C   UNL d   1     -39.972  14.184  19.381  0.00  0.00     0.104 A 
ATOM     15  O   UNL d   1     -41.343  13.943  19.088  0.00  0.00    -0.266 OA
ATOM     16  S   UNL d   1     -39.616  14.069  18.649  0.00  0.00    -0.080 SA
ATOM     17  C   UNL d   1     -39.379  14.380  19.924  0.00  0.00     0.097 A 
ATOM     18  C   UNL d   1     -38.824  14.193  18.746  0.00  0.00     0.037 A 
ATOM     19  C   UNL d   1     -38.663  14.385  19.526  0.00  0.00     0.027 A 
ATOM     20  N   UNL d   1     -39.576  14.527  20.710  0.00  0.00    -0.191 NA
ATOM     21  C   UNL d   1     -40.359  14.482  20.961  0.00  0.00     0.356 A 
ATOM     22  O   UNL d   1     -40.566  14.630  21.757  0.00  0.00    -0.244 OA
ENDBRANCH  11  12
ENDBRANCH  10  11
ENDBRANCH   9  10
ENDBRANCH   3   9
BRANCH   2  23
ATOM     23  C   UNL d   1     -46.242  12.796  22.674  0.00  0.00     0.064 A 
ATOM     24  C   UNL d   1     -46.462  12.412  23.370  0.00  0.00     0.020 A 
ATOM     25  C   UNL d   1     -47.234  12.426  23.630  0.00  0.00     0.026 A 
ATOM     26  C   UNL d   1     -47.812  12.826  23.200  0.00  0.00     0.094 A 
ATOM     27  C   UNL d   1     -47.591  13.213  22.500  0.00  0.00     0.026 A 
ATOM     28  C   UNL d   1     -46.810  13.200  22.235  0.00  0.00     0.020 A 
BRANCH  26  29
ATOM     29  O   UNL d   1     -48.604  12.857  23.441  0.00  0.00    -0.328 OA
ATOM     30  C   UNL d   1     -49.066  12.163  23.401  0.00  0.00     0.181 C 
ENDBRANCH  26  29
ENDBRANCH   2  23
TORSDOF 6
ENDMDL
MODEL 2
REMARK VINA RESULT:      -4.7      2.137      6.928
REMARK  6 active torsions:
REMARK  status: ('A' for Active; 'I' for Inactive)
REMARK    1  A    between atoms: C_21  and  N_1 
REMARK       I    between atoms: N_7  and  C_10 
REMARK    2  A    between atoms: C_15  and  N_8 
REMARK    3  A    between atoms: C_10  and  C_27 
REMARK    4  A    between atoms: C_29  and  C_21 
REMARK    5  A    between atoms: O_28  and  C_24 
REMARK    6  A    between atoms: C_27  and  C_29 
ROOT
ATOM      1  N   UNL d   1     -42.978  13.234  21.389  0.00  0.00    -0.269 N 
ATOM      2  N   UNL d   1     -41.657  14.056  20.893  0.00  0.00    -0.301 N 
ATOM      3  C   UNL d   1     -43.659  12.821  21.643  0.00  0.00     0.265 C 
ATOM      4  C   UNL d   1     -42.278  12.830  21.282  0.00  0.00     0.102 A 
ATOM      5  C   UNL d   1     -43.040  14.042  21.255  0.00  0.00     0.102 A 
ATOM      6  C   UNL d   1     -41.604  13.239  21.031  0.00  0.00     0.100 A 
ATOM      7  C   UNL d   1     -42.359  14.456  21.001  0.00  0.00     0.100 A 
ATOM      8  O   UNL d   1     -43.629  12.003  21.787  0.00  0.00    -0.267 OA
ENDROOT
BRANCH   3   9
ATOM      9  C   UNL d   1     -44.365  13.249  21.747  0.00  0.00     0.063 C 
BRANCH   9  10
ATOM     10  C   UNL d   1     -45.041  12.836  22.021  0.00  0.00     0.024 C 
BRANCH  10  11
ATOM     11  C   UNL d   1     -45.657  13.270  22.387  0.00  0.00     0.088 C 
BRANCH  11  12
ATOM     12  N   UNL d   1     -46.387  12.899  22.549  0.00  0.00    -0.224 N 
ATOM     13  C   UNL d   1     -47.051  13.031  22.058  0.00  0.00     0.276 A 
ATOM     14  C   UNL d   1     -47.766  12.657  22.232  0.00  0.00     0.104 A 
ATOM     15  O   UNL d   1     -46.986  13.523  21.416  0.00  0.00    -0.266 OA
ATOM     16  S   UNL d   1     -48.497  12.679  21.857  0.00  0.00    -0.080 SA
ATOM     17  C   UNL d   1     -47.831  12.155  22.886  0.00  0.00     0.097 A 
ATOM     18  C   UNL d   1     -48.996  12.201  22.276  0.00  0.00     0.037 A 
ATOM     19  C   UNL d   1     -48.599  11.871  22.913  0.00  0.00     0.027 A 
ATOM     20  N   UNL d   1     -47.177  12.026  23.370  0.00  0.00    -0.191 NA
ATOM     21  C   UNL d   1     -46.457  12.392  23.208  0.00  0.00     0.356 A 
ATOM     22  O   UNL d   1     -45.789  12.267  23.694  0.00  0.00    -0.244 OA
ENDBRANCH  11  12
ENDBRANCH  10  11
ENDBRANCH   9  10
ENDBRANCH   3   9
BRANCH   2  23
ATOM     23  C   UNL d   1     -40.991  14.478  20.641  0.00  0.00     0.064 A 
ATOM     24  C   UNL d   1     -40.538  14.927  21.163  0.00  0.00     0.020 A 
ATOM     25  C   UNL d   1     -39.884  15.338  20.904  0.00  0.00     0.026 A 
ATOM     26  C   UNL d   1     -39.662  15.313  20.111  0.00  0.00     0.094 A 
ATOM     27  C   UNL d   1     -40.118  14.861  19.584  0.00  0.00     0.026 A 
ATOM     28  C   UNL d   1     -40.780  14.444  19.845  0.00  0.00     0.020 A 
BRANCH  26  29
ATOM     29  O   UNL d   1     -39.002  15.720  19.819  0.00  0.00    -0.328 OA
ATOM     30  C   UNL d   1     -38.274  15.649  20.220  0.00  0.00     0.181 C 
ENDBRANCH  26  29
ENDBRANCH   2  23
TORSDOF 6
ENDMDL
MODEL 3
REMARK VINA RESULT:      -4.5      1.140      1.290
REMARK  6 active torsions:
REMARK  status: ('A' for Active; 'I' for Inactive)
REMARK    1  A    between atoms: C_21  and  N_1 
REMARK       I    between atoms: N_7  and  C_10 
REMARK    2  A    between atoms: C_15  and  N_8 
REMARK    3  A    between atoms: C_10  and  C_27 
REMARK    4  A    between atoms: C_29  and  C_21 
REMARK    5  A    between atoms: O_28  and  C_24 
REMARK    6  A    between atoms: C_27  and  C_29 
ROOT
ATOM      1  N   UNL d   1     -44.094  12.748  21.933  0.00  0.00    -0.269 N 
ATOM      2  N   UNL d   1     -45.639  12.863  22.449  0.00  0.00    -0.301 N 
ATOM      3  C   UNL d   1     -43.304  12.697  21.664  0.00  0.00     0.265 C 
ATOM      4  C   UNL d   1     -44.400  12.155  22.401  0.00  0.00     0.102 A 
ATOM      5  C   UNL d   1     -44.539  13.402  21.712  0.00  0.00     0.102 A 
ATOM      6  C   UNL d   1     -45.181  12.205  22.667  0.00  0.00     0.100 A 
ATOM      7  C   UNL d   1     -45.329  13.453  21.981  0.00  0.00     0.100 A 
ATOM      8  O   UNL d   1     -42.828  12.048  21.869  0.00  0.00    -0.267 OA
ENDROOT
BRANCH   3   9
ATOM      9  C   UNL d   1     -43.010  13.312  21.186  0.00  0.00     0.063 C 
BRANCH   9  10
ATOM     10  C   UNL d   1     -42.215  13.555  21.301  0.00  0.00     0.024 C 
BRANCH  10  11
ATOM     11  C   UNL d   1     -41.854  14.037  20.719  0.00  0.00     0.088 C 
BRANCH  11  12
ATOM     12  N   UNL d   1     -41.223  14.542  20.931  0.00  0.00    -0.224 N 
ATOM     13  C   UNL d   1     -40.448  14.240  21.022  0.00  0.00     0.276 A 
ATOM     14  C   UNL d   1     -39.835  14.751  21.231  0.00  0.00     0.104 A 
ATOM     15  O   UNL d   1     -40.308  13.449  20.905  0.00  0.00    -0.266 OA
ATOM     16  S   UNL d   1     -39.034  14.616  21.358  0.00  0.00    -0.080 SA
ATOM     17  C   UNL d   1     -39.979  15.557  21.350  0.00  0.00     0.097 A 
ATOM     18  C   UNL d   1     -38.700  15.326  21.550  0.00  0.00     0.037 A 
ATOM     19  C   UNL d   1     -39.270  15.915  21.550  0.00  0.00     0.027 A 
ATOM     20  N   UNL d   1     -40.742  15.853  21.260  0.00  0.00    -0.191 NA
ATOM     21  C   UNL d   1     -41.364  15.355  21.052  0.00  0.00     0.356 A 
ATOM     22  O   UNL d   1     -42.141  15.648  20.958  0.00  0.00    -0.244 OA
ENDBRANCH  11  12
ENDBRANCH  10  11
ENDBRANCH   9  10
ENDBRANCH   3   9
BRANCH   2  23
ATOM     23  C   UNL d   1     -46.423  12.926  22.708  0.00  0.00     0.064 A 
ATOM     24  C   UNL d   1     -46.778  12.339  23.165  0.00  0.00     0.020 A 
ATOM     25  C   UNL d   1     -47.551  12.411  23.415  0.00  0.00     0.026 A 
ATOM     26  C   UNL d   1     -47.993  13.077  23.214  0.00  0.00     0.094 A 
ATOM     27  C   UNL d   1     -47.636  13.669  22.754  0.00  0.00     0.026 A 
ATOM     28  C   UNL d   1     -46.854  13.596  22.501  0.00  0.00     0.020 A 
BRANCH  26  29
ATOM     29  O   UNL d   1     -48.780  13.178  23.453  0.00  0.00    -0.328 OA
ATOM     30  C   UNL d   1     -49.349  12.616  23.217  0.00  0.00     0.181 C 
ENDBRANCH  26  29
ENDBRANCH   2  23
TORSDOF 6
ENDMDL
MODEL 4
REMARK VINA RESULT:      -3.8      1.986      6.970
REMARK  6 active torsions:
REMARK  status: ('A' for Active; 'I' for Inactive)
REMARK    1  A    between atoms: C_21  and  N_1 
REMARK       I    between atoms: N_7  and  C_10 
REMARK    2  A    between atoms: C_15  and  N_8 
REMARK    3  A    between atoms: C_10  and  C_27 
REMARK    4  A    between atoms: C_29  and  C_21 
REMARK    5  A    between atoms: O_28  and  C_24 
REMARK    6  A    between atoms: C_27  and  C_29 
ROOT
ATOM      1  N   UNL d   1     -41.407  13.855  20.723  0.00  0.00    -0.269 N 
ATOM      2  N   UNL d   1     -40.478  14.524  19.558  0.00  0.00    -0.301 N 
ATOM      3  C   UNL d   1     -41.889  13.511  21.313  0.00  0.00     0.265 C 
ATOM      4  C   UNL d   1     -40.671  14.143  20.921  0.00  0.00     0.102 A 
ATOM      5  C   UNL d   1     -41.697  13.891  19.955  0.00  0.00     0.102 A 
ATOM      6  C   UNL d   1     -40.194  14.484  20.337  0.00  0.00     0.100 A 
ATOM      7  C   UNL d   1     -41.215  14.235  19.365  0.00  0.00     0.100 A 
ATOM      8  O   UNL d   1     -41.625  13.460  22.099  0.00  0.00    -0.267 OA
ENDROOT
BRANCH   3   9
ATOM      9  C   UNL d   1     -42.638  13.223  21.092  0.00  0.00     0.063 C 
BRANCH   9  10
ATOM     10  C   UNL d   1     -43.190  13.050  21.699  0.00  0.00     0.024 C 
BRANCH  10  11
ATOM     11  C   UNL d   1     -43.861  12.585  21.512  0.00  0.00     0.088 C 
BRANCH  11  12
ATOM     12  N   UNL d   1     -44.498  12.539  22.051  0.00  0.00    -0.224 N 
ATOM     13  C   UNL d   1     -45.134  13.079  22.007  0.00  0.00     0.276 A 
ATOM     14  C   UNL d   1     -45.755  13.020  22.547  0.00  0.00     0.104 A 
ATOM     15  O   UNL d   1     -45.134  13.656  21.435  0.00  0.00    -0.266 OA
ATOM     16  S   UNL d   1     -46.442  13.464  22.638  0.00  0.00    -0.080 SA
ATOM     17  C   UNL d   1     -45.755  12.432  23.129  0.00  0.00     0.097 A 
ATOM     18  C   UNL d   1     -46.848  13.151  23.262  0.00  0.00     0.037 A 
ATOM     19  C   UNL d   1     -46.436  12.515  23.574  0.00  0.00     0.027 A 
ATOM     20  N   UNL d   1     -45.127  11.899  23.171  0.00  0.00    -0.191 NA
ATOM     21  C   UNL d   1     -44.501  11.947  22.639  0.00  0.00     0.356 A 
ATOM     22  O   UNL d   1     -43.861  11.411  22.676  0.00  0.00    -0.244 OA
ENDBRANCH  11  12
ENDBRANCH  10  11
ENDBRANCH   9  10
ENDBRANCH   3   9
BRANCH   2  23
ATOM     23  C   UNL d   1     -40.012  14.862  18.964  0.00  0.00     0.064 A 
ATOM     24  C   UNL d   1     -40.191  15.597  18.635  0.00  0.00     0.020 A 
ATOM     25  C   UNL d   1     -39.724  15.921  18.051  0.00  0.00     0.026 A 
ATOM     26  C   UNL d   1     -39.061  15.517  17.776  0.00  0.00     0.094 A 
ATOM     27  C   UNL d   1     -38.879  14.777  18.106  0.00  0.00     0.026 A 
ATOM     28  C   UNL d   1     -39.350  14.449  18.698  0.00  0.00     0.020 A 
BRANCH  26  29
ATOM     29  O   UNL d   1     -38.568  15.821  17.183  0.00  0.00    -0.328 OA
ATOM     30  C   UNL d   1     -38.597  15.482  16.421  0.00  0.00     0.181 C 
ENDBRANCH  26  29
ENDBRANCH   2  23
TORSDOF 6
ENDMDL
