MODEL 1
REMARK VINA RESULT:      -7.8      0.000      0.000
REMARK  1 active torsions:
REMARK  status: ('A' for Active; 'I' for Inactive)
REMARK    1  A    between atoms: C_6  and  C_1 
ROOT
ATOM      1  C   UNL d   1     -48.037  13.255  23.189  0.00  0.00     0.162 A 
ATOM      2  N   UNL d   1     -48.851  13.183  23.324  0.00  0.00    -0.225 NA
ATOM      3  N   UNL d   1     -47.883  14.006  22.923  0.00  0.00    -0.225 NA
ATOM      4  C   UNL d   1     -49.212  13.904  23.139  0.00  0.00     0.101 A 
ATOM      5  C   UNL d   1     -48.614  14.406  22.894  0.00  0.00     0.101 A 
ATOM      6  C   UNL d   1     -49.994  14.160  23.163  0.00  0.00     0.021 A 
ATOM      7  C   UNL d   1     -48.792  15.185  22.665  0.00  0.00     0.021 A 
ATOM      8  C   UNL d   1     -50.196  14.936  22.938  0.00  0.00     0.002 A 
ATOM      9  C   UNL d   1     -49.601  15.461  22.685  0.00  0.00     0.002 A 
ENDROOT
BRANCH   1  10
ATOM     10  C   UNL d   1     -47.531  12.655  23.315  0.00  0.00     0.036 A 
ATOM     11  C   UNL d   1     -46.719  12.767  23.190  0.00  0.00     0.005 A 
ATOM     12  C   UNL d   1     -46.187  12.151  23.317  0.00  0.00     0.030 A 
ATOM     13  C   UNL d   1     -46.460  11.416  23.572  0.00  0.00     0.140 A 
ATOM     14  C   UNL d   1     -47.268  11.300  23.698  0.00  0.00     0.030 A 
ATOM     15  F   UNL d   1     -45.908  10.798  23.698  0.00  0.00    -0.204 F 
ATOM     16  C   UNL d   1     -47.802  11.905  23.574  0.00  0.00     0.005 A 
ENDBRANCH   1  10
TORSDOF 1
ENDMDL
MODEL 2
REMARK VINA RESULT:      -7.6      1.982      3.106
REMARK  1 active torsions:
REMARK  status: ('A' for Active; 'I' for Inactive)
REMARK    1  A    between atoms: C_6  and  C_1 
ROOT
ATOM      1  C   UNL d   1     -48.101  12.781  22.906  0.00  0.00     0.162 A 
ATOM      2  N   UNL d   1     -47.915  13.568  23.086  0.00  0.00    -0.225 NA
ATOM      3  N   UNL d   1     -47.447  12.426  22.582  0.00  0.00    -0.225 NA
ATOM      4  C   UNL d   1     -47.128  13.706  22.870  0.00  0.00     0.101 A 
ATOM      5  C   UNL d   1     -46.845  13.003  22.562  0.00  0.00     0.101 A 
ATOM      6  C   UNL d   1     -46.645  14.371  22.915  0.00  0.00     0.021 A 
ATOM      7  C   UNL d   1     -46.062  12.953  22.289  0.00  0.00     0.021 A 
ATOM      8  C   UNL d   1     -45.856  14.344  22.648  0.00  0.00     0.002 A 
ATOM      9  C   UNL d   1     -45.551  13.637  22.331  0.00  0.00     0.002 A 
ENDROOT
BRANCH   1  10
ATOM     10  C   UNL d   1     -48.820  12.472  23.047  0.00  0.00     0.036 A 
ATOM     11  C   UNL d   1     -48.896  11.814  23.546  0.00  0.00     0.005 A 
ATOM     12  C   UNL d   1     -49.637  11.487  23.698  0.00  0.00     0.030 A 
ATOM     13  C   UNL d   1     -50.310  11.813  23.353  0.00  0.00     0.140 A 
ATOM     14  C   UNL d   1     -50.239  12.469  22.856  0.00  0.00     0.030 A 
ATOM     15  F   UNL d   1     -51.058  11.471  23.516  0.00  0.00    -0.204 F 
ATOM     16  C   UNL d   1     -49.509  12.799  22.700  0.00  0.00     0.005 A 
ENDBRANCH   1  10
TORSDOF 1
ENDMDL
MODEL 3
REMARK VINA RESULT:      -7.5      1.851      3.764
REMARK  1 active torsions:
REMARK  status: ('A' for Active; 'I' for Inactive)
REMARK    1  A    between atoms: C_6  and  C_1 
ROOT
ATOM      1  C   UNL d   1     -48.463  13.534  22.967  0.00  0.00     0.162 A 
ATOM      2  N   UNL d   1     -48.545  12.799  23.340  0.00  0.00    -0.225 NA
ATOM      3  N   UNL d   1     -47.680  13.647  22.784  0.00  0.00    -0.225 NA
ATOM      4  C   UNL d   1     -47.799  12.446  23.390  0.00  0.00     0.101 A 
ATOM      5  C   UNL d   1     -47.271  12.970  23.047  0.00  0.00     0.101 A 
ATOM      6  C   UNL d   1     -47.540  11.728  23.698  0.00  0.00     0.021 A 
ATOM      7  C   UNL d   1     -46.463  12.781  23.008  0.00  0.00     0.021 A 
ATOM      8  C   UNL d   1     -46.734  11.517  23.669  0.00  0.00     0.002 A 
ATOM      9  C   UNL d   1     -46.183  12.038  23.324  0.00  0.00     0.002 A 
ENDROOT
BRANCH   1  10
ATOM     10  C   UNL d   1     -49.082  14.014  22.834  0.00  0.00     0.036 A 
ATOM     11  C   UNL d   1     -49.198  14.682  23.312  0.00  0.00     0.005 A 
ATOM     12  C   UNL d   1     -49.836  15.186  23.182  0.00  0.00     0.030 A 
ATOM     13  C   UNL d   1     -50.367  15.028  22.572  0.00  0.00     0.140 A 
ATOM     14  C   UNL d   1     -50.257  14.364  22.093  0.00  0.00     0.030 A 
ATOM     15  F   UNL d   1     -51.014  15.548  22.449  0.00  0.00    -0.204 F 
ATOM     16  C   UNL d   1     -49.626  13.860  22.216  0.00  0.00     0.005 A 
ENDBRANCH   1  10
TORSDOF 1
ENDMDL
