MODEL 1
REMARK VINA RESULT:      10.9      0.000      0.000
REMARK  1 active torsions:
REMARK  status: ('A' for Active; 'I' for Inactive)
REMARK    1  A    between atoms: C_5  and  C_2 
ROOT
ATOM      1  N   UNL d   1      57.948  49.697  49.898  0.00  0.00    -0.217 NA
ATOM      2  C   UNL d   1      58.349  49.701  50.602  0.00  0.00     0.113 A 
ATOM      3  C   UNL d   1      57.136  49.697  50.066  0.00  0.00     0.215 A 
ATOM      4  S   UNL d   1      57.057  49.703  50.901  0.00  0.00    -0.045 SA
ATOM      5  C   UNL d   1      57.801  49.705  51.230  0.00  0.00     0.060 A 
ATOM      6  N   UNL d   1      56.515  49.693  49.502  0.00  0.00    -0.120 N 
ENDROOT
BRANCH   2   7
ATOM      7  C   UNL d   1      59.188  49.703  50.719  0.00  0.00     0.118 A 
ATOM      8  O   UNL d   1      59.787  49.705  50.132  0.00  0.00    -0.304 OA
ATOM      9  C   UNL d   1      60.523  49.706  50.532  0.00  0.00     0.123 A 
ATOM     10  C   UNL d   1      60.369  49.703  51.342  0.00  0.00     0.029 A 
ATOM     11  C   UNL d   1      59.559  49.702  51.455  0.00  0.00     0.028 A 
ENDBRANCH   2   7
TORSDOF 1
ENDMDL
MODEL 2
REMARK VINA RESULT:      11.3      1.559      2.836
REMARK  1 active torsions:
REMARK  status: ('A' for Active; 'I' for Inactive)
REMARK    1  A    between atoms: C_5  and  C_2 
ROOT
ATOM      1  N   UNL d   1      58.981  49.700  49.879  0.00  0.00    -0.217 NA
ATOM      2  C   UNL d   1      58.393  49.699  50.437  0.00  0.00     0.113 A 
ATOM      3  C   UNL d   1      59.709  49.705  50.276  0.00  0.00     0.215 A 
ATOM      4  S   UNL d   1      59.542  49.707  51.098  0.00  0.00    -0.045 SA
ATOM      5  C   UNL d   1      58.734  49.704  51.197  0.00  0.00     0.060 A 
ATOM      6  N   UNL d   1      60.467  49.708  49.916  0.00  0.00    -0.120 N 
ENDROOT
BRANCH   2   7
ATOM      7  C   UNL d   1      57.556  49.695  50.305  0.00  0.00     0.118 A 
ATOM      8  O   UNL d   1      56.947  49.706  50.881  0.00  0.00    -0.304 OA
ATOM      9  C   UNL d   1      56.217  49.696  50.469  0.00  0.00     0.123 A 
ATOM     10  C   UNL d   1      56.386  49.678  49.662  0.00  0.00     0.029 A 
ATOM     11  C   UNL d   1      57.198  49.678  49.563  0.00  0.00     0.028 A 
ENDBRANCH   2   7
TORSDOF 1
ENDMDL
