MODEL 1
REMARK VINA RESULT:      59.6      0.000      0.000
REMARK  5 active torsions:
REMARK  status: ('A' for Active; 'I' for Inactive)
REMARK    1  A    between atoms: N_6  and  S_1 
REMARK    2  A    between atoms: C_16  and  S_1 
REMARK    3  A    between atoms: N_2  and  C_15 
REMARK       I    between atoms: C_9  and  N_8 
REMARK    4  A    between atoms: C_10  and  C_9 
REMARK    5  A    between atoms: C_15  and  C_10 
ROOT
ATOM      1  N   UNL d   1     -50.901  26.136  33.584  0.00  0.00    -0.226 N 
ATOM      2  N   UNL d   1     -50.150  27.597  33.680  0.00  0.00    -0.269 N 
ATOM      3  C   UNL d   1     -49.766  28.325  33.731  0.00  0.00     0.267 C 
ATOM      4  C   UNL d   1     -51.308  26.825  33.337  0.00  0.00     0.111 A 
ATOM      5  C   UNL d   1     -50.132  26.186  33.873  0.00  0.00     0.111 A 
ATOM      6  C   UNL d   1     -49.755  26.918  33.921  0.00  0.00     0.103 A 
ATOM      7  C   UNL d   1     -50.931  27.558  33.385  0.00  0.00     0.103 A 
ATOM      8  O   UNL d   1     -50.158  29.011  33.490  0.00  0.00    -0.267 OA
ENDROOT
BRANCH   3   9
ATOM      9  C   UNL d   1     -48.998  28.366  34.020  0.00  0.00     0.082 C 
BRANCH   9  10
ATOM     10  C   UNL d   1     -48.874  28.526  34.820  0.00  0.00     0.105 C 
BRANCH  10  11
ATOM     11  N   UNL d   1     -48.281  29.060  35.042  0.00  0.00    -0.228 N 
ATOM     12  N   UNL d   1     -48.000  29.696  34.599  0.00  0.00    -0.165 NA
ATOM     13  C   UNL d   1     -47.412  30.080  35.031  0.00  0.00     0.103 A 
ATOM     14  C   UNL d   1     -46.981  30.748  34.792  0.00  0.00     0.022 C 
ATOM     15  C   UNL d   1     -47.325  29.683  35.747  0.00  0.00     0.037 A 
ATOM     16  C   UNL d   1     -47.861  29.051  35.758  0.00  0.00     0.084 A 
ATOM     17  C   UNL d   1     -46.799  29.877  36.349  0.00  0.00     0.003 C 
ATOM     18  C   UNL d   1     -47.955  28.512  36.376  0.00  0.00     0.021 C 
ENDBRANCH  10  11
ENDBRANCH   9  10
ENDBRANCH   3   9
BRANCH   1  19
ATOM     19  S   UNL d   1     -51.280  25.400  33.536  0.00  0.00     0.271 S 
ATOM     20  O   UNL d   1     -52.007  25.783  33.401  0.00  0.00    -0.200 OA
ATOM     21  O   UNL d   1     -50.560  25.021  33.670  0.00  0.00    -0.200 OA
BRANCH  19  22
ATOM     22  C   UNL d   1     -51.660  24.661  33.488  0.00  0.00     0.104 A 
ATOM     23  C   UNL d   1     -52.486  24.625  33.565  0.00  0.00     0.013 A 
ATOM     24  C   UNL d   1     -52.866  23.886  33.517  0.00  0.00     0.001 A 
ATOM     25  C   UNL d   1     -52.413  23.196  33.392  0.00  0.00     0.000 A 
ATOM     26  C   UNL d   1     -51.588  23.250  33.317  0.00  0.00     0.001 A 
ATOM     27  C   UNL d   1     -51.215  23.985  33.366  0.00  0.00     0.013 A 
ENDBRANCH  19  22
ENDBRANCH   1  19
TORSDOF 5
ENDMDL
