MODEL 1
REMARK VINA RESULT:      -9.4      0.000      0.000
REMARK  5 active torsions:
REMARK  status: ('A' for Active; 'I' for Inactive)
REMARK    1  A    between atoms: C_10  and  N_1 
REMARK    2  A    between atoms: N_2  and  C_8 
REMARK    3  A    between atoms: C_5  and  C_12 
REMARK       I    between atoms: N_6  and  C_5 
REMARK    4  A    between atoms: C_7  and  N_6 
REMARK    5  A    between atoms: O_26  and  C_14 
ROOT
ATOM      1  C   UNL d   1      52.036  33.610  52.962  0.00  0.00     0.279 C 
ATOM      2  N   UNL d   1      52.082  32.849  53.252  0.00  0.00    -0.206 NA
ATOM      3  O   UNL d   1      52.705  34.080  52.904  0.00  0.00    -0.265 OA
ENDROOT
BRANCH   1   4
ATOM      4  C   UNL d   1      51.290  33.919  52.718  0.00  0.00     0.058 A 
ATOM      5  C   UNL d   1      50.644  33.849  53.212  0.00  0.00     0.006 A 
ATOM      6  C   UNL d   1      49.902  34.157  52.969  0.00  0.00     0.018 A 
ATOM      7  C   UNL d   1      49.835  34.521  52.243  0.00  0.00     0.070 A 
ATOM      8  C   UNL d   1      50.482  34.593  51.745  0.00  0.00     0.018 A 
ATOM      9  C   UNL d   1      51.224  34.285  51.988  0.00  0.00     0.006 A 
BRANCH   7  10
ATOM     10  N   UNL d   1      49.084  34.832  51.998  0.00  0.00    -0.242 N 
ATOM     11  C   UNL d   1      48.599  34.661  51.342  0.00  0.00     0.267 A 
ATOM     12  C   UNL d   1      47.931  35.137  51.391  0.00  0.00     0.066 A 
ATOM     13  O   UNL d   1      48.768  34.084  50.717  0.00  0.00    -0.267 OA
ATOM     14  C   UNL d   1      48.021  35.591  52.078  0.00  0.00     0.066 A 
ATOM     15  C   UNL d   1      48.724  35.408  52.452  0.00  0.00     0.267 A 
ATOM     16  O   UNL d   1      48.994  35.763  53.165  0.00  0.00    -0.267 OA
ENDBRANCH   7  10
ENDBRANCH   1   4
BRANCH   2  17
ATOM     17  C   UNL d   1      52.832  32.539  53.497  0.00  0.00     0.108 A 
ATOM     18  C   UNL d   1      53.310  32.969  54.023  0.00  0.00     0.045 A 
ATOM     19  C   UNL d   1      54.040  32.667  54.261  0.00  0.00     0.128 A 
ATOM     20  C   UNL d   1      54.308  31.928  53.979  0.00  0.00     0.026 A 
ATOM     21  C   UNL d   1      53.823  31.508  53.456  0.00  0.00     0.027 A 
ATOM     22  C   UNL d   1      53.093  31.810  53.218  0.00  0.00     0.112 A 
BRANCH  19  23
ATOM     23  N   UNL d   1      54.500  33.096  54.776  0.00  0.00    -0.114 N 
ATOM     24  O   UNL d   1      55.155  33.570  54.560  0.00  0.00    -0.532 OA
ATOM     25  O   UNL d   1      54.321  33.079  55.619  0.00  0.00    -0.532 OA
ENDBRANCH  19  23
BRANCH  22  26
ATOM     26  O   UNL d   1      52.633  31.377  52.700  0.00  0.00    -0.327 OA
ATOM     27  C   UNL d   1      52.725  30.556  52.656  0.00  0.00     0.181 C 
ENDBRANCH  22  26
ENDBRANCH   2  17
TORSDOF 5
ENDMDL
MODEL 2
REMARK VINA RESULT:      -8.8      1.094      5.742
REMARK  5 active torsions:
REMARK  status: ('A' for Active; 'I' for Inactive)
REMARK    1  A    between atoms: C_10  and  N_1 
REMARK    2  A    between atoms: N_2  and  C_8 
REMARK    3  A    between atoms: C_5  and  C_12 
REMARK       I    between atoms: N_6  and  C_5 
REMARK    4  A    between atoms: C_7  and  N_6 
REMARK    5  A    between atoms: O_26  and  C_14 
ROOT
ATOM      1  C   UNL d   1      49.992  34.518  52.568  0.00  0.00     0.279 C 
ATOM      2  N   UNL d   1      49.518  34.916  53.100  0.00  0.00    -0.206 NA
ATOM      3  O   UNL d   1      49.779  34.454  51.779  0.00  0.00    -0.265 OA
ENDROOT
BRANCH   1   4
ATOM      4  C   UNL d   1      50.713  34.168  52.833  0.00  0.00     0.058 A 
ATOM      5  C   UNL d   1      51.425  34.511  52.635  0.00  0.00     0.006 A 
ATOM      6  C   UNL d   1      52.141  34.163  52.898  0.00  0.00     0.018 A 
ATOM      7  C   UNL d   1      52.117  33.484  53.349  0.00  0.00     0.070 A 
ATOM      8  C   UNL d   1      51.402  33.136  53.550  0.00  0.00     0.018 A 
ATOM      9  C   UNL d   1      50.686  33.485  53.287  0.00  0.00     0.006 A 
BRANCH   7  10
ATOM     10  N   UNL d   1      52.841  33.131  53.616  0.00  0.00    -0.242 N 
ATOM     11  C   UNL d   1      53.360  33.330  54.237  0.00  0.00     0.267 A 
ATOM     12  C   UNL d   1      53.977  32.787  54.232  0.00  0.00     0.066 A 
ATOM     13  O   UNL d   1      53.268  33.991  54.790  0.00  0.00    -0.267 OA
ATOM     14  C   UNL d   1      53.823  32.266  53.608  0.00  0.00     0.066 A 
ATOM     15  C   UNL d   1      53.130  32.472  53.228  0.00  0.00     0.267 A 
ATOM     16  O   UNL d   1      52.805  32.064  52.569  0.00  0.00    -0.267 OA
ENDBRANCH   7  10
ENDBRANCH   1   4
BRANCH   2  17
ATOM     17  C   UNL d   1      48.794  35.268  52.833  0.00  0.00     0.108 A 
ATOM     18  C   UNL d   1      48.421  34.986  52.148  0.00  0.00     0.045 A 
ATOM     19  C   UNL d   1      47.716  35.329  51.889  0.00  0.00     0.128 A 
ATOM     20  C   UNL d   1      47.370  35.961  52.310  0.00  0.00     0.026 A 
ATOM     21  C   UNL d   1      47.752  36.234  52.991  0.00  0.00     0.027 A 
ATOM     22  C   UNL d   1      48.456  35.891  53.250  0.00  0.00     0.112 A 
BRANCH  19  23
ATOM     23  N   UNL d   1      47.358  35.045  51.216  0.00  0.00    -0.114 N 
ATOM     24  O   UNL d   1      47.704  34.513  50.672  0.00  0.00    -0.532 OA
ATOM     25  O   UNL d   1      46.556  35.297  51.025  0.00  0.00    -0.532 OA
ENDBRANCH  19  23
BRANCH  22  26
ATOM     26  O   UNL d   1      48.814  36.179  53.927  0.00  0.00    -0.327 OA
ATOM     27  C   UNL d   1      48.407  36.709  54.414  0.00  0.00     0.181 C 
ENDBRANCH  22  26
ENDBRANCH   2  17
TORSDOF 5
ENDMDL
MODEL 3
REMARK VINA RESULT:      -8.5      0.969      1.702
REMARK  5 active torsions:
REMARK  status: ('A' for Active; 'I' for Inactive)
REMARK    1  A    between atoms: C_10  and  N_1 
REMARK    2  A    between atoms: N_2  and  C_8 
REMARK    3  A    between atoms: C_5  and  C_12 
REMARK       I    between atoms: N_6  and  C_5 
REMARK    4  A    between atoms: C_7  and  N_6 
REMARK    5  A    between atoms: O_26  and  C_14 
ROOT
ATOM      1  C   UNL d   1      51.821  33.471  52.898  0.00  0.00     0.279 C 
ATOM      2  N   UNL d   1      52.083  33.526  53.668  0.00  0.00    -0.206 NA
ATOM      3  O   UNL d   1      52.254  33.065  52.333  0.00  0.00    -0.265 OA
ENDROOT
BRANCH   1   4
ATOM      4  C   UNL d   1      51.093  33.837  52.678  0.00  0.00     0.058 A 
ATOM      5  C   UNL d   1      50.427  33.716  53.133  0.00  0.00     0.006 A 
ATOM      6  C   UNL d   1      49.703  34.080  52.915  0.00  0.00     0.018 A 
ATOM      7  C   UNL d   1      49.674  34.551  52.250  0.00  0.00     0.070 A 
ATOM      8  C   UNL d   1      50.342  34.675  51.791  0.00  0.00     0.018 A 
ATOM      9  C   UNL d   1      51.066  34.311  52.009  0.00  0.00     0.006 A 
BRANCH   7  10
ATOM     10  N   UNL d   1      48.942  34.919  52.029  0.00  0.00    -0.242 N 
ATOM     11  C   UNL d   1      48.437  34.804  51.376  0.00  0.00     0.267 A 
ATOM     12  C   UNL d   1      47.803  35.321  51.454  0.00  0.00     0.066 A 
ATOM     13  O   UNL d   1      48.557  34.239  50.729  0.00  0.00    -0.267 OA
ATOM     14  C   UNL d   1      47.933  35.743  52.153  0.00  0.00     0.066 A 
ATOM     15  C   UNL d   1      48.628  35.501  52.509  0.00  0.00     0.267 A 
ATOM     16  O   UNL d   1      48.931  35.811  53.229  0.00  0.00    -0.267 OA
ENDBRANCH   7  10
ENDBRANCH   1   4
BRANCH   2  17
ATOM     17  C   UNL d   1      52.815  33.159  53.889  0.00  0.00     0.108 A 
ATOM     18  C   UNL d   1      52.960  32.366  53.688  0.00  0.00     0.045 A 
ATOM     19  C   UNL d   1      53.672  32.008  53.903  0.00  0.00     0.128 A 
ATOM     20  C   UNL d   1      54.253  32.435  54.323  0.00  0.00     0.026 A 
ATOM     21  C   UNL d   1      54.097  33.224  54.518  0.00  0.00     0.027 A 
ATOM     22  C   UNL d   1      53.386  33.582  54.303  0.00  0.00     0.112 A 
BRANCH  19  23
ATOM     23  N   UNL d   1      53.805  31.231  53.701  0.00  0.00    -0.114 N 
ATOM     24  O   UNL d   1      53.393  30.574  54.012  0.00  0.00    -0.532 OA
ATOM     25  O   UNL d   1      54.414  31.044  53.122  0.00  0.00    -0.532 OA
ENDBRANCH  19  23
BRANCH  22  26
ATOM     26  O   UNL d   1      53.255  34.362  54.507  0.00  0.00    -0.327 OA
ATOM     27  C   UNL d   1      53.738  34.727  55.071  0.00  0.00     0.181 C 
ENDBRANCH  22  26
ENDBRANCH   2  17
TORSDOF 5
ENDMDL
MODEL 4
REMARK VINA RESULT:      -8.0      1.043      5.440
REMARK  5 active torsions:
REMARK  status: ('A' for Active; 'I' for Inactive)
REMARK    1  A    between atoms: C_10  and  N_1 
REMARK    2  A    between atoms: N_2  and  C_8 
REMARK    3  A    between atoms: C_5  and  C_12 
REMARK       I    between atoms: N_6  and  C_5 
REMARK    4  A    between atoms: C_7  and  N_6 
REMARK    5  A    between atoms: O_26  and  C_14 
ROOT
ATOM      1  C   UNL d   1      50.367  34.795  53.023  0.00  0.00     0.279 C 
ATOM      2  N   UNL d   1      49.668  34.514  52.709  0.00  0.00    -0.206 NA
ATOM      3  O   UNL d   1      50.443  35.581  53.243  0.00  0.00    -0.265 OA
ENDROOT
BRANCH   1   4
ATOM      4  C   UNL d   1      51.021  34.271  53.122  0.00  0.00     0.058 A 
ATOM      5  C   UNL d   1      51.717  34.416  52.723  0.00  0.00     0.006 A 
ATOM      6  C   UNL d   1      52.367  33.895  52.822  0.00  0.00     0.018 A 
ATOM      7  C   UNL d   1      52.295  33.249  53.315  0.00  0.00     0.070 A 
ATOM      8  C   UNL d   1      51.596  33.102  53.717  0.00  0.00     0.018 A 
ATOM      9  C   UNL d   1      50.946  33.623  53.618  0.00  0.00     0.006 A 
BRANCH   7  10
ATOM     10  N   UNL d   1      52.952  32.723  53.415  0.00  0.00    -0.242 N 
ATOM     11  C   UNL d   1      53.601  32.736  53.938  0.00  0.00     0.267 A 
ATOM     12  C   UNL d   1      54.066  32.077  53.780  0.00  0.00     0.066 A 
ATOM     13  O   UNL d   1      53.759  33.337  54.542  0.00  0.00    -0.267 OA
ATOM     14  C   UNL d   1      53.692  31.672  53.163  0.00  0.00     0.066 A 
ATOM     15  C   UNL d   1      53.011  32.063  52.936  0.00  0.00     0.267 A 
ATOM     16  O   UNL d   1      52.493  31.808  52.324  0.00  0.00    -0.267 OA
ENDBRANCH   7  10
ENDBRANCH   1   4
BRANCH   2  17
ATOM     17  C   UNL d   1      49.011  35.041  52.610  0.00  0.00     0.108 A 
ATOM     18  C   UNL d   1      48.738  35.492  53.251  0.00  0.00     0.045 A 
ATOM     19  C   UNL d   1      48.098  36.004  53.154  0.00  0.00     0.128 A 
ATOM     20  C   UNL d   1      47.719  36.077  52.413  0.00  0.00     0.026 A 
ATOM     21  C   UNL d   1      48.000  35.622  51.782  0.00  0.00     0.027 A 
ATOM     22  C   UNL d   1      48.640  35.110  51.879  0.00  0.00     0.112 A 
BRANCH  19  23
ATOM     23  N   UNL d   1      47.838  36.442  53.788  0.00  0.00    -0.114 N 
ATOM     24  O   UNL d   1      48.316  36.709  54.420  0.00  0.00    -0.532 OA
ATOM     25  O   UNL d   1      47.006  36.661  53.837  0.00  0.00    -0.532 OA
ENDBRANCH  19  23
BRANCH  22  26
ATOM     26  O   UNL d   1      48.899  34.672  51.240  0.00  0.00    -0.327 OA
ATOM     27  C   UNL d   1      48.357  34.412  50.672  0.00  0.00     0.181 C 
ENDBRANCH  22  26
ENDBRANCH   2  17
TORSDOF 5
ENDMDL
