MODEL 1
REMARK VINA RESULT:      39.7      0.000      0.000
REMARK  5 active torsions:
REMARK  status: ('A' for Active; 'I' for Inactive)
REMARK    1  A    between atoms: C_7  and  C_1 
REMARK    2  A    between atoms: C_9  and  C_17 
REMARK       I    between atoms: N_11  and  C_9 
REMARK    3  A    between atoms: S_12  and  C_10 
REMARK    4  A    between atoms: C_13  and  N_11 
REMARK    5  A    between atoms: C_17  and  S_12 
ROOT
ATOM      1  N   UNL d   1      14.384  12.072  -2.761  0.00  0.00    -0.147 NA
ATOM      2  C   UNL d   1      13.961  11.966  -2.050  0.00  0.00     0.111 A 
ATOM      3  N   UNL d   1      13.987  12.030  -3.478  0.00  0.00    -0.141 NA
ATOM      4  C   UNL d   1      13.173  11.883  -3.493  0.00  0.00     0.133 A 
ATOM      5  C   UNL d   1      13.163  11.822  -2.072  0.00  0.00     0.024 A 
ATOM      6  C   UNL d   1      12.769  11.780  -2.782  0.00  0.00     0.029 A 
ENDROOT
BRANCH   4   7
ATOM      7  S   UNL d   1      12.775  11.841  -4.215  0.00  0.00    -0.061 SA
BRANCH   7   8
ATOM      8  C   UNL d   1      13.008  12.321  -4.848  0.00  0.00     0.099 C 
BRANCH   8   9
ATOM      9  C   UNL d   1      13.058  13.128  -4.748  0.00  0.00     0.286 C 
ATOM     10  N   UNL d   1      13.379  13.605  -5.340  0.00  0.00    -0.208 NA
ATOM     11  O   UNL d   1      12.786  13.485  -4.044  0.00  0.00    -0.265 OA
BRANCH  10  12
ATOM     12  C   UNL d   1      13.432  14.425  -5.241  0.00  0.00     0.086 A 
ATOM     13  C   UNL d   1      14.035  14.844  -5.618  0.00  0.00     0.031 A 
ATOM     14  C   UNL d   1      14.091  15.667  -5.521  0.00  0.00     0.059 A 
ATOM     15 CL   UNL d   1      14.698  16.090  -5.900  0.00  0.00    -0.082 Cl
ATOM     16  C   UNL d   1      13.537  16.057  -5.045  0.00  0.00     0.011 A 
ATOM     17  C   UNL d   1      12.937  15.634  -4.671  0.00  0.00     0.002 A 
ATOM     18  C   UNL d   1      12.881  14.818  -4.766  0.00  0.00     0.019 A 
ENDBRANCH  10  12
ENDBRANCH   8   9
ENDBRANCH   7   8
ENDBRANCH   4   7
BRANCH   2  19
ATOM     19  C   UNL d   1      14.366  12.009  -1.328  0.00  0.00     0.068 A 
ATOM     20  C   UNL d   1      14.012  11.966  -0.577  0.00  0.00     0.089 A 
ATOM     21  N   UNL d   1      14.623  12.033  -0.014  0.00  0.00    -0.238 NA
ATOM     22  C   UNL d   1      13.216  11.874  -0.424  0.00  0.00     0.021 C 
ATOM     23  C   UNL d   1      15.336  12.116  -0.419  0.00  0.00     0.111 A 
ATOM     24  S   UNL d   1      15.174  12.101  -1.228  0.00  0.00    -0.065 SA
ATOM     25  C   UNL d   1      16.081  12.200  -0.065  0.00  0.00     0.028 C 
ENDBRANCH   2  19
TORSDOF 5
ENDMDL
MODEL 2
REMARK VINA RESULT:      41.3      3.409      6.310
REMARK  5 active torsions:
REMARK  status: ('A' for Active; 'I' for Inactive)
REMARK    1  A    between atoms: C_7  and  C_1 
REMARK    2  A    between atoms: C_9  and  C_17 
REMARK       I    between atoms: N_11  and  C_9 
REMARK    3  A    between atoms: S_12  and  C_10 
REMARK    4  A    between atoms: C_13  and  N_11 
REMARK    5  A    between atoms: C_17  and  S_12 
ROOT
ATOM      1  N   UNL d   1      14.768  17.801  -5.275  0.00  0.00    -0.147 NA
ATOM      2  C   UNL d   1      14.178  18.175  -5.731  0.00  0.00     0.111 A 
ATOM      3  N   UNL d   1      14.728  16.991  -5.149  0.00  0.00    -0.141 NA
ATOM      4  C   UNL d   1      14.107  16.551  -5.473  0.00  0.00     0.133 A 
ATOM      5  C   UNL d   1      13.572  17.738  -6.046  0.00  0.00     0.024 A 
ATOM      6  C   UNL d   1      13.532  16.935  -5.922  0.00  0.00     0.029 A 
ENDROOT
BRANCH   4   7
ATOM      7  S   UNL d   1      14.069  15.737  -5.346  0.00  0.00    -0.061 SA
BRANCH   7   8
ATOM      8  C   UNL d   1      13.563  15.429  -4.766  0.00  0.00     0.099 C 
BRANCH   8   9
ATOM      9  C   UNL d   1      13.606  14.639  -4.570  0.00  0.00     0.286 C 
ATOM     10  N   UNL d   1      12.920  14.185  -4.505  0.00  0.00    -0.208 NA
ATOM     11  O   UNL d   1      14.345  14.277  -4.431  0.00  0.00    -0.265 OA
BRANCH  10  12
ATOM     12  C   UNL d   1      12.959  13.384  -4.305  0.00  0.00     0.086 A 
ATOM     13  C   UNL d   1      13.130  13.164  -3.528  0.00  0.00     0.031 A 
ATOM     14  C   UNL d   1      13.171  12.359  -3.324  0.00  0.00     0.059 A 
ATOM     15 CL   UNL d   1      13.343  12.137  -2.542  0.00  0.00    -0.082 Cl
ATOM     16  C   UNL d   1      13.038  11.787  -3.908  0.00  0.00     0.011 A 
ATOM     17  C   UNL d   1      12.868  12.012  -4.682  0.00  0.00     0.002 A 
ATOM     18  C   UNL d   1      12.828  12.809  -4.884  0.00  0.00     0.019 A 
ENDBRANCH  10  12
ENDBRANCH   8   9
ENDBRANCH   7   8
ENDBRANCH   4   7
BRANCH   2  19
ATOM     19  C   UNL d   1      14.222  18.994  -5.856  0.00  0.00     0.068 A 
ATOM     20  C   UNL d   1      13.605  19.466  -6.154  0.00  0.00     0.089 A 
ATOM     21  N   UNL d   1      13.892  20.249  -6.187  0.00  0.00    -0.238 NA
ATOM     22  C   UNL d   1      12.863  19.209  -6.372  0.00  0.00     0.021 C 
ATOM     23  C   UNL d   1      14.668  20.249  -5.913  0.00  0.00     0.111 A 
ATOM     24  S   UNL d   1      14.869  19.474  -5.710  0.00  0.00    -0.065 SA
ATOM     25  C   UNL d   1      15.157  20.917  -5.855  0.00  0.00     0.028 C 
ENDBRANCH   2  19
TORSDOF 5
ENDMDL
