MODEL 1
REMARK VINA RESULT:      65.1      0.000      0.000
REMARK  5 active torsions:
REMARK  status: ('A' for Active; 'I' for Inactive)
REMARK    1  A    between atoms: C_7  and  N_1 
REMARK    2  A    between atoms: C_12  and  C_3 
REMARK    3  A    between atoms: C_8  and  S_15 
REMARK    4  A    between atoms: C_16  and  C_12 
REMARK    5  A    between atoms: S_15  and  C_16 
ROOT
ATOM      1  N   UNL d   1     -47.950  30.752  34.618  0.00  0.00    -0.304 N 
ATOM      2  C   UNL d   1     -48.436  30.214  34.227  0.00  0.00     0.067 A 
ATOM      3  C   UNL d   1     -48.410  29.498  34.640  0.00  0.00     0.057 A 
ATOM      4  C   UNL d   1     -47.624  30.377  35.266  0.00  0.00     0.064 A 
ATOM      5  C   UNL d   1     -47.902  29.602  35.289  0.00  0.00     0.022 A 
ATOM      6  C   UNL d   1     -48.869  30.371  33.544  0.00  0.00     0.019 C 
ATOM      7  C   UNL d   1     -47.163  30.302  35.945  0.00  0.00     0.019 C 
ENDROOT
BRANCH   3   8
ATOM      8  C   UNL d   1     -48.599  28.700  34.796  0.00  0.00     0.204 C 
ATOM      9  O   UNL d   1     -48.420  28.370  35.541  0.00  0.00    -0.286 OA
BRANCH   8  10
ATOM     10  C   UNL d   1     -48.918  27.982  34.545  0.00  0.00     0.080 C 
BRANCH  10  11
ATOM     11  S   UNL d   1     -49.406  27.960  33.875  0.00  0.00    -0.043 SA
BRANCH  11  12
ATOM     12  C   UNL d   1     -49.830  27.277  33.692  0.00  0.00     0.233 A 
ATOM     13  N   UNL d   1     -50.650  27.216  33.646  0.00  0.00    -0.029 NA
ATOM     14  C   UNL d   1     -50.832  26.439  33.448  0.00  0.00     0.788 A 
ATOM     15  N   UNL d   1     -51.590  26.128  33.344  0.00  0.00     0.064 N 
ATOM     16  N   UNL d   1     -50.124  26.026  33.372  0.00  0.00     0.050 NA
ATOM     17  N   UNL d   1     -49.493  26.545  33.523  0.00  0.00    -0.105 NA
ENDBRANCH  11  12
ENDBRANCH  10  11
ENDBRANCH   8  10
ENDBRANCH   3   8
BRANCH   1  18
ATOM     18  C   UNL d   1     -47.815  31.539  34.391  0.00  0.00     0.094 A 
ATOM     19  C   UNL d   1     -48.414  32.057  34.423  0.00  0.00     0.050 A 
ATOM     20  C   UNL d   1     -48.273  32.847  34.194  0.00  0.00     0.142 A 
ATOM     21  F   UNL d   1     -48.892  33.400  34.223  0.00  0.00    -0.204 F 
ATOM     22  C   UNL d   1     -47.526  33.078  33.942  0.00  0.00     0.032 A 
ATOM     23  C   UNL d   1     -46.914  32.538  33.912  0.00  0.00     0.034 A 
ATOM     24  C   UNL d   1     -47.056  31.756  34.139  0.00  0.00     0.156 A 
ATOM     25  F   UNL d   1     -46.256  31.560  33.976  0.00  0.00    -0.203 F 
ENDBRANCH   1  18
TORSDOF 5
ENDMDL
MODEL 2
REMARK VINA RESULT:      65.2      2.466      5.533
REMARK  5 active torsions:
REMARK  status: ('A' for Active; 'I' for Inactive)
REMARK    1  A    between atoms: C_7  and  N_1 
REMARK    2  A    between atoms: C_12  and  C_3 
REMARK    3  A    between atoms: C_8  and  S_15 
REMARK    4  A    between atoms: C_16  and  C_12 
REMARK    5  A    between atoms: S_15  and  C_16 
ROOT
ATOM      1  N   UNL d   1     -50.116  26.947  34.483  0.00  0.00    -0.304 N 
ATOM      2  C   UNL d   1     -49.620  27.496  34.122  0.00  0.00     0.067 A 
ATOM      3  C   UNL d   1     -49.164  27.855  34.710  0.00  0.00     0.057 A 
ATOM      4  C   UNL d   1     -49.973  26.963  35.286  0.00  0.00     0.064 A 
ATOM      5  C   UNL d   1     -49.386  27.521  35.438  0.00  0.00     0.022 A 
ATOM      6  C   UNL d   1     -49.590  27.652  33.313  0.00  0.00     0.019 C 
ATOM      7  C   UNL d   1     -50.064  26.749  36.077  0.00  0.00     0.019 C 
ENDROOT
BRANCH   3   8
ATOM      8  C   UNL d   1     -48.589  28.376  35.018  0.00  0.00     0.204 C 
ATOM      9  O   UNL d   1     -47.794  28.131  35.074  0.00  0.00    -0.286 OA
BRANCH   8  10
ATOM     10  C   UNL d   1     -48.394  29.112  35.337  0.00  0.00     0.080 C 
BRANCH  10  11
ATOM     11  S   UNL d   1     -47.617  29.394  35.277  0.00  0.00    -0.043 SA
BRANCH  11  12
ATOM     12  C   UNL d   1     -47.462  30.201  35.339  0.00  0.00     0.233 A 
ATOM     13  N   UNL d   1     -47.493  30.747  34.722  0.00  0.00    -0.029 NA
ATOM     14  C   UNL d   1     -47.299  31.484  35.030  0.00  0.00     0.788 A 
ATOM     15  N   UNL d   1     -47.261  32.193  34.608  0.00  0.00     0.064 N 
ATOM     16  N   UNL d   1     -47.150  31.390  35.835  0.00  0.00     0.050 NA
ATOM     17  N   UNL d   1     -47.250  30.589  36.033  0.00  0.00    -0.105 NA
ENDBRANCH  11  12
ENDBRANCH  10  11
ENDBRANCH   8  10
ENDBRANCH   3   8
BRANCH   1  18
ATOM     18  C   UNL d   1     -50.668  26.462  34.096  0.00  0.00     0.094 A 
ATOM     19  C   UNL d   1     -50.519  25.686  34.032  0.00  0.00     0.050 A 
ATOM     20  C   UNL d   1     -51.077  25.202  33.642  0.00  0.00     0.142 A 
ATOM     21  F   UNL d   1     -50.932  24.387  33.567  0.00  0.00    -0.204 F 
ATOM     22  C   UNL d   1     -51.765  25.529  33.334  0.00  0.00     0.032 A 
ATOM     23  C   UNL d   1     -51.911  26.329  33.405  0.00  0.00     0.034 A 
ATOM     24  C   UNL d   1     -51.357  26.806  33.791  0.00  0.00     0.156 A 
ATOM     25  F   UNL d   1     -51.840  27.480  33.658  0.00  0.00    -0.203 F 
ENDBRANCH   1  18
TORSDOF 5
ENDMDL
MODEL 3
REMARK VINA RESULT:      65.4      0.879      1.042
REMARK  5 active torsions:
REMARK  status: ('A' for Active; 'I' for Inactive)
REMARK    1  A    between atoms: C_7  and  N_1 
REMARK    2  A    between atoms: C_12  and  C_3 
REMARK    3  A    between atoms: C_8  and  S_15 
REMARK    4  A    between atoms: C_16  and  C_12 
REMARK    5  A    between atoms: S_15  and  C_16 
ROOT
ATOM      1  N   UNL d   1     -48.140  30.112  34.793  0.00  0.00    -0.304 N 
ATOM      2  C   UNL d   1     -48.527  29.755  34.160  0.00  0.00     0.067 A 
ATOM      3  C   UNL d   1     -48.689  28.972  34.366  0.00  0.00     0.057 A 
ATOM      4  C   UNL d   1     -48.061  29.558  35.388  0.00  0.00     0.064 A 
ATOM      5  C   UNL d   1     -48.396  28.850  35.134  0.00  0.00     0.022 A 
ATOM      6  C   UNL d   1     -48.716  30.125  33.448  0.00  0.00     0.019 C 
ATOM      7  C   UNL d   1     -47.837  29.264  36.125  0.00  0.00     0.019 C 
ENDROOT
BRANCH   3   8
ATOM      8  C   UNL d   1     -48.984  28.198  34.255  0.00  0.00     0.204 C 
ATOM      9  O   UNL d   1     -48.456  27.554  34.218  0.00  0.00    -0.286 OA
BRANCH   8  10
ATOM     10  C   UNL d   1     -49.626  27.690  34.150  0.00  0.00     0.080 C 
BRANCH  10  11
ATOM     11  S   UNL d   1     -49.668  27.216  33.472  0.00  0.00    -0.043 SA
BRANCH  11  12
ATOM     12  C   UNL d   1     -50.237  26.622  33.415  0.00  0.00     0.233 A 
ATOM     13  N   UNL d   1     -51.053  26.735  33.404  0.00  0.00    -0.029 NA
ATOM     14  C   UNL d   1     -51.407  25.996  33.342  0.00  0.00     0.788 A 
ATOM     15  N   UNL d   1     -52.219  25.846  33.312  0.00  0.00     0.064 N 
ATOM     16  N   UNL d   1     -50.809  25.431  33.314  0.00  0.00     0.050 NA
ATOM     17  N   UNL d   1     -50.074  25.817  33.359  0.00  0.00    -0.105 NA
ENDBRANCH  11  12
ENDBRANCH  10  11
ENDBRANCH   8  10
ENDBRANCH   3   8
BRANCH   1  18
ATOM     18  C   UNL d   1     -47.876  30.898  34.822  0.00  0.00     0.094 A 
ATOM     19  C   UNL d   1     -48.155  31.417  34.292  0.00  0.00     0.050 A 
ATOM     20  C   UNL d   1     -47.886  32.207  34.325  0.00  0.00     0.142 A 
ATOM     21  F   UNL d   1     -48.171  32.761  33.775  0.00  0.00    -0.204 F 
ATOM     22  C   UNL d   1     -47.344  32.436  34.899  0.00  0.00     0.032 A 
ATOM     23  C   UNL d   1     -47.062  31.895  35.441  0.00  0.00     0.034 A 
ATOM     24  C   UNL d   1     -47.329  31.114  35.406  0.00  0.00     0.156 A 
ATOM     25  F   UNL d   1     -46.847  30.916  36.064  0.00  0.00    -0.203 F 
ENDBRANCH   1  18
TORSDOF 5
ENDMDL
