MODEL 1
REMARK VINA RESULT:      -2.3      0.000      0.000
REMARK  4 active torsions:
REMARK  status: ('A' for Active; 'I' for Inactive)
REMARK    1  A    between atoms: N_15  and  C_2 
REMARK    2  A    between atoms: C_3  and  C_9 
REMARK    3  A    between atoms: C_11  and  C_7 
REMARK       I    between atoms: C_9  and  N_14 
REMARK    4  A    between atoms: N_14  and  N_15 
ROOT
ATOM      1  C   UNL d   1      57.813  -0.054  30.533  0.00  0.00     0.062 A 
ATOM      2  N   UNL d   1      57.863  -0.061  32.181  0.00  0.00    -0.245 NA
ATOM      3  C   UNL d   1      57.173  -0.308  31.786  0.00  0.00     0.087 A 
ATOM      4  C   UNL d   1      57.159  -0.301  30.958  0.00  0.00     0.025 A 
ATOM      5  C   UNL d   1      58.494   0.190  30.943  0.00  0.00     0.022 A 
ATOM      6  C   UNL d   1      58.517   0.186  31.756  0.00  0.00     0.082 A 
ATOM      7  C   UNL d   1      59.148   0.437  30.503  0.00  0.00     0.002 A 
ATOM      8  C   UNL d   1      59.188   0.427  32.149  0.00  0.00     0.019 A 
ATOM      9  C   UNL d   1      59.831   0.682  30.902  0.00  0.00     0.000 A 
ATOM     10  C   UNL d   1      59.848   0.676  31.720  0.00  0.00     0.002 A 
ENDROOT
BRANCH   1  11
ATOM     11  C   UNL d   1      57.786  -0.052  29.713  0.00  0.00     0.297 C 
ATOM     12  N   UNL d   1      58.001  -0.762  29.369  0.00  0.00    -0.104 NA
ATOM     13  O   UNL d   1      57.543   0.680  29.402  0.00  0.00    -0.264 OA
BRANCH  12  14
ATOM     14  N   UNL d   1      58.218  -1.393  29.846  0.00  0.00    -0.118 NA
BRANCH  14  15
ATOM     15  C   UNL d   1      58.652  -2.028  29.530  0.00  0.00     0.215 A 
ATOM     16  N   UNL d   1      59.464  -2.050  29.420  0.00  0.00    -0.219 NA
ATOM     17  C   UNL d   1      59.670  -2.773  29.096  0.00  0.00     0.090 A 
ATOM     18  C   UNL d   1      58.968  -3.208  29.004  0.00  0.00     0.050 A 
ATOM     19  C   UNL d   1      60.388  -3.100  28.872  0.00  0.00     0.018 A 
ATOM     20  C   UNL d   1      58.983  -3.970  28.688  0.00  0.00     0.008 A 
ATOM     21  S   UNL d   1      58.345  -2.745  29.272  0.00  0.00    -0.045 SA
ATOM     22  C   UNL d   1      59.717  -4.291  28.465  0.00  0.00     0.001 A 
ATOM     23  C   UNL d   1      60.413  -3.861  28.556  0.00  0.00     0.002 A 
ATOM     24  C   UNL d   1      61.086  -2.664  28.966  0.00  0.00     0.002 C 
ENDBRANCH  14  15
ENDBRANCH  12  14
ENDBRANCH   1  11
BRANCH   3  25
ATOM     25  C   UNL d   1      56.509  -0.559  32.218  0.00  0.00     0.047 A 
ATOM     26  S   UNL d   1      56.054  -0.009  32.631  0.00  0.00    -0.085 SA
ATOM     27  C   UNL d   1      55.434  -0.407  33.006  0.00  0.00     0.035 A 
ATOM     28  C   UNL d   1      55.512  -1.188  32.824  0.00  0.00     0.007 A 
ATOM     29  C   UNL d   1      56.175  -1.300  32.334  0.00  0.00     0.009 A 
ENDBRANCH   3  25
TORSDOF 4
ENDMDL
MODEL 2
REMARK VINA RESULT:       0.2      1.082      2.480
REMARK  4 active torsions:
REMARK  status: ('A' for Active; 'I' for Inactive)
REMARK    1  A    between atoms: N_15  and  C_2 
REMARK    2  A    between atoms: C_3  and  C_9 
REMARK    3  A    between atoms: C_11  and  C_7 
REMARK       I    between atoms: C_9  and  N_14 
REMARK    4  A    between atoms: N_14  and  N_15 
ROOT
ATOM      1  C   UNL d   1      57.810   0.234  30.798  0.00  0.00     0.062 A 
ATOM      2  N   UNL d   1      58.538   0.561  32.240  0.00  0.00    -0.245 NA
ATOM      3  C   UNL d   1      59.000   0.472  31.554  0.00  0.00     0.087 A 
ATOM      4  C   UNL d   1      58.624   0.308  30.835  0.00  0.00     0.025 A 
ATOM      5  C   UNL d   1      57.364   0.326  31.494  0.00  0.00     0.022 A 
ATOM      6  C   UNL d   1      57.725   0.488  32.204  0.00  0.00     0.082 A 
ATOM      7  C   UNL d   1      56.543   0.249  31.444  0.00  0.00     0.002 A 
ATOM      8  C   UNL d   1      57.279   0.576  32.880  0.00  0.00     0.019 A 
ATOM      9  C   UNL d   1      56.089   0.339  32.131  0.00  0.00     0.000 A 
ATOM     10  C   UNL d   1      56.457   0.502  32.843  0.00  0.00     0.002 A 
ENDROOT
BRANCH   1  11
ATOM     11  C   UNL d   1      57.450   0.071  30.079  0.00  0.00     0.297 C 
ATOM     12  N   UNL d   1      57.675  -0.641  29.746  0.00  0.00    -0.104 NA
ATOM     13  O   UNL d   1      56.927   0.672  29.839  0.00  0.00    -0.264 OA
BRANCH  12  14
ATOM     14  N   UNL d   1      58.216  -1.117  30.137  0.00  0.00    -0.118 NA
BRANCH  14  15
ATOM     15  C   UNL d   1      58.506  -1.807  29.774  0.00  0.00     0.215 A 
ATOM     16  N   UNL d   1      59.281  -2.074  29.793  0.00  0.00    -0.219 NA
ATOM     17  C   UNL d   1      59.333  -2.772  29.369  0.00  0.00     0.090 A 
ATOM     18  C   UNL d   1      58.571  -2.941  29.082  0.00  0.00     0.050 A 
ATOM     19  C   UNL d   1      59.956  -3.278  29.202  0.00  0.00     0.018 A 
ATOM     20  C   UNL d   1      58.433  -3.616  28.627  0.00  0.00     0.008 A 
ATOM     21  S   UNL d   1      58.066  -2.345  29.334  0.00  0.00    -0.045 SA
ATOM     22  C   UNL d   1      59.073  -4.121  28.464  0.00  0.00     0.001 A 
ATOM     23  C   UNL d   1      59.827  -3.954  28.748  0.00  0.00     0.002 A 
ATOM     24  C   UNL d   1      60.714  -3.107  29.490  0.00  0.00     0.002 C 
ENDBRANCH  14  15
ENDBRANCH  12  14
ENDBRANCH   1  11
BRANCH   3  25
ATOM     25  C   UNL d   1      59.827   0.547  31.591  0.00  0.00     0.047 A 
ATOM     26  S   UNL d   1      60.207   0.578  32.322  0.00  0.00    -0.085 SA
ATOM     27  C   UNL d   1      61.020   0.653  32.195  0.00  0.00     0.035 A 
ATOM     28  C   UNL d   1      61.133   0.667  31.399  0.00  0.00     0.007 A 
ATOM     29  C   UNL d   1      60.402   0.602  31.007  0.00  0.00     0.009 A 
ENDBRANCH   3  25
TORSDOF 4
ENDMDL
