MODEL 1
REMARK VINA RESULT:       7.4      0.000      0.000
REMARK  4 active torsions:
REMARK  status: ('A' for Active; 'I' for Inactive)
REMARK    1  A    between atoms: S_6  and  C_1 
REMARK    2  A    between atoms: C_7  and  S_6 
REMARK    3  A    between atoms: C_10  and  C_7 
REMARK    4  A    between atoms: C_11  and  C_10 
ROOT
ATOM      1  C   UNL d   1      13.761  12.034  -2.622  0.00  0.00     0.194 A 
ATOM      2  N   UNL d   1      13.419  11.779  -1.896  0.00  0.00    -0.220 NA
ATOM      3  N   UNL d   1      14.491  12.379  -2.445  0.00  0.00    -0.220 NA
ATOM      4  C   UNL d   1      13.929  11.966  -1.298  0.00  0.00     0.101 A 
ATOM      5  C   UNL d   1      14.606  12.345  -1.646  0.00  0.00     0.101 A 
ATOM      6  C   UNL d   1      13.930  11.873  -0.472  0.00  0.00     0.021 A 
ATOM      7  C   UNL d   1      15.226  12.600  -1.166  0.00  0.00     0.021 A 
ATOM      8  C   UNL d   1      15.190  12.489  -0.349  0.00  0.00     0.002 A 
ATOM      9  C   UNL d   1      14.536  12.123  -0.014  0.00  0.00     0.002 A 
ENDROOT
BRANCH   1  10
ATOM     10  S   UNL d   1      13.144  11.780  -3.104  0.00  0.00    -0.048 SA
BRANCH  10  11
ATOM     11  C   UNL d   1      12.951  12.192  -3.794  0.00  0.00     0.038 C 
BRANCH  11  12
ATOM     12  C   UNL d   1      12.863  11.779  -4.503  0.00  0.00     0.007 C 
BRANCH  12  13
ATOM     13  C   UNL d   1      13.102  12.139  -5.193  0.00  0.00     0.001 C 
ATOM     14  C   UNL d   1      12.907  11.781  -5.911  0.00  0.00     0.000 C 
ATOM     15  C   UNL d   1      13.517  12.812  -5.416  0.00  0.00     0.000 C 
ENDBRANCH  12  13
ENDBRANCH  11  12
ENDBRANCH  10  11
ENDBRANCH   1  10
TORSDOF 4
ENDMDL
