MODEL 1
REMARK VINA RESULT:      36.4      0.000      0.000
REMARK  4 active torsions:
REMARK  status: ('A' for Active; 'I' for Inactive)
REMARK    1  A    between atoms: C_6  and  C_1 
REMARK    2  A    between atoms: C_8  and  N_3 
REMARK    3  A    between atoms: C_7  and  C_4 
REMARK    4  A    between atoms: O_16  and  C_13 
ROOT
ATOM      1  C   UNL d   1      59.802  49.611  50.379  0.00  0.00     0.103 A 
ATOM      2  N   UNL d   1      59.003  49.642  51.563  0.00  0.00    -0.165 NA
ATOM      3  N   UNL d   1      58.376  49.612  50.288  0.00  0.00    -0.228 N 
ATOM      4  C   UNL d   1      59.739  49.632  51.201  0.00  0.00     0.109 A 
ATOM      5  C   UNL d   1      59.112  49.602  49.926  0.00  0.00     0.108 A 
ENDROOT
BRANCH   4   6
ATOM      6  C   UNL d   1      60.421  49.642  51.658  0.00  0.00     0.020 A 
ATOM      7  C   UNL d   1      60.365  49.684  52.482  0.00  0.00     0.004 A 
ATOM      8  C   UNL d   1      61.056  49.693  52.944  0.00  0.00     0.024 A 
ATOM      9  C   UNL d   1      61.794  49.661  52.580  0.00  0.00     0.094 A 
ATOM     10  C   UNL d   1      61.849  49.620  51.756  0.00  0.00     0.024 A 
ATOM     11  C   UNL d   1      61.158  49.610  51.294  0.00  0.00     0.004 A 
BRANCH   9  12
ATOM     12  O   UNL d   1      62.505  49.672  53.053  0.00  0.00    -0.328 OA
ATOM     13  C   UNL d   1      62.448  49.687  53.896  0.00  0.00     0.181 C 
ENDBRANCH   9  12
ENDBRANCH   4   6
BRANCH   1  14
ATOM     14  C   UNL d   1      60.539  49.601  50.017  0.00  0.00     0.214 C 
ATOM     15  O   UNL d   1      61.227  49.529  50.466  0.00  0.00    -0.644 OA
ATOM     16  O   UNL d   1      60.600  49.665  49.162  0.00  0.00    -0.644 OA
ENDBRANCH   1  14
BRANCH   3  17
ATOM     17  C   UNL d   1      57.594  49.607  50.023  0.00  0.00     0.083 A 
ATOM     18  C   UNL d   1      56.975  49.603  50.564  0.00  0.00     0.019 A 
ATOM     19  C   UNL d   1      56.193  49.598  50.298  0.00  0.00     0.002 A 
ATOM     20  C   UNL d   1      56.033  49.598  49.491  0.00  0.00     0.000 A 
ATOM     21  C   UNL d   1      56.653  49.603  48.949  0.00  0.00     0.002 A 
ATOM     22  C   UNL d   1      57.433  49.608  49.215  0.00  0.00     0.019 A 
ENDBRANCH   3  17
TORSDOF 4
ENDMDL
