MODEL 1
REMARK VINA RESULT:      -4.3      0.000      0.000
REMARK  4 active torsions:
REMARK  status: ('A' for Active; 'I' for Inactive)
REMARK    1  A    between atoms: C_7  and  C_1 
REMARK    2  A    between atoms: O_10  and  C_2 
REMARK    3  A    between atoms: C_17  and  O_10 
REMARK    4  A    between atoms: C_19  and  C_12 
ROOT
ATOM      1  C   UNL d   1      58.853   0.105  30.079  0.00  0.00     0.197 A 
ATOM      2  C   UNL d   1      58.441  -0.572  29.837  0.00  0.00     0.165 A 
ATOM      3  O   UNL d   1      58.629   0.473  30.772  0.00  0.00    -0.301 OA
ATOM      4  C   UNL d   1      57.816  -0.861  30.295  0.00  0.00     0.222 A 
ATOM      5  C   UNL d   1      57.617  -0.476  30.975  0.00  0.00     0.064 A 
ATOM      6  C   UNL d   1      58.030   0.201  31.217  0.00  0.00     0.106 A 
ATOM      7  C   UNL d   1      56.992  -0.766  31.433  0.00  0.00     0.008 A 
ATOM      8  C   UNL d   1      57.805   0.569  31.910  0.00  0.00     0.067 A 
ATOM      9  C   UNL d   1      57.197   0.297  32.368  0.00  0.00     0.198 A 
ATOM     10  C   UNL d   1      56.784  -0.380  32.126  0.00  0.00     0.039 A 
ATOM     11  O   UNL d   1      57.414  -1.520  30.060  0.00  0.00    -0.284 OA
ATOM     12  O   UNL d   1      56.983   0.682  33.066  0.00  0.00    -0.286 OA
ENDROOT
BRANCH   2  13
ATOM     13  O   UNL d   1      58.653  -0.958  29.139  0.00  0.00    -0.302 OA
BRANCH  13  14
ATOM     14  C   UNL d   1      58.925  -1.732  29.163  0.00  0.00     0.100 A 
ATOM     15  C   UNL d   1      58.467  -2.328  28.811  0.00  0.00     0.025 A 
ATOM     16  C   UNL d   1      58.734  -3.087  28.836  0.00  0.00     0.002 A 
ATOM     17  C   UNL d   1      59.462  -3.259  29.212  0.00  0.00     0.000 A 
ATOM     18  C   UNL d   1      59.895  -2.673  29.548  0.00  0.00     0.002 A 
ATOM     19  C   UNL d   1      59.622  -1.899  29.523  0.00  0.00     0.025 A 
ENDBRANCH  13  14
ENDBRANCH   2  13
BRANCH   1  20
ATOM     20  C   UNL d   1      59.476   0.393  29.621  0.00  0.00     0.442 C 
ATOM     21  F   UNL d   1      60.111   0.682  29.162  0.00  0.00    -0.164 F 
ATOM     22  F   UNL d   1      60.012   0.155  30.202  0.00  0.00    -0.164 F 
ATOM     23  F   UNL d   1      58.937   0.630  29.041  0.00  0.00    -0.164 F 
ENDBRANCH   1  20
BRANCH  10  24
ATOM     24  C   UNL d   1      56.160  -0.669  32.583  0.00  0.00     0.003 C 
ATOM     25  C   UNL d   1      56.165  -1.455  32.831  0.00  0.00     0.000 C 
ENDBRANCH  10  24
TORSDOF 4
ENDMDL
MODEL 2
REMARK VINA RESULT:      -2.7      1.395      2.279
REMARK  4 active torsions:
REMARK  status: ('A' for Active; 'I' for Inactive)
REMARK    1  A    between atoms: C_7  and  C_1 
REMARK    2  A    between atoms: O_10  and  C_2 
REMARK    3  A    between atoms: C_17  and  O_10 
REMARK    4  A    between atoms: C_19  and  C_12 
ROOT
ATOM      1  C   UNL d   1      58.197  -1.615  29.688  0.00  0.00     0.197 A 
ATOM      2  C   UNL d   1      58.428  -0.836  29.526  0.00  0.00     0.165 A 
ATOM      3  O   UNL d   1      57.723  -1.755  30.338  0.00  0.00    -0.301 OA
ATOM      4  C   UNL d   1      58.180  -0.219  30.017  0.00  0.00     0.222 A 
ATOM      5  C   UNL d   1      57.712  -0.388  30.652  0.00  0.00     0.064 A 
ATOM      6  C   UNL d   1      57.480  -1.167  30.814  0.00  0.00     0.106 A 
ATOM      7  C   UNL d   1      57.463   0.229  31.143  0.00  0.00     0.008 A 
ATOM      8  C   UNL d   1      57.006  -1.307  31.464  0.00  0.00     0.067 A 
ATOM      9  C   UNL d   1      56.755  -0.714  31.953  0.00  0.00     0.198 A 
ATOM     10  C   UNL d   1      56.987   0.065  31.791  0.00  0.00     0.039 A 
ATOM     11  O   UNL d   1      58.405   0.539  29.859  0.00  0.00    -0.284 OA
ATOM     12  O   UNL d   1      56.276  -0.873  32.606  0.00  0.00    -0.286 OA
ENDROOT
BRANCH   2  13
ATOM     13  O   UNL d   1      58.908  -0.674  28.873  0.00  0.00    -0.302 OA
BRANCH  13  14
ATOM     14  C   UNL d   1      59.652  -0.345  28.980  0.00  0.00     0.100 A 
ATOM     15  C   UNL d   1      60.201  -0.745  29.457  0.00  0.00     0.025 A 
ATOM     16  C   UNL d   1      60.930  -0.422  29.562  0.00  0.00     0.002 A 
ATOM     17  C   UNL d   1      61.120   0.305  29.193  0.00  0.00     0.000 A 
ATOM     18  C   UNL d   1      60.580   0.681  28.734  0.00  0.00     0.002 A 
ATOM     19  C   UNL d   1      59.835   0.352  28.627  0.00  0.00     0.025 A 
ENDBRANCH  13  14
ENDBRANCH   2  13
BRANCH   1  20
ATOM     20  C   UNL d   1      58.446  -2.229  29.197  0.00  0.00     0.442 C 
ATOM     21  F   UNL d   1      58.702  -2.852  28.704  0.00  0.00    -0.164 F 
ATOM     22  F   UNL d   1      58.943  -2.505  29.796  0.00  0.00    -0.164 F 
ATOM     23  F   UNL d   1      57.947  -1.950  28.599  0.00  0.00    -0.164 F 
ENDBRANCH   1  20
BRANCH  10  24
ATOM     24  C   UNL d   1      56.738   0.682  32.281  0.00  0.00     0.003 C 
ATOM     25  C   UNL d   1      56.928   0.669  33.082  0.00  0.00     0.000 C 
ENDBRANCH  10  24
TORSDOF 4
ENDMDL
MODEL 3
REMARK VINA RESULT:      -2.5      1.477      3.746
REMARK  4 active torsions:
REMARK  status: ('A' for Active; 'I' for Inactive)
REMARK    1  A    between atoms: C_7  and  C_1 
REMARK    2  A    between atoms: O_10  and  C_2 
REMARK    3  A    between atoms: C_17  and  O_10 
REMARK    4  A    between atoms: C_19  and  C_12 
ROOT
ATOM      1  C   UNL d   1      60.253  -0.636  29.496  0.00  0.00     0.197 A 
ATOM      2  C   UNL d   1      59.449  -0.552  29.315  0.00  0.00     0.165 A 
ATOM      3  O   UNL d   1      60.595  -1.373  29.426  0.00  0.00    -0.301 OA
ATOM      4  C   UNL d   1      59.009  -1.207  29.069  0.00  0.00     0.222 A 
ATOM      5  C   UNL d   1      59.374  -1.924  29.009  0.00  0.00     0.064 A 
ATOM      6  C   UNL d   1      60.179  -2.008  29.190  0.00  0.00     0.106 A 
ATOM      7  C   UNL d   1      58.934  -2.580  28.764  0.00  0.00     0.008 A 
ATOM      8  C   UNL d   1      60.520  -2.746  29.120  0.00  0.00     0.067 A 
ATOM      9  C   UNL d   1      60.103  -3.396  28.881  0.00  0.00     0.198 A 
ATOM     10  C   UNL d   1      59.298  -3.312  28.700  0.00  0.00     0.039 A 
ATOM     11  O   UNL d   1      58.227  -1.126  28.893  0.00  0.00    -0.284 OA
ATOM     12  O   UNL d   1      60.464  -4.135  28.816  0.00  0.00    -0.286 OA
ENDROOT
BRANCH   2  13
ATOM     13  O   UNL d   1      59.085   0.187  29.379  0.00  0.00    -0.302 OA
BRANCH  13  14
ATOM     14  C   UNL d   1      58.487   0.305  29.929  0.00  0.00     0.100 A 
ATOM     15  C   UNL d   1      58.646   0.155  30.730  0.00  0.00     0.025 A 
ATOM     16  C   UNL d   1      58.059   0.270  31.269  0.00  0.00     0.002 A 
ATOM     17  C   UNL d   1      57.307   0.536  31.014  0.00  0.00     0.000 A 
ATOM     18  C   UNL d   1      57.168   0.677  30.237  0.00  0.00     0.002 A 
ATOM     19  C   UNL d   1      57.766   0.560  29.687  0.00  0.00     0.025 A 
ENDBRANCH  13  14
ENDBRANCH   2  13
BRANCH   1  20
ATOM     20  C   UNL d   1      60.690   0.020  29.740  0.00  0.00     0.442 C 
ATOM     21  F   UNL d   1      61.133   0.681  29.994  0.00  0.00    -0.164 F 
ATOM     22  F   UNL d   1      60.739  -0.298  30.501  0.00  0.00    -0.164 F 
ATOM     23  F   UNL d   1      60.640   0.335  28.978  0.00  0.00    -0.164 F 
ENDBRANCH   1  20
BRANCH  10  24
ATOM     24  C   UNL d   1      58.859  -3.967  28.455  0.00  0.00     0.003 C 
ATOM     25  C   UNL d   1      58.053  -4.005  28.623  0.00  0.00     0.000 C 
ENDBRANCH  10  24
TORSDOF 4
ENDMDL
