MODEL 1
REMARK VINA RESULT:      -5.3      0.000      0.000
REMARK  5 active torsions:
REMARK  status: ('A' for Active; 'I' for Inactive)
REMARK    1  A    between atoms: N_2  and  S_1 
REMARK    2  A    between atoms: C_14  and  S_1 
REMARK    3  A    between atoms: C_4  and  N_2 
REMARK    4  A    between atoms: S_6  and  C_3 
REMARK    5  A    between atoms: C_10  and  S_6 
ROOT
ATOM      1  C   UNL d   1     -40.359  14.787  18.847  0.00  0.00     0.070 A 
ATOM      2  C   UNL d   1     -39.689  14.555  17.610  0.00  0.00     0.095 A 
ATOM      3  C   UNL d   1     -40.926  15.240  18.455  0.00  0.00     0.202 A 
ATOM      4  C   UNL d   1     -39.740  14.444  18.424  0.00  0.00     0.030 A 
ATOM      5  C   UNL d   1     -40.874  15.351  17.641  0.00  0.00     0.041 A 
ATOM      6  C   UNL d   1     -40.256  15.008  17.218  0.00  0.00     0.022 A 
ATOM      7  O   UNL d   1     -41.559  15.591  18.882  0.00  0.00    -0.286 OA
ATOM      8  C   UNL d   1     -41.448  15.809  17.244  0.00  0.00     0.003 A 
ATOM      9  C   UNL d   1     -40.203  15.118  16.401  0.00  0.00     0.002 A 
ATOM     10  C   UNL d   1     -41.396  15.919  16.431  0.00  0.00     0.000 A 
ATOM     11  C   UNL d   1     -40.776  15.576  16.004  0.00  0.00     0.000 A 
ENDROOT
BRANCH   1  12
ATOM     12  S   UNL d   1     -40.409  14.676  19.661  0.00  0.00    -0.082 SA
BRANCH  12  13
ATOM     13  C   UNL d   1     -40.461  14.562  20.477  0.00  0.00     0.047 A 
ATOM     14  C   UNL d   1     -39.851  14.812  20.972  0.00  0.00     0.087 A 
ATOM     15  N   UNL d   1     -39.186  15.179  20.648  0.00  0.00    -0.244 NA
ATOM     16  C   UNL d   1     -39.906  14.697  21.785  0.00  0.00     0.018 A 
ATOM     17  C   UNL d   1     -38.576  15.430  21.143  0.00  0.00     0.099 A 
ATOM     18  C   UNL d   1     -38.634  15.313  21.960  0.00  0.00     0.021 A 
ATOM     19  C   UNL d   1     -39.289  14.950  22.285  0.00  0.00     0.003 A 
ATOM     20  C   UNL d   1     -40.565  14.333  22.109  0.00  0.00     0.002 A 
ATOM     21  C   UNL d   1     -41.181  14.078  21.623  0.00  0.00     0.001 A 
ATOM     22  C   UNL d   1     -41.131  14.192  20.802  0.00  0.00     0.008 A 
ENDBRANCH  12  13
ENDBRANCH   1  12
BRANCH   2  23
ATOM     23  N   UNL d   1     -39.057  14.204  17.183  0.00  0.00    -0.158 NA
BRANCH  23  24
ATOM     24  S   UNL d   1     -38.780  13.456  17.401  0.00  0.00     0.285 S 
ATOM     25  O   UNL d   1     -38.059  13.792  17.652  0.00  0.00    -0.198 OA
ATOM     26  O   UNL d   1     -39.493  13.120  17.154  0.00  0.00    -0.198 OA
BRANCH  24  27
ATOM     27  C   UNL d   1     -38.503  12.704  17.620  0.00  0.00     0.105 A 
ATOM     28  C   UNL d   1     -38.502  12.089  17.072  0.00  0.00     0.013 A 
ATOM     29  C   UNL d   1     -38.225  11.334  17.286  0.00  0.00     0.001 A 
ATOM     30  C   UNL d   1     -37.949  11.201  18.057  0.00  0.00     0.000 A 
ATOM     31  C   UNL d   1     -37.953  11.828  18.607  0.00  0.00     0.001 A 
ATOM     32  C   UNL d   1     -38.228  12.571  18.387  0.00  0.00     0.013 A 
ENDBRANCH  24  27
ENDBRANCH  23  24
ENDBRANCH   2  23
TORSDOF 5
ENDMDL
MODEL 2
REMARK VINA RESULT:      -3.4      7.639     10.019
REMARK  5 active torsions:
REMARK  status: ('A' for Active; 'I' for Inactive)
REMARK    1  A    between atoms: N_2  and  S_1 
REMARK    2  A    between atoms: C_14  and  S_1 
REMARK    3  A    between atoms: C_4  and  N_2 
REMARK    4  A    between atoms: S_6  and  C_3 
REMARK    5  A    between atoms: C_10  and  S_6 
ROOT
ATOM      1  C   UNL d   1     -47.801  11.802  23.293  0.00  0.00     0.070 A 
ATOM      2  C   UNL d   1     -46.506  12.389  23.388  0.00  0.00     0.095 A 
ATOM      3  C   UNL d   1     -47.469  11.054  23.391  0.00  0.00     0.202 A 
ATOM      4  C   UNL d   1     -47.319  12.471  23.291  0.00  0.00     0.030 A 
ATOM      5  C   UNL d   1     -46.655  10.973  23.488  0.00  0.00     0.041 A 
ATOM      6  C   UNL d   1     -46.174  11.640  23.486  0.00  0.00     0.022 A 
ATOM      7  O   UNL d   1     -47.957  10.369  23.394  0.00  0.00    -0.286 OA
ATOM      8  C   UNL d   1     -46.320  10.216  23.587  0.00  0.00     0.003 A 
ATOM      9  C   UNL d   1     -45.356  11.561  23.583  0.00  0.00     0.002 A 
ATOM     10  C   UNL d   1     -45.507  10.135  23.684  0.00  0.00     0.000 A 
ATOM     11  C   UNL d   1     -45.021  10.804  23.683  0.00  0.00     0.000 A 
ENDROOT
BRANCH   1  12
ATOM     12  S   UNL d   1     -48.614  11.884  23.196  0.00  0.00    -0.082 SA
BRANCH  12  13
ATOM     13  C   UNL d   1     -49.430  11.969  23.097  0.00  0.00     0.047 A 
ATOM     14  C   UNL d   1     -49.733  12.302  22.406  0.00  0.00     0.087 A 
ATOM     15  N   UNL d   1     -49.217  12.552  21.813  0.00  0.00    -0.244 NA
ATOM     16  C   UNL d   1     -50.546  12.385  22.311  0.00  0.00     0.018 A 
ATOM     17  C   UNL d   1     -49.520  12.886  21.122  0.00  0.00     0.099 A 
ATOM     18  C   UNL d   1     -50.338  12.968  21.029  0.00  0.00     0.021 A 
ATOM     19  C   UNL d   1     -50.852  12.722  21.613  0.00  0.00     0.003 A 
ATOM     20  C   UNL d   1     -51.060  12.137  22.899  0.00  0.00     0.002 A 
ATOM     21  C   UNL d   1     -50.768  11.801  23.594  0.00  0.00     0.001 A 
ATOM     22  C   UNL d   1     -49.948  11.716  23.696  0.00  0.00     0.008 A 
ENDBRANCH  12  13
ENDBRANCH   1  12
BRANCH   2  23
ATOM     23  N   UNL d   1     -46.018  13.073  23.386  0.00  0.00    -0.158 NA
BRANCH  23  24
ATOM     24  S   UNL d   1     -46.286  13.767  23.026  0.00  0.00     0.285 S 
ATOM     25  O   UNL d   1     -46.750  13.940  23.698  0.00  0.00    -0.198 OA
ATOM     26  O   UNL d   1     -45.828  13.599  22.359  0.00  0.00    -0.198 OA
BRANCH  24  27
ATOM     27  C   UNL d   1     -46.555  14.465  22.663  0.00  0.00     0.105 A 
ATOM     28  C   UNL d   1     -46.151  14.777  22.018  0.00  0.00     0.013 A 
ATOM     29  C   UNL d   1     -46.416  15.475  21.650  0.00  0.00     0.001 A 
ATOM     30  C   UNL d   1     -47.093  15.858  21.938  0.00  0.00     0.000 A 
ATOM     31  C   UNL d   1     -47.498  15.537  22.592  0.00  0.00     0.001 A 
ATOM     32  C   UNL d   1     -47.229  14.846  22.949  0.00  0.00     0.013 A 
ENDBRANCH  24  27
ENDBRANCH  23  24
ENDBRANCH   2  23
TORSDOF 5
ENDMDL
