MODEL 1
REMARK VINA RESULT:      -9.1      0.000      0.000
REMARK  3 active torsions:
REMARK  status: ('A' for Active; 'I' for Inactive)
REMARK    1  A    between atoms: N_2  and  S_1 
REMARK    2  A    between atoms: C_3  and  S_1 
REMARK    3  A    between atoms: C_10  and  C_9 
ROOT
ATOM      1  C   UNL d   1      54.438  33.129  54.555  0.00  0.00     0.104 A 
ATOM      2  C   UNL d   1      53.780  31.724  53.978  0.00  0.00     0.000 A 
ATOM      3  C   UNL d   1      53.981  32.654  55.048  0.00  0.00     0.013 A 
ATOM      4  C   UNL d   1      54.568  32.904  53.769  0.00  0.00     0.013 A 
ATOM      5  C   UNL d   1      54.239  32.200  53.480  0.00  0.00     0.001 A 
ATOM      6  C   UNL d   1      53.651  31.951  54.759  0.00  0.00     0.001 A 
ENDROOT
BRANCH   1   7
ATOM      7  S   UNL d   1      54.762  33.827  54.849  0.00  0.00     0.271 S 
ATOM      8  O   UNL d   1      55.438  33.429  55.072  0.00  0.00    -0.200 OA
ATOM      9  O   UNL d   1      55.078  34.527  55.140  0.00  0.00    -0.200 OA
BRANCH   7  10
ATOM     10  N   UNL d   1      54.082  34.238  54.627  0.00  0.00    -0.226 N 
ATOM     11  C   UNL d   1      53.476  34.352  55.184  0.00  0.00     0.111 A 
ATOM     12  C   UNL d   1      52.796  34.763  54.963  0.00  0.00     0.100 A 
ATOM     13  N   UNL d   1      52.726  35.052  54.198  0.00  0.00    -0.299 N 
ATOM     14  C   UNL d   1      53.322  34.941  53.646  0.00  0.00     0.100 A 
ATOM     15  C   UNL d   1      52.036  35.465  53.981  0.00  0.00     0.100 C 
ATOM     16  C   UNL d   1      54.003  34.531  53.864  0.00  0.00     0.111 A 
ENDBRANCH   7  10
ENDBRANCH   1   7
BRANCH   2  17
ATOM     17  C   UNL d   1      53.450  31.026  53.699  0.00  0.00     0.000 A 
ATOM     18  C   UNL d   1      52.937  31.033  53.056  0.00  0.00     0.001 A 
ATOM     19  C   UNL d   1      52.610  30.327  52.782  0.00  0.00     0.011 A 
ATOM     20  C   UNL d   1      52.796  29.614  53.150  0.00  0.00     0.058 A 
ATOM     21  C   UNL d   1      53.318  29.611  53.802  0.00  0.00     0.011 A 
ATOM     22 CL   UNL d   1      52.473  28.916  52.878  0.00  0.00    -0.082 Cl
ATOM     23  C   UNL d   1      53.638  30.314  54.068  0.00  0.00     0.001 A 
ENDBRANCH   2  17
TORSDOF 3
ENDMDL
MODEL 2
REMARK VINA RESULT:      -8.8      2.224      3.719
REMARK  3 active torsions:
REMARK  status: ('A' for Active; 'I' for Inactive)
REMARK    1  A    between atoms: N_2  and  S_1 
REMARK    2  A    between atoms: C_3  and  S_1 
REMARK    3  A    between atoms: C_10  and  C_9 
ROOT
ATOM      1  C   UNL d   1      53.142  34.044  54.058  0.00  0.00     0.104 A 
ATOM      2  C   UNL d   1      51.756  34.234  53.174  0.00  0.00     0.000 A 
ATOM      3  C   UNL d   1      52.421  33.789  54.361  0.00  0.00     0.013 A 
ATOM      4  C   UNL d   1      53.174  34.396  53.310  0.00  0.00     0.013 A 
ATOM      5  C   UNL d   1      52.480  34.491  52.867  0.00  0.00     0.001 A 
ATOM      6  C   UNL d   1      51.726  33.885  53.918  0.00  0.00     0.001 A 
ENDROOT
BRANCH   1   7
ATOM      7  S   UNL d   1      53.828  33.946  54.504  0.00  0.00     0.271 S 
ATOM      8  O   UNL d   1      53.774  34.715  54.771  0.00  0.00    -0.200 OA
ATOM      9  O   UNL d   1      54.512  33.841  54.945  0.00  0.00    -0.200 OA
BRANCH   7  10
ATOM     10  N   UNL d   1      53.891  33.167  54.238  0.00  0.00    -0.226 N 
ATOM     11  C   UNL d   1      53.564  32.556  54.695  0.00  0.00     0.111 A 
ATOM     12  C   UNL d   1      53.626  31.777  54.430  0.00  0.00     0.100 A 
ATOM     13  N   UNL d   1      54.008  31.617  53.721  0.00  0.00    -0.299 N 
ATOM     14  C   UNL d   1      54.331  32.219  53.269  0.00  0.00     0.100 A 
ATOM     15  C   UNL d   1      54.067  30.828  53.460  0.00  0.00     0.100 C 
ATOM     16  C   UNL d   1      54.271  32.998  53.530  0.00  0.00     0.111 A 
ENDBRANCH   7  10
ENDBRANCH   1   7
BRANCH   2  17
ATOM     17  C   UNL d   1      51.064  34.325  52.741  0.00  0.00     0.000 A 
ATOM     18  C   UNL d   1      50.377  34.598  53.103  0.00  0.00     0.001 A 
ATOM     19  C   UNL d   1      49.685  34.687  52.661  0.00  0.00     0.011 A 
ATOM     20  C   UNL d   1      49.681  34.503  51.859  0.00  0.00     0.058 A 
ATOM     21  C   UNL d   1      50.380  34.227  51.495  0.00  0.00     0.011 A 
ATOM     22 CL   UNL d   1      48.997  34.591  51.423  0.00  0.00    -0.082 Cl
ATOM     23  C   UNL d   1      51.061  34.142  51.939  0.00  0.00     0.001 A 
ENDBRANCH   2  17
TORSDOF 3
ENDMDL
MODEL 3
REMARK VINA RESULT:      -8.6      2.621      3.887
REMARK  3 active torsions:
REMARK  status: ('A' for Active; 'I' for Inactive)
REMARK    1  A    between atoms: N_2  and  S_1 
REMARK    2  A    between atoms: C_3  and  S_1 
REMARK    3  A    between atoms: C_10  and  C_9 
ROOT
ATOM      1  C   UNL d   1      52.794  32.254  53.087  0.00  0.00     0.104 A 
ATOM      2  C   UNL d   1      51.539  33.325  52.956  0.00  0.00     0.000 A 
ATOM      3  C   UNL d   1      52.083  32.105  53.473  0.00  0.00     0.013 A 
ATOM      4  C   UNL d   1      52.883  32.939  52.633  0.00  0.00     0.013 A 
ATOM      5  C   UNL d   1      52.254  33.476  52.567  0.00  0.00     0.001 A 
ATOM      6  C   UNL d   1      51.454  32.642  53.408  0.00  0.00     0.001 A 
ENDROOT
BRANCH   1   7
ATOM      7  S   UNL d   1      53.415  31.716  53.157  0.00  0.00     0.271 S 
ATOM      8  O   UNL d   1      53.067  31.230  52.601  0.00  0.00    -0.200 OA
ATOM      9  O   UNL d   1      54.036  31.185  53.232  0.00  0.00    -0.200 OA
BRANCH   7  10
ATOM     10  N   UNL d   1      53.773  32.201  53.720  0.00  0.00    -0.226 N 
ATOM     11  C   UNL d   1      54.337  32.759  53.474  0.00  0.00     0.111 A 
ATOM     12  C   UNL d   1      54.696  33.245  54.036  0.00  0.00     0.100 A 
ATOM     13  N   UNL d   1      54.492  33.170  54.828  0.00  0.00    -0.299 N 
ATOM     14  C   UNL d   1      53.937  32.620  55.073  0.00  0.00     0.100 A 
ATOM     15  C   UNL d   1      54.859  33.664  55.390  0.00  0.00     0.100 C 
ATOM     16  C   UNL d   1      53.576  32.133  54.514  0.00  0.00     0.111 A 
ENDBRANCH   7  10
ENDBRANCH   1   7
BRANCH   2  17
ATOM     17  C   UNL d   1      50.913  33.851  52.896  0.00  0.00     0.000 A 
ATOM     18  C   UNL d   1      50.691  34.314  53.538  0.00  0.00     0.001 A 
ATOM     19  C   UNL d   1      50.060  34.841  53.470  0.00  0.00     0.011 A 
ATOM     20  C   UNL d   1      49.650  34.905  52.759  0.00  0.00     0.058 A 
ATOM     21  C   UNL d   1      49.878  34.434  52.108  0.00  0.00     0.011 A 
ATOM     22 CL   UNL d   1      49.026  35.426  52.692  0.00  0.00    -0.082 Cl
ATOM     23  C   UNL d   1      50.504  33.914  52.184  0.00  0.00     0.001 A 
ENDBRANCH   2  17
TORSDOF 3
ENDMDL
MODEL 4
REMARK VINA RESULT:      -8.2      1.758      2.129
REMARK  3 active torsions:
REMARK  status: ('A' for Active; 'I' for Inactive)
REMARK    1  A    between atoms: N_2  and  S_1 
REMARK    2  A    between atoms: C_3  and  S_1 
REMARK    3  A    between atoms: C_10  and  C_9 
ROOT
ATOM      1  C   UNL d   1      52.845  33.811  53.443  0.00  0.00     0.104 A 
ATOM      2  C   UNL d   1      53.033  32.168  53.509  0.00  0.00     0.000 A 
ATOM      3  C   UNL d   1      52.646  33.399  54.128  0.00  0.00     0.013 A 
ATOM      4  C   UNL d   1      53.140  33.402  52.787  0.00  0.00     0.013 A 
ATOM      5  C   UNL d   1      53.234  32.579  52.820  0.00  0.00     0.001 A 
ATOM      6  C   UNL d   1      52.740  32.576  54.161  0.00  0.00     0.001 A 
ENDROOT
BRANCH   1   7
ATOM      7  S   UNL d   1      52.749  34.629  53.418  0.00  0.00     0.271 S 
ATOM      8  O   UNL d   1      53.485  34.734  53.753  0.00  0.00    -0.200 OA
ATOM      9  O   UNL d   1      52.645  35.443  53.390  0.00  0.00    -0.200 OA
BRANCH   7  10
ATOM     10  N   UNL d   1      52.003  34.531  53.079  0.00  0.00    -0.226 N 
ATOM     11  C   UNL d   1      51.332  34.524  53.570  0.00  0.00     0.111 A 
ATOM     12  C   UNL d   1      50.586  34.427  53.232  0.00  0.00     0.100 A 
ATOM     13  N   UNL d   1      50.516  34.339  52.418  0.00  0.00    -0.299 N 
ATOM     14  C   UNL d   1      51.176  34.345  51.932  0.00  0.00     0.100 A 
ATOM     15  C   UNL d   1      49.760  34.241  52.084  0.00  0.00     0.100 C 
ATOM     16  C   UNL d   1      51.923  34.442  52.267  0.00  0.00     0.111 A 
ENDBRANCH   7  10
ENDBRANCH   1   7
BRANCH   2  17
ATOM     17  C   UNL d   1      53.124  31.353  53.549  0.00  0.00     0.000 A 
ATOM     18  C   UNL d   1      53.682  31.017  54.052  0.00  0.00     0.001 A 
ATOM     19  C   UNL d   1      53.767  30.197  54.086  0.00  0.00     0.011 A 
ATOM     20  C   UNL d   1      53.294  29.713  53.619  0.00  0.00     0.058 A 
ATOM     21  C   UNL d   1      52.728  30.056  53.109  0.00  0.00     0.011 A 
ATOM     22 CL   UNL d   1      53.378  28.902  53.653  0.00  0.00    -0.082 Cl
ATOM     23  C   UNL d   1      52.650  30.869  53.080  0.00  0.00     0.001 A 
ENDBRANCH   2  17
TORSDOF 3
ENDMDL
