MODEL 1
REMARK VINA RESULT:      -7.2      0.000      0.000
REMARK  2 active torsions:
REMARK  status: ('A' for Active; 'I' for Inactive)
REMARK    1  A    between atoms: C_6  and  C_2 
REMARK    2  A    between atoms: O_13  and  C_10 
ROOT
ATOM      1  C   UNL d   1     -47.992  12.206  23.327  0.00  0.00     0.026 A 
ATOM      2  C   UNL d   1     -47.330  11.864  23.690  0.00  0.00     0.004 A 
ATOM      3  C   UNL d   1     -47.886  12.855  22.842  0.00  0.00     0.004 A 
ATOM      4  C   UNL d   1     -46.488  12.824  23.078  0.00  0.00     0.094 A 
ATOM      5  C   UNL d   1     -46.579  12.165  23.572  0.00  0.00     0.024 A 
ATOM      6  C   UNL d   1     -47.122  13.170  22.715  0.00  0.00     0.024 A 
ENDROOT
BRANCH   1   7
ATOM      7  C   UNL d   1     -48.747  11.897  23.451  0.00  0.00     0.135 A 
ATOM      8  S   UNL d   1     -49.453  12.317  23.438  0.00  0.00    -0.024 SA
ATOM      9  C   UNL d   1     -50.063  11.799  23.588  0.00  0.00     0.236 A 
ATOM     10  N   UNL d   1     -49.747  11.043  23.697  0.00  0.00    -0.119 NA
ATOM     11  N   UNL d   1     -50.864  11.994  23.624  0.00  0.00    -0.118 N 
ATOM     12  N   UNL d   1     -48.926  11.104  23.612  0.00  0.00    -0.139 NA
ENDBRANCH   1   7
BRANCH   4  13
ATOM     13  O   UNL d   1     -45.733  13.126  22.959  0.00  0.00    -0.328 OA
ATOM     14  C   UNL d   1     -45.466  13.292  22.199  0.00  0.00     0.181 C 
ENDBRANCH   4  13
TORSDOF 2
ENDMDL
