MODEL 1
REMARK VINA RESULT:      -8.2      0.000      0.000
REMARK  2 active torsions:
REMARK  status: ('A' for Active; 'I' for Inactive)
REMARK    1  A    between atoms: C_5  and  C_1 
REMARK    2  A    between atoms: C_7  and  C_5 
ROOT
ATOM      1  C   UNL d   1     -48.627  12.318  22.647  0.00  0.00     0.061 A 
ATOM      2  C   UNL d   1     -48.282  11.756  23.116  0.00  0.00     0.102 A 
ATOM      3  N   UNL d   1     -48.868  11.414  23.595  0.00  0.00    -0.244 NA
ATOM      4  C   UNL d   1     -49.426  12.338  22.822  0.00  0.00     0.022 A 
ATOM      5  C   UNL d   1     -49.575  11.783  23.405  0.00  0.00     0.082 A 
ATOM      6  C   UNL d   1     -50.041  12.801  22.515  0.00  0.00     0.002 A 
ATOM      7  C   UNL d   1     -50.341  11.674  23.698  0.00  0.00     0.019 A 
ATOM      8  C   UNL d   1     -50.804  12.692  22.809  0.00  0.00     0.000 A 
ATOM      9  C   UNL d   1     -50.953  12.137  23.392  0.00  0.00     0.002 A 
ENDROOT
BRANCH   1  10
ATOM     10  C   UNL d   1     -48.217  12.795  22.077  0.00  0.00     0.215 C 
ATOM     11  O   UNL d   1     -48.463  12.800  21.295  0.00  0.00    -0.285 OA
BRANCH  10  12
ATOM     12  C   UNL d   1     -47.568  13.252  22.329  0.00  0.00     0.120 A 
ATOM     13  N   UNL d   1     -47.692  14.013  22.621  0.00  0.00    -0.241 NA
ATOM     14  C   UNL d   1     -47.040  14.454  22.867  0.00  0.00     0.099 A 
ATOM     15  C   UNL d   1     -46.279  14.136  22.821  0.00  0.00     0.021 A 
ATOM     16  C   UNL d   1     -46.169  13.380  22.530  0.00  0.00     0.003 A 
ATOM     17  C   UNL d   1     -46.806  12.937  22.285  0.00  0.00     0.022 A 
ENDBRANCH  10  12
ENDBRANCH   1  10
TORSDOF 2
ENDMDL
MODEL 2
REMARK VINA RESULT:      -8.1      1.579      2.864
REMARK  2 active torsions:
REMARK  status: ('A' for Active; 'I' for Inactive)
REMARK    1  A    between atoms: C_5  and  C_1 
REMARK    2  A    between atoms: C_7  and  C_5 
ROOT
ATOM      1  C   UNL d   1     -47.825  13.533  22.726  0.00  0.00     0.061 A 
ATOM      2  C   UNL d   1     -47.212  14.043  22.865  0.00  0.00     0.102 A 
ATOM      3  N   UNL d   1     -46.605  13.630  23.252  0.00  0.00    -0.244 NA
ATOM      4  C   UNL d   1     -47.615  12.798  23.020  0.00  0.00     0.022 A 
ATOM      5  C   UNL d   1     -46.865  12.858  23.343  0.00  0.00     0.082 A 
ATOM      6  C   UNL d   1     -48.022  12.077  23.031  0.00  0.00     0.002 A 
ATOM      7  C   UNL d   1     -46.501  12.198  23.686  0.00  0.00     0.019 A 
ATOM      8  C   UNL d   1     -47.658  11.420  23.373  0.00  0.00     0.000 A 
ATOM      9  C   UNL d   1     -46.908  11.480  23.696  0.00  0.00     0.002 A 
ENDROOT
BRANCH   1  10
ATOM     10  C   UNL d   1     -48.553  13.739  22.341  0.00  0.00     0.215 C 
ATOM     11  O   UNL d   1     -48.763  13.371  21.640  0.00  0.00    -0.285 OA
BRANCH  10  12
ATOM     12  C   UNL d   1     -49.041  14.317  22.689  0.00  0.00     0.120 A 
ATOM     13  N   UNL d   1     -49.633  14.088  23.215  0.00  0.00    -0.241 NA
ATOM     14  C   UNL d   1     -50.110  14.671  23.553  0.00  0.00     0.099 A 
ATOM     15  C   UNL d   1     -49.992  15.467  23.365  0.00  0.00     0.021 A 
ATOM     16  C   UNL d   1     -49.401  15.681  22.843  0.00  0.00     0.003 A 
ATOM     17  C   UNL d   1     -48.926  15.114  22.505  0.00  0.00     0.022 A 
ENDBRANCH  10  12
ENDBRANCH   1  10
TORSDOF 2
ENDMDL
MODEL 3
REMARK VINA RESULT:      -7.9      1.140      2.871
REMARK  2 active torsions:
REMARK  status: ('A' for Active; 'I' for Inactive)
REMARK    1  A    between atoms: C_5  and  C_1 
REMARK    2  A    between atoms: C_7  and  C_5 
ROOT
ATOM      1  C   UNL d   1     -48.636  12.376  22.304  0.00  0.00     0.061 A 
ATOM      2  C   UNL d   1     -49.078  11.780  22.626  0.00  0.00     0.102 A 
ATOM      3  N   UNL d   1     -48.625  11.399  23.209  0.00  0.00    -0.244 NA
ATOM      4  C   UNL d   1     -47.906  12.380  22.674  0.00  0.00     0.022 A 
ATOM      5  C   UNL d   1     -47.899  11.779  23.231  0.00  0.00     0.082 A 
ATOM      6  C   UNL d   1     -47.242  12.864  22.569  0.00  0.00     0.002 A 
ATOM      7  C   UNL d   1     -47.229  11.645  23.697  0.00  0.00     0.019 A 
ATOM      8  C   UNL d   1     -46.574  12.729  23.035  0.00  0.00     0.000 A 
ATOM      9  C   UNL d   1     -46.568  12.128  23.591  0.00  0.00     0.002 A 
ENDROOT
BRANCH   1  10
ATOM     10  C   UNL d   1     -48.898  12.900  21.688  0.00  0.00     0.215 C 
ATOM     11  O   UNL d   1     -48.468  12.961  20.993  0.00  0.00    -0.285 OA
BRANCH  10  12
ATOM     12  C   UNL d   1     -49.593  13.342  21.808  0.00  0.00     0.120 A 
ATOM     13  N   UNL d   1     -49.550  14.079  22.174  0.00  0.00    -0.241 NA
ATOM     14  C   UNL d   1     -50.247  14.507  22.285  0.00  0.00     0.099 A 
ATOM     15  C   UNL d   1     -50.971  14.199  22.034  0.00  0.00     0.021 A 
ATOM     16  C   UNL d   1     -51.000  13.467  21.672  0.00  0.00     0.003 A 
ATOM     17  C   UNL d   1     -50.319  13.037  21.558  0.00  0.00     0.022 A 
ENDBRANCH  10  12
ENDBRANCH   1  10
TORSDOF 2
ENDMDL
MODEL 4
REMARK VINA RESULT:      -7.8      0.628      3.470
REMARK  2 active torsions:
REMARK  status: ('A' for Active; 'I' for Inactive)
REMARK    1  A    between atoms: C_5  and  C_1 
REMARK    2  A    between atoms: C_7  and  C_5 
ROOT
ATOM      1  C   UNL d   1     -48.516  13.469  22.357  0.00  0.00     0.061 A 
ATOM      2  C   UNL d   1     -48.834  14.199  22.502  0.00  0.00     0.102 A 
ATOM      3  N   UNL d   1     -48.223  14.716  22.721  0.00  0.00    -0.244 NA
ATOM      4  C   UNL d   1     -47.708  13.515  22.482  0.00  0.00     0.022 A 
ATOM      5  C   UNL d   1     -47.528  14.282  22.706  0.00  0.00     0.082 A 
ATOM      6  C   UNL d   1     -47.111  12.944  22.418  0.00  0.00     0.002 A 
ATOM      7  C   UNL d   1     -46.746  14.500  22.871  0.00  0.00     0.019 A 
ATOM      8  C   UNL d   1     -46.333  13.163  22.583  0.00  0.00     0.000 A 
ATOM      9  C   UNL d   1     -46.153  13.930  22.807  0.00  0.00     0.002 A 
ENDROOT
BRANCH   1  10
ATOM     10  C   UNL d   1     -48.956  12.784  22.119  0.00  0.00     0.215 C 
ATOM     11  O   UNL d   1     -48.764  12.396  21.423  0.00  0.00    -0.285 OA
BRANCH  10  12
ATOM     12  C   UNL d   1     -49.580  12.519  22.602  0.00  0.00     0.120 A 
ATOM     13  N   UNL d   1     -49.424  11.996  23.220  0.00  0.00    -0.241 NA
ATOM     14  C   UNL d   1     -50.052  11.742  23.691  0.00  0.00     0.099 A 
ATOM     15  C   UNL d   1     -50.820  12.010  23.545  0.00  0.00     0.021 A 
ATOM     16  C   UNL d   1     -50.961  12.529  22.929  0.00  0.00     0.003 A 
ATOM     17  C   UNL d   1     -50.349  12.785  22.459  0.00  0.00     0.022 A 
ENDBRANCH  10  12
ENDBRANCH   1  10
TORSDOF 2
ENDMDL
MODEL 5
REMARK VINA RESULT:      -7.6      1.400      2.108
REMARK  2 active torsions:
REMARK  status: ('A' for Active; 'I' for Inactive)
REMARK    1  A    between atoms: C_5  and  C_1 
REMARK    2  A    between atoms: C_7  and  C_5 
ROOT
ATOM      1  C   UNL d   1     -48.673  13.757  22.216  0.00  0.00     0.061 A 
ATOM      2  C   UNL d   1     -48.430  14.407  22.632  0.00  0.00     0.102 A 
ATOM      3  N   UNL d   1     -49.085  14.903  22.755  0.00  0.00    -0.244 NA
ATOM      4  C   UNL d   1     -49.476  13.834  22.071  0.00  0.00     0.022 A 
ATOM      5  C   UNL d   1     -49.728  14.539  22.402  0.00  0.00     0.082 A 
ATOM      6  C   UNL d   1     -50.009  13.340  21.673  0.00  0.00     0.002 A 
ATOM      7  C   UNL d   1     -50.521  14.770  22.345  0.00  0.00     0.019 A 
ATOM      8  C   UNL d   1     -50.799  13.572  21.617  0.00  0.00     0.000 A 
ATOM      9  C   UNL d   1     -51.051  14.277  21.948  0.00  0.00     0.002 A 
ENDROOT
BRANCH   1  10
ATOM     10  C   UNL d   1     -48.171  13.115  21.978  0.00  0.00     0.215 C 
ATOM     11  O   UNL d   1     -48.134  12.896  21.189  0.00  0.00    -0.285 OA
BRANCH  10  12
ATOM     12  C   UNL d   1     -47.724  12.719  22.558  0.00  0.00     0.120 A 
ATOM     13  N   UNL d   1     -48.055  12.082  22.964  0.00  0.00    -0.241 NA
ATOM     14  C   UNL d   1     -47.600  11.700  23.537  0.00  0.00     0.099 A 
ATOM     15  C   UNL d   1     -46.830  11.952  23.697  0.00  0.00     0.021 A 
ATOM     16  C   UNL d   1     -46.514  12.585  23.287  0.00  0.00     0.003 A 
ATOM     17  C   UNL d   1     -46.954  12.969  22.720  0.00  0.00     0.022 A 
ENDBRANCH  10  12
ENDBRANCH   1  10
TORSDOF 2
ENDMDL
