MODEL 1
REMARK VINA RESULT:      55.3      0.000      0.000
REMARK  9 active torsions:
REMARK  status: ('A' for Active; 'I' for Inactive)
REMARK    1  A    between atoms: C_12  and  C_3 
REMARK    2  A    between atoms: S_14  and  C_7 
REMARK       I    between atoms: C_9  and  N_18 
REMARK    3  A    between atoms: C_13  and  C_9 
REMARK    4  A    between atoms: C_11  and  C_21 
REMARK       I    between atoms: N_15  and  C_11 
REMARK    5  A    between atoms: C_22  and  C_12 
REMARK    6  A    between atoms: C_21  and  S_14 
REMARK    7  A    between atoms: C_23  and  N_15 
REMARK    8  A    between atoms: N_18  and  C_22 
REMARK    9  A    between atoms: C_25  and  C_23 
ROOT
ATOM      1  N   UNL d   1      13.369  13.162  -4.355  0.00  0.00    -0.191 N 
ATOM      2  C   UNL d   1      13.157  12.461  -4.748  0.00  0.00     0.187 A 
ATOM      3  C   UNL d   1      13.474  13.755  -4.923  0.00  0.00     0.188 A 
ATOM      4  N   UNL d   1      13.439  13.168  -3.531  0.00  0.00    -0.156 NA
ATOM      5  N   UNL d   1      13.133  12.629  -5.558  0.00  0.00    -0.127 NA
ATOM      6  N   UNL d   1      13.327  13.422  -5.669  0.00  0.00    -0.127 NA
ATOM      7  C   UNL d   1      13.297  12.472  -3.102  0.00  0.00     0.131 A 
ATOM      8  C   UNL d   1      13.019  11.780  -4.315  0.00  0.00     0.043 A 
ATOM      9  C   UNL d   1      13.088  11.779  -3.492  0.00  0.00     0.031 A 
ENDROOT
BRANCH   7  10
ATOM     10  S   UNL d   1      13.369  12.483  -2.273  0.00  0.00    -0.061 SA
BRANCH  10  11
ATOM     11  C   UNL d   1      13.976  12.048  -1.906  0.00  0.00     0.099 C 
BRANCH  11  12
ATOM     12  C   UNL d   1      14.261  12.289  -1.164  0.00  0.00     0.286 C 
ATOM     13  N   UNL d   1      14.575  13.029  -1.071  0.00  0.00    -0.206 NA
ATOM     14  O   UNL d   1      14.225  11.779  -0.516  0.00  0.00    -0.265 OA
BRANCH  13  15
ATOM     15  C   UNL d   1      14.861  13.274  -0.331  0.00  0.00     0.102 C 
BRANCH  15  16
ATOM     16  C   UNL d   1      15.186  14.012  -0.253  0.00  0.00     0.019 A 
ATOM     17  C   UNL d   1      14.717  14.692  -0.238  0.00  0.00     0.004 A 
ATOM     18  C   UNL d   1      15.047  15.437  -0.159  0.00  0.00     0.030 A 
ATOM     19  C   UNL d   1      15.866  15.513  -0.094  0.00  0.00     0.140 A 
ATOM     20  C   UNL d   1      16.332  14.836  -0.109  0.00  0.00     0.030 A 
ATOM     21  F   UNL d   1      16.210  16.257  -0.014  0.00  0.00    -0.204 F 
ATOM     22  C   UNL d   1      16.003  14.102  -0.187  0.00  0.00     0.004 A 
ENDBRANCH  15  16
ENDBRANCH  13  15
ENDBRANCH  11  12
ENDBRANCH  10  11
ENDBRANCH   7  10
BRANCH   3  23
ATOM     23  C   UNL d   1      13.687  14.539  -4.767  0.00  0.00     0.061 C 
BRANCH  23  24
ATOM     24  C   UNL d   1      14.119  14.975  -5.325  0.00  0.00     0.105 C 
BRANCH  24  25
ATOM     25  N   UNL d   1      13.933  15.769  -5.453  0.00  0.00    -0.206 NA
ATOM     26  C   UNL d   1      14.542  16.337  -5.476  0.00  0.00     0.279 C 
ATOM     27  O   UNL d   1      15.330  16.095  -5.370  0.00  0.00    -0.265 OA
BRANCH  26  28
ATOM     28  C   UNL d   1      14.359  17.128  -5.604  0.00  0.00     0.058 A 
ATOM     29  C   UNL d   1      14.826  17.716  -5.258  0.00  0.00     0.005 A 
ATOM     30  C   UNL d   1      14.648  18.510  -5.382  0.00  0.00     0.000 A 
ATOM     31  C   UNL d   1      14.000  18.715  -5.855  0.00  0.00     0.000 A 
ATOM     32  C   UNL d   1      13.534  18.128  -6.201  0.00  0.00     0.000 A 
ATOM     33  C   UNL d   1      13.821  19.506  -5.980  0.00  0.00     0.000 C 
ATOM     34  C   UNL d   1      13.718  17.331  -6.072  0.00  0.00     0.005 A 
ENDBRANCH  26  28
ENDBRANCH  24  25
ENDBRANCH  23  24
ENDBRANCH   3  23
TORSDOF 9
ENDMDL
