MODEL 1
REMARK VINA RESULT:      47.7      0.000      0.000
REMARK  7 active torsions:
REMARK  status: ('A' for Active; 'I' for Inactive)
REMARK    1  A    between atoms: C_8  and  C_1 
REMARK    2  A    between atoms: N_7  and  C_2 
REMARK    3  A    between atoms: C_10  and  C_4 
REMARK       I    between atoms: C_6  and  N_7 
REMARK       I    between atoms: N_9  and  C_6 
REMARK    4  A    between atoms: O_14  and  C_8 
REMARK    5  A    between atoms: C_13  and  N_9 
REMARK    6  A    between atoms: O_20  and  C_15 
REMARK    7  A    between atoms: C_23  and  O_20 
ROOT
ATOM      1  C   UNL d   1      13.492  12.248  -3.969  0.00  0.00     0.110 A 
ATOM      2  C   UNL d   1      13.178  13.018  -3.717  0.00  0.00     0.098 A 
ATOM      3  S   UNL d   1      13.799  11.873  -3.341  0.00  0.00    -0.080 SA
ATOM      4  C   UNL d   1      13.707  12.362  -2.657  0.00  0.00     0.031 A 
ATOM      5  C   UNL d   1      13.314  13.081  -2.909  0.00  0.00     0.026 A 
ENDROOT
BRANCH   2   6
ATOM      6  N   UNL d   1      12.809  13.599  -4.166  0.00  0.00    -0.190 NA
ATOM      7  C   UNL d   1      13.162  14.356  -4.241  0.00  0.00     0.369 C 
ATOM      8  N   UNL d   1      13.856  14.527  -3.883  0.00  0.00    -0.191 NA
ATOM      9  O   UNL d   1      12.770  14.941  -4.707  0.00  0.00    -0.242 OA
BRANCH   8  10
ATOM     10  C   UNL d   1      14.189  15.267  -3.964  0.00  0.00     0.086 A 
ATOM     11  C   UNL d   1      14.688  15.551  -3.388  0.00  0.00     0.021 A 
ATOM     12  C   UNL d   1      15.031  16.298  -3.459  0.00  0.00     0.026 A 
ATOM     13  C   UNL d   1      14.866  16.758  -4.116  0.00  0.00     0.100 A 
ATOM     14  C   UNL d   1      14.367  16.475  -4.692  0.00  0.00     0.026 A 
ATOM     15  C   UNL d   1      14.026  15.727  -4.618  0.00  0.00     0.021 A 
BRANCH  13  16
ATOM     16  O   UNL d   1      15.205  17.497  -4.186  0.00  0.00    -0.305 OA
BRANCH  16  17
ATOM     17  C   UNL d   1      15.168  17.899  -4.902  0.00  0.00     0.123 C 
ATOM     18  C   UNL d   1      15.471  18.675  -4.955  0.00  0.00     0.029 C 
ENDBRANCH  16  17
ENDBRANCH  13  16
ENDBRANCH   8  10
ENDBRANCH   2   6
BRANCH   1  19
ATOM     19  C   UNL d   1      13.480  11.937  -4.745  0.00  0.00     0.303 C 
ATOM     20  O   UNL d   1      12.769  11.798  -5.114  0.00  0.00    -0.259 OA
BRANCH  19  21
ATOM     21  O   UNL d   1      14.216  11.789  -5.089  0.00  0.00    -0.295 OA
ATOM     22  C   UNL d   1      14.363  11.882  -5.900  0.00  0.00     0.185 C 
ENDBRANCH  19  21
ENDBRANCH   1  19
BRANCH   4  23
ATOM     23  C   UNL d   1      13.958  12.168  -1.886  0.00  0.00     0.006 A 
ATOM     24  C   UNL d   1      13.412  12.060  -1.266  0.00  0.00     0.001 A 
ATOM     25  C   UNL d   1      13.663  11.869  -0.507  0.00  0.00     0.000 A 
ATOM     26  C   UNL d   1      14.482  11.779  -0.350  0.00  0.00     0.000 A 
ATOM     27  C   UNL d   1      15.049  11.889  -0.988  0.00  0.00     0.000 A 
ATOM     28  C   UNL d   1      14.776  12.078  -1.729  0.00  0.00     0.001 A 
ENDBRANCH   4  23
TORSDOF 7
ENDMDL
MODEL 2
REMARK VINA RESULT:      49.8      2.339      4.377
REMARK  7 active torsions:
REMARK  status: ('A' for Active; 'I' for Inactive)
REMARK    1  A    between atoms: C_8  and  C_1 
REMARK    2  A    between atoms: N_7  and  C_2 
REMARK    3  A    between atoms: C_10  and  C_4 
REMARK       I    between atoms: C_6  and  N_7 
REMARK       I    between atoms: N_9  and  C_6 
REMARK    4  A    between atoms: O_14  and  C_8 
REMARK    5  A    between atoms: C_13  and  N_9 
REMARK    6  A    between atoms: O_20  and  C_15 
REMARK    7  A    between atoms: C_23  and  O_20 
ROOT
ATOM      1  C   UNL d   1      15.007  13.234  -0.555  0.00  0.00     0.110 A 
ATOM      2  C   UNL d   1      14.227  13.304  -0.931  0.00  0.00     0.098 A 
ATOM      3  S   UNL d   1      15.356  13.946  -0.544  0.00  0.00    -0.080 SA
ATOM      4  C   UNL d   1      14.839  14.511  -0.903  0.00  0.00     0.031 A 
ATOM      5  C   UNL d   1      14.130  14.092  -1.143  0.00  0.00     0.026 A 
ENDROOT
BRANCH   2   6
ATOM      6  N   UNL d   1      13.664  12.721  -1.069  0.00  0.00    -0.190 NA
ATOM      7  C   UNL d   1      13.426  12.545  -1.853  0.00  0.00     0.369 C 
ATOM      8  N   UNL d   1      13.737  12.936  -2.478  0.00  0.00    -0.191 NA
ATOM      9  O   UNL d   1      12.847  11.943  -1.975  0.00  0.00    -0.242 OA
BRANCH   8  10
ATOM     10  C   UNL d   1      13.497  12.756  -3.236  0.00  0.00     0.086 A 
ATOM     11  C   UNL d   1      13.312  11.988  -3.428  0.00  0.00     0.021 A 
ATOM     12  C   UNL d   1      13.068  11.793  -4.192  0.00  0.00     0.026 A 
ATOM     13  C   UNL d   1      13.010  12.379  -4.761  0.00  0.00     0.100 A 
ATOM     14  C   UNL d   1      13.195  13.148  -4.568  0.00  0.00     0.026 A 
ATOM     15  C   UNL d   1      13.439  13.339  -3.803  0.00  0.00     0.021 A 
BRANCH  13  16
ATOM     16  O   UNL d   1      12.768  12.186  -5.516  0.00  0.00    -0.305 OA
BRANCH  16  17
ATOM     17  C   UNL d   1      13.312  11.883  -6.054  0.00  0.00     0.123 C 
ATOM     18  C   UNL d   1      13.996  12.323  -6.239  0.00  0.00     0.029 C 
ENDBRANCH  16  17
ENDBRANCH  13  16
ENDBRANCH   8  10
ENDBRANCH   2   6
BRANCH   1  19
ATOM     19  C   UNL d   1      15.350  12.536  -0.248  0.00  0.00     0.303 C 
ATOM     20  O   UNL d   1      14.873  11.916  -0.025  0.00  0.00    -0.259 OA
BRANCH  19  21
ATOM     21  O   UNL d   1      16.174  12.529  -0.193  0.00  0.00    -0.295 OA
ATOM     22  C   UNL d   1      16.658  12.102  -0.714  0.00  0.00     0.185 C 
ENDBRANCH  19  21
ENDBRANCH   1  19
BRANCH   4  23
ATOM     23  C   UNL d   1      15.001  15.323  -1.000  0.00  0.00     0.006 A 
ATOM     24  C   UNL d   1      15.276  15.789  -0.368  0.00  0.00     0.001 A 
ATOM     25  C   UNL d   1      15.435  16.590  -0.468  0.00  0.00     0.000 A 
ATOM     26  C   UNL d   1      15.319  16.947  -1.217  0.00  0.00     0.000 A 
ATOM     27  C   UNL d   1      15.035  16.469  -1.874  0.00  0.00     0.000 A 
ATOM     28  C   UNL d   1      14.886  15.680  -1.750  0.00  0.00     0.001 A 
ENDBRANCH   4  23
TORSDOF 7
ENDMDL
