MODEL 1
REMARK VINA RESULT:       8.3      0.000      0.000
REMARK  2 active torsions:
REMARK  status: ('A' for Active; 'I' for Inactive)
REMARK    1  A    between atoms: C_2  and  P_1 
REMARK    2  A    between atoms: C_7  and  C_2 
ROOT
ATOM      1  C   UNL d   1      57.144  49.493  50.254  0.00  0.00     0.194 C 
ATOM      2  N   UNL d   1      57.959  49.422  50.104  0.00  0.00    -0.138 N 
ENDROOT
BRANCH   1   3
ATOM      3  P   UNL d   1      56.613  49.419  49.613  0.00  0.00     0.317 P 
ATOM      4  O   UNL d   1      56.090  49.344  48.994  0.00  0.00    -0.635 OA
ATOM      5  O   UNL d   1      56.033  49.132  50.155  0.00  0.00    -0.635 OA
ATOM      6  O   UNL d   1      57.189  49.703  49.080  0.00  0.00    -0.635 OA
ENDBRANCH   1   3
BRANCH   1   7
ATOM      7  C   UNL d   1      56.868  49.635  51.019  0.00  0.00     0.029 C 
ATOM      8  C   UNL d   1      57.397  49.703  51.639  0.00  0.00     0.002 C 
ATOM      9  C   UNL d   1      56.056  49.708  51.150  0.00  0.00     0.002 C 
ENDBRANCH   1   7
TORSDOF 2
ENDMDL
MODEL 2
REMARK VINA RESULT:       9.0      3.446      3.961
REMARK  2 active torsions:
REMARK  status: ('A' for Active; 'I' for Inactive)
REMARK    1  A    between atoms: C_2  and  P_1 
REMARK    2  A    between atoms: C_7  and  C_2 
ROOT
ATOM      1  C   UNL d   1      60.726  49.113  51.017  0.00  0.00     0.194 C 
ATOM      2  N   UNL d   1      61.157  48.402  50.983  0.00  0.00    -0.138 N 
ENDROOT
BRANCH   1   3
ATOM      3  P   UNL d   1      60.400  49.415  50.310  0.00  0.00     0.317 P 
ATOM      4  O   UNL d   1      60.089  49.708  49.617  0.00  0.00    -0.635 OA
ATOM      5  O   UNL d   1      61.148  49.295  49.938  0.00  0.00    -0.635 OA
ATOM      6  O   UNL d   1      59.662  49.532  50.680  0.00  0.00    -0.635 OA
ENDBRANCH   1   3
BRANCH   1   7
ATOM      7  C   UNL d   1      60.625  49.510  51.735  0.00  0.00     0.029 C 
ATOM      8  C   UNL d   1      59.874  49.707  51.991  0.00  0.00     0.002 C 
ATOM      9  C   UNL d   1      61.288  49.703  52.187  0.00  0.00     0.002 C 
ENDBRANCH   1   7
TORSDOF 2
ENDMDL
