MODEL 1
REMARK VINA RESULT:      52.3      0.000      0.000
REMARK  7 active torsions:
REMARK  status: ('A' for Active; 'I' for Inactive)
REMARK    1  A    between atoms: C_3  and  S_1 
REMARK    2  A    between atoms: N_4  and  S_1 
REMARK    3  A    between atoms: C_2  and  C_9 
REMARK       I    between atoms: N_5  and  C_2 
REMARK    4  A    between atoms: C_15  and  N_4 
REMARK    5  A    between atoms: C_10  and  N_5 
REMARK    6  A    between atoms: C_18  and  C_15 
REMARK    7  A    between atoms: O_22  and  C_16 
ROOT
ATOM      1  C   UNL d   1     -54.951-102.014 -39.376  0.00  0.00     0.058 A 
ATOM      2  C   UNL d   1     -54.767-102.618 -39.911  0.00  0.00     0.005 A 
ATOM      3  C   UNL d   1     -55.083-101.248 -39.647  0.00  0.00     0.005 A 
ATOM      4  C   UNL d   1     -54.846-101.691 -40.984  0.00  0.00     0.020 A 
ATOM      5  C   UNL d   1     -54.715-102.455 -40.712  0.00  0.00     0.002 A 
ATOM      6  C   UNL d   1     -55.029-101.089 -40.454  0.00  0.00     0.002 A 
ENDROOT
BRANCH   4   7
ATOM      7  C   UNL d   1     -54.794-101.522 -41.792  0.00  0.00     0.112 C 
BRANCH   7   8
ATOM      8  N   UNL d   1     -54.712-100.737 -42.044  0.00  0.00    -0.157 NA
BRANCH   8   9
ATOM      9  S   UNL d   1     -54.927-100.524 -42.818  0.00  0.00     0.285 S 
ATOM     10  O   UNL d   1     -55.094 -99.751 -42.564  0.00  0.00    -0.198 OA
ATOM     11  O   UNL d   1     -54.761-101.301 -43.078  0.00  0.00    -0.198 OA
BRANCH   9  12
ATOM     12  C   UNL d   1     -55.140-100.316 -43.590  0.00  0.00     0.107 A 
ATOM     13  C   UNL d   1     -55.779 -99.816 -43.721  0.00  0.00     0.037 A 
ATOM     14  C   UNL d   1     -55.996 -99.605 -44.490  0.00  0.00     0.095 A 
ATOM     15  C   UNL d   1     -55.573 -99.893 -45.128  0.00  0.00     0.024 A 
ATOM     16  C   UNL d   1     -54.928-100.398 -45.001  0.00  0.00     0.003 A 
ATOM     17  C   UNL d   1     -54.712-100.609 -44.232  0.00  0.00     0.013 A 
BRANCH  14  18
ATOM     18  O   UNL d   1     -56.637 -99.103 -44.619  0.00  0.00    -0.328 OA
ATOM     19  C   UNL d   1     -57.247 -99.069 -44.080  0.00  0.00     0.181 C 
ENDBRANCH  14  18
ENDBRANCH   9  12
ENDBRANCH   8   9
ENDBRANCH   7   8
ENDBRANCH   4   7
BRANCH   1  20
ATOM     20  C   UNL d   1     -55.006-102.171 -38.564  0.00  0.00     0.279 C 
ATOM     21  N   UNL d   1     -55.353-101.621 -38.067  0.00  0.00    -0.208 NA
ATOM     22  O   UNL d   1     -54.713-102.876 -38.256  0.00  0.00    -0.265 OA
BRANCH  21  23
ATOM     23  C   UNL d   1     -55.408-101.777 -37.259  0.00  0.00     0.086 A 
ATOM     24  C   UNL d   1     -55.029-101.273 -36.721  0.00  0.00     0.031 A 
ATOM     25  C   UNL d   1     -55.085-101.432 -35.913  0.00  0.00     0.059 A 
ATOM     26 CL   UNL d   1     -54.711-100.933 -35.378  0.00  0.00    -0.082 Cl
ATOM     27  C   UNL d   1     -55.514-102.085 -35.645  0.00  0.00     0.011 A 
ATOM     28  C   UNL d   1     -55.887-102.582 -36.189  0.00  0.00     0.002 A 
ATOM     29  C   UNL d   1     -55.830-102.422 -36.996  0.00  0.00     0.019 A 
ENDBRANCH  21  23
ENDBRANCH   1  20
TORSDOF 7
ENDMDL
