MODEL 1
REMARK VINA RESULT:      -2.3      0.000      0.000
REMARK  7 active torsions:
REMARK  status: ('A' for Active; 'I' for Inactive)
REMARK    1  A    between atoms: C_14  and  N_1 
REMARK    2  A    between atoms: C_2  and  C_5 
REMARK    3  A    between atoms: C_6  and  C_2 
REMARK    4  A    between atoms: C_7  and  C_3 
REMARK    5  A    between atoms: C_5  and  C_7 
REMARK    6  A    between atoms: O_15  and  C_6 
REMARK    7  A    between atoms: C_18  and  O_15 
ROOT
ATOM      1  C   UNL d   1      32.968  21.474 -21.674  0.00  0.00     0.132 C 
ATOM      2  C   UNL d   1      33.105  22.102 -22.181  0.00  0.00     0.106 C 
ATOM      3  N   UNL d   1      33.241  22.710 -22.680  0.00  0.00    -0.191 NA
ENDROOT
BRANCH   1   4
ATOM      4  C   UNL d   1      33.163  20.701 -21.886  0.00  0.00     0.017 C 
BRANCH   4   5
ATOM      5  C   UNL d   1      33.091  20.472 -22.640  0.00  0.00     0.018 C 
BRANCH   5   6
ATOM      6  C   UNL d   1      33.102  19.673 -22.824  0.00  0.00     0.064 A 
ATOM      7  N   UNL d   1      33.162  19.422 -23.626  0.00  0.00    -0.305 N 
ATOM      8  C   UNL d   1      33.172  18.607 -23.800  0.00  0.00     0.064 A 
ATOM      9  C   UNL d   1      33.125  18.048 -23.198  0.00  0.00     0.016 A 
ATOM     10  C   UNL d   1      33.230  18.371 -24.590  0.00  0.00     0.018 A 
ATOM     11  C   UNL d   1      33.066  18.296 -22.401  0.00  0.00     0.003 A 
ATOM     12  C   UNL d   1      33.136  17.248 -23.382  0.00  0.00     0.001 A 
ATOM     13  C   UNL d   1      33.055  19.096 -22.217  0.00  0.00     0.018 A 
ATOM     14  C   UNL d   1      33.194  16.996 -24.171  0.00  0.00     0.000 A 
ATOM     15  C   UNL d   1      33.241  17.571 -24.775  0.00  0.00     0.002 A 
BRANCH   7  16
ATOM     16  C   UNL d   1      33.209  19.978 -24.236  0.00  0.00     0.080 C 
ATOM     17  C   UNL d   1      32.593  20.023 -24.795  0.00  0.00     0.021 C 
ENDBRANCH   7  16
ENDBRANCH   5   6
ENDBRANCH   4   5
ENDBRANCH   1   4
BRANCH   1  18
ATOM     18  C   UNL d   1      32.636  21.636 -20.963  0.00  0.00     0.310 C 
ATOM     19  O   UNL d   1      31.848  21.566 -20.873  0.00  0.00    -0.258 OA
BRANCH  18  20
ATOM     20  O   UNL d   1      33.035  21.845 -20.397  0.00  0.00    -0.271 OA
BRANCH  20  21
ATOM     21  C   UNL d   1      32.693  22.332 -19.753  0.00  0.00     0.126 C 
ATOM     22  C   UNL d   1      33.158  22.623 -19.124  0.00  0.00     0.029 C 
ENDBRANCH  20  21
ENDBRANCH  18  20
ENDBRANCH   1  18
TORSDOF 7
ENDMDL
MODEL 2
REMARK VINA RESULT:      -1.6      2.664      4.805
REMARK  7 active torsions:
REMARK  status: ('A' for Active; 'I' for Inactive)
REMARK    1  A    between atoms: C_14  and  N_1 
REMARK    2  A    between atoms: C_2  and  C_5 
REMARK    3  A    between atoms: C_6  and  C_2 
REMARK    4  A    between atoms: C_7  and  C_3 
REMARK    5  A    between atoms: C_5  and  C_7 
REMARK    6  A    between atoms: O_15  and  C_6 
REMARK    7  A    between atoms: C_18  and  O_15 
ROOT
ATOM      1  C   UNL d   1      31.613  16.619 -23.903  0.00  0.00     0.132 C 
ATOM      2  C   UNL d   1      32.204  16.077 -23.744  0.00  0.00     0.106 C 
ATOM      3  N   UNL d   1      32.786  15.552 -23.589  0.00  0.00    -0.191 NA
ENDROOT
BRANCH   1   4
ATOM      4  C   UNL d   1      31.790  17.388 -24.145  0.00  0.00     0.017 C 
BRANCH   4   5
ATOM      5  C   UNL d   1      32.349  17.799 -23.765  0.00  0.00     0.018 C 
BRANCH   5   6
ATOM      6  C   UNL d   1      32.538  18.556 -24.017  0.00  0.00     0.064 A 
ATOM      7  N   UNL d   1      32.667  19.171 -23.456  0.00  0.00    -0.305 N 
ATOM      8  C   UNL d   1      32.859  19.936 -23.724  0.00  0.00     0.064 A 
ATOM      9  C   UNL d   1      32.923  20.095 -24.529  0.00  0.00     0.016 A 
ATOM     10  C   UNL d   1      32.984  20.533 -23.166  0.00  0.00     0.018 A 
ATOM     11  C   UNL d   1      32.795  19.486 -25.087  0.00  0.00     0.003 A 
ATOM     12  C   UNL d   1      33.112  20.853 -24.781  0.00  0.00     0.001 A 
ATOM     13  C   UNL d   1      32.605  18.728 -24.835  0.00  0.00     0.018 A 
ATOM     14  C   UNL d   1      33.241  21.463 -24.233  0.00  0.00     0.000 A 
ATOM     15  C   UNL d   1      33.174  21.291 -23.418  0.00  0.00     0.002 A 
BRANCH   7  16
ATOM     16  C   UNL d   1      32.605  19.019 -22.645  0.00  0.00     0.080 C 
ATOM     17  C   UNL d   1      33.231  18.632 -22.255  0.00  0.00     0.021 C 
ENDBRANCH   7  16
ENDBRANCH   5   6
ENDBRANCH   4   5
ENDBRANCH   1   4
BRANCH   1  18
ATOM     18  C   UNL d   1      30.854  16.378 -23.817  0.00  0.00     0.310 C 
ATOM     19  O   UNL d   1      30.683  15.801 -23.294  0.00  0.00    -0.258 OA
BRANCH  18  20
ATOM     20  O   UNL d   1      30.317  16.671 -24.201  0.00  0.00    -0.271 OA
BRANCH  20  21
ATOM     21  C   UNL d   1      29.493  16.682 -23.900  0.00  0.00     0.126 C 
ATOM     22  C   UNL d   1      28.900  17.152 -24.251  0.00  0.00     0.029 C 
ENDBRANCH  20  21
ENDBRANCH  18  20
ENDBRANCH   1  18
TORSDOF 7
ENDMDL
