MODEL 1
REMARK VINA RESULT:      -7.4      0.000      0.000
REMARK  5 active torsions:
REMARK  status: ('A' for Active; 'I' for Inactive)
REMARK    1  A    between atoms: O_8  and  C_2 
REMARK    2  A    between atoms: C_10  and  C_3 
REMARK    3  A    between atoms: C_14  and  O_8 
REMARK    4  A    between atoms: N_9  and  C_10 
REMARK    5  A    between atoms: O_23  and  C_17 
ROOT
ATOM      1  C   UNL d   1     -48.463  12.470  23.656  0.00  0.00     0.108 A 
ATOM      2  C   UNL d   1     -46.825  12.170  23.623  0.00  0.00     0.164 A 
ATOM      3  C   UNL d   1     -49.277  12.609  23.672  0.00  0.00     0.079 A 
ATOM      4  C   UNL d   1     -48.177  11.684  23.630  0.00  0.00     0.064 A 
ATOM      5  C   UNL d   1     -47.368  11.534  23.614  0.00  0.00     0.222 A 
ATOM      6  O   UNL d   1     -47.931  13.102  23.665  0.00  0.00    -0.303 OA
ATOM      7  C   UNL d   1     -47.109  12.953  23.648  0.00  0.00     0.150 A 
ATOM      8  C   UNL d   1     -48.721  11.051  23.621  0.00  0.00     0.009 A 
ATOM      9  C   UNL d   1     -49.813  11.988  23.663  0.00  0.00     0.199 A 
ATOM     10  O   UNL d   1     -47.082  10.761  23.589  0.00  0.00    -0.284 OA
ATOM     11  C   UNL d   1     -49.532  11.200  23.638  0.00  0.00     0.042 A 
ATOM     12  O   UNL d   1     -50.617  12.126  23.679  0.00  0.00    -0.286 OA
ENDROOT
BRANCH   2  13
ATOM     13  O   UNL d   1     -46.015  12.022  23.607  0.00  0.00    -0.300 OA
BRANCH  13  14
ATOM     14  C   UNL d   1     -45.560  12.327  23.001  0.00  0.00     0.122 A 
ATOM     15  C   UNL d   1     -44.843  11.983  22.815  0.00  0.00     0.117 A 
ATOM     16  C   UNL d   1     -44.385  12.289  22.206  0.00  0.00     0.026 A 
ATOM     17  C   UNL d   1     -44.655  12.946  21.783  0.00  0.00     0.002 A 
ATOM     18  C   UNL d   1     -45.373  13.290  21.969  0.00  0.00     0.002 A 
ATOM     19  C   UNL d   1     -45.832  12.982  22.581  0.00  0.00     0.027 A 
BRANCH  15  20
ATOM     20  O   UNL d   1     -44.584  11.329  23.243  0.00  0.00    -0.326 OA
ATOM     21  C   UNL d   1     -43.830  11.020  23.111  0.00  0.00     0.181 C 
ENDBRANCH  15  20
ENDBRANCH  13  14
ENDBRANCH   2  13
BRANCH   3  22
ATOM     22  C   UNL d   1     -49.552  13.381  23.697  0.00  0.00     0.086 C 
BRANCH  22  23
ATOM     23  N   UNL d   1     -49.931  13.706  23.037  0.00  0.00    -0.300 N 
ATOM     24  C   UNL d   1     -50.686  14.028  23.116  0.00  0.00     0.100 A 
ATOM     25  C   UNL d   1     -51.064  14.352  22.461  0.00  0.00     0.100 A 
ATOM     26  N   UNL d   1     -50.687  14.354  21.725  0.00  0.00    -0.299 N 
ATOM     27  C   UNL d   1     -49.931  14.031  21.649  0.00  0.00     0.100 A 
ATOM     28  C   UNL d   1     -51.064  14.678  21.069  0.00  0.00     0.100 C 
ATOM     29  C   UNL d   1     -49.545  13.703  22.309  0.00  0.00     0.100 A 
ENDBRANCH  22  23
ENDBRANCH   3  22
TORSDOF 5
ENDMDL
MODEL 2
REMARK VINA RESULT:      -7.2      8.607     10.333
REMARK  5 active torsions:
REMARK  status: ('A' for Active; 'I' for Inactive)
REMARK    1  A    between atoms: O_8  and  C_2 
REMARK    2  A    between atoms: C_10  and  C_3 
REMARK    3  A    between atoms: C_14  and  O_8 
REMARK    4  A    between atoms: N_9  and  C_10 
REMARK    5  A    between atoms: O_23  and  C_17 
ROOT
ATOM      1  C   UNL d   1     -39.467  15.232  19.910  0.00  0.00     0.108 A 
ATOM      2  C   UNL d   1     -39.418  14.793  18.304  0.00  0.00     0.164 A 
ATOM      3  C   UNL d   1     -39.500  15.452  20.706  0.00  0.00     0.079 A 
ATOM      4  C   UNL d   1     -40.167  15.228  19.451  0.00  0.00     0.064 A 
ATOM      5  C   UNL d   1     -40.144  15.011  18.658  0.00  0.00     0.222 A 
ATOM      6  O   UNL d   1     -38.747  15.018  19.567  0.00  0.00    -0.303 OA
ATOM      7  C   UNL d   1     -38.721  14.797  18.760  0.00  0.00     0.150 A 
ATOM      8  C   UNL d   1     -40.890  15.446  19.806  0.00  0.00     0.009 A 
ATOM      9  C   UNL d   1     -40.210  15.666  21.056  0.00  0.00     0.199 A 
ATOM     10  O   UNL d   1     -40.832  15.005  18.202  0.00  0.00    -0.284 OA
ATOM     11  C   UNL d   1     -40.913  15.663  20.601  0.00  0.00     0.042 A 
ATOM     12  O   UNL d   1     -40.244  15.883  21.842  0.00  0.00    -0.286 OA
ENDROOT
BRANCH   2  13
ATOM     13  O   UNL d   1     -39.394  14.576  17.510  0.00  0.00    -0.300 OA
BRANCH  13  14
ATOM     14  C   UNL d   1     -38.909  13.962  17.274  0.00  0.00     0.122 A 
ATOM     15  C   UNL d   1     -38.447  14.042  16.604  0.00  0.00     0.117 A 
ATOM     16  C   UNL d   1     -37.960  13.426  16.365  0.00  0.00     0.026 A 
ATOM     17  C   UNL d   1     -37.940  12.727  16.806  0.00  0.00     0.002 A 
ATOM     18  C   UNL d   1     -38.401  12.648  17.476  0.00  0.00     0.002 A 
ATOM     19  C   UNL d   1     -38.891  13.267  17.715  0.00  0.00     0.027 A 
BRANCH  15  20
ATOM     20  O   UNL d   1     -38.475  14.742  16.172  0.00  0.00    -0.326 OA
ATOM     21  C   UNL d   1     -38.030  14.821  15.483  0.00  0.00     0.181 C 
ENDBRANCH  15  20
ENDBRANCH  13  14
ENDBRANCH   2  13
BRANCH   3  22
ATOM     22  C   UNL d   1     -38.812  15.455  21.151  0.00  0.00     0.086 C 
BRANCH  22  23
ATOM     23  N   UNL d   1     -38.687  14.869  21.722  0.00  0.00    -0.300 N 
ATOM     24  C   UNL d   1     -38.453  14.113  21.488  0.00  0.00     0.100 A 
ATOM     25  C   UNL d   1     -38.329  13.530  22.054  0.00  0.00     0.100 A 
ATOM     26  N   UNL d   1     -38.438  13.701  22.856  0.00  0.00    -0.299 N 
ATOM     27  C   UNL d   1     -38.672  14.458  23.087  0.00  0.00     0.100 A 
ATOM     28  C   UNL d   1     -38.313  13.117  23.424  0.00  0.00     0.100 C 
ATOM     29  C   UNL d   1     -38.799  15.051  22.518  0.00  0.00     0.100 A 
ENDBRANCH  22  23
ENDBRANCH   3  22
TORSDOF 5
ENDMDL
MODEL 3
REMARK VINA RESULT:      -7.1      1.648      4.719
REMARK  5 active torsions:
REMARK  status: ('A' for Active; 'I' for Inactive)
REMARK    1  A    between atoms: O_8  and  C_2 
REMARK    2  A    between atoms: C_10  and  C_3 
REMARK    3  A    between atoms: C_14  and  O_8 
REMARK    4  A    between atoms: N_9  and  C_10 
REMARK    5  A    between atoms: O_23  and  C_17 
ROOT
ATOM      1  C   UNL d   1     -47.583  12.398  23.261  0.00  0.00     0.108 A 
ATOM      2  C   UNL d   1     -49.141  12.873  22.916  0.00  0.00     0.164 A 
ATOM      3  C   UNL d   1     -46.812  12.154  23.432  0.00  0.00     0.079 A 
ATOM      4  C   UNL d   1     -48.191  11.829  23.184  0.00  0.00     0.064 A 
ATOM      5  C   UNL d   1     -48.962  12.062  23.014  0.00  0.00     0.222 A 
ATOM      6  O   UNL d   1     -47.754  13.201  23.165  0.00  0.00    -0.303 OA
ATOM      7  C   UNL d   1     -48.536  13.440  22.992  0.00  0.00     0.150 A 
ATOM      8  C   UNL d   1     -48.009  11.020  23.282  0.00  0.00     0.009 A 
ATOM      9  C   UNL d   1     -46.632  11.360  23.528  0.00  0.00     0.199 A 
ATOM     10  O   UNL d   1     -49.564  11.503  22.937  0.00  0.00    -0.284 OA
ATOM     11  C   UNL d   1     -47.237  10.787  23.452  0.00  0.00     0.042 A 
ATOM     12  O   UNL d   1     -45.871  11.118  23.698  0.00  0.00    -0.286 OA
ENDROOT
BRANCH   2  13
ATOM     13  O   UNL d   1     -49.912  13.107  22.745  0.00  0.00    -0.300 OA
BRANCH  13  14
ATOM     14  C   UNL d   1     -50.130  13.888  22.849  0.00  0.00     0.122 A 
ATOM     15  C   UNL d   1     -50.422  14.318  22.219  0.00  0.00     0.117 A 
ATOM     16  C   UNL d   1     -50.641  15.102  22.323  0.00  0.00     0.026 A 
ATOM     17  C   UNL d   1     -50.563  15.452  23.067  0.00  0.00     0.002 A 
ATOM     18  C   UNL d   1     -50.271  15.022  23.697  0.00  0.00     0.002 A 
ATOM     19  C   UNL d   1     -50.051  14.234  23.593  0.00  0.00     0.027 A 
BRANCH  15  20
ATOM     20  O   UNL d   1     -50.495  13.959  21.482  0.00  0.00    -0.326 OA
ATOM     21  C   UNL d   1     -51.064  14.224  20.947  0.00  0.00     0.181 C 
ENDBRANCH  15  20
ENDBRANCH  13  14
ENDBRANCH   2  13
BRANCH   3  22
ATOM     22  C   UNL d   1     -46.220  12.716  23.506  0.00  0.00     0.086 C 
BRANCH  22  23
ATOM     23  N   UNL d   1     -45.635  12.779  22.924  0.00  0.00    -0.300 N 
ATOM     24  C   UNL d   1     -45.066  12.186  22.851  0.00  0.00     0.100 A 
ATOM     25  C   UNL d   1     -44.484  12.248  22.272  0.00  0.00     0.100 A 
ATOM     26  N   UNL d   1     -44.471  12.902  21.766  0.00  0.00    -0.299 N 
ATOM     27  C   UNL d   1     -45.041  13.493  21.843  0.00  0.00     0.100 A 
ATOM     28  C   UNL d   1     -43.888  12.964  21.187  0.00  0.00     0.100 C 
ATOM     29  C   UNL d   1     -45.631  13.435  22.426  0.00  0.00     0.100 A 
ENDBRANCH  22  23
ENDBRANCH   3  22
TORSDOF 5
ENDMDL
MODEL 4
REMARK VINA RESULT:      -7.1      1.398      2.322
REMARK  5 active torsions:
REMARK  status: ('A' for Active; 'I' for Inactive)
REMARK    1  A    between atoms: O_8  and  C_2 
REMARK    2  A    between atoms: C_10  and  C_3 
REMARK    3  A    between atoms: C_14  and  O_8 
REMARK    4  A    between atoms: N_9  and  C_10 
REMARK    5  A    between atoms: O_23  and  C_17 
ROOT
ATOM      1  C   UNL d   1     -47.580  13.706  23.071  0.00  0.00     0.108 A 
ATOM      2  C   UNL d   1     -46.185  12.796  23.063  0.00  0.00     0.164 A 
ATOM      3  C   UNL d   1     -48.267  14.164  23.072  0.00  0.00     0.079 A 
ATOM      4  C   UNL d   1     -46.855  14.045  22.826  0.00  0.00     0.064 A 
ATOM      5  C   UNL d   1     -46.165  13.597  22.821  0.00  0.00     0.222 A 
ATOM      6  O   UNL d   1     -47.605  12.916  23.311  0.00  0.00    -0.303 OA
ATOM      7  C   UNL d   1     -46.905  12.458  23.308  0.00  0.00     0.150 A 
ATOM      8  C   UNL d   1     -46.839  14.844  22.585  0.00  0.00     0.009 A 
ATOM      9  C   UNL d   1     -48.252  14.949  22.836  0.00  0.00     0.199 A 
ATOM     10  O   UNL d   1     -45.449  13.928  22.580  0.00  0.00    -0.284 OA
ATOM     11  C   UNL d   1     -47.530  15.293  22.590  0.00  0.00     0.042 A 
ATOM     12  O   UNL d   1     -48.931  15.402  22.837  0.00  0.00    -0.286 OA
ENDROOT
BRANCH   2  13
ATOM     13  O   UNL d   1     -45.495  12.347  23.059  0.00  0.00    -0.300 OA
BRANCH  13  14
ATOM     14  C   UNL d   1     -45.524  11.558  23.271  0.00  0.00     0.122 A 
ATOM     15  C   UNL d   1     -44.841  11.110  23.275  0.00  0.00     0.117 A 
ATOM     16  C   UNL d   1     -44.870  10.318  23.488  0.00  0.00     0.026 A 
ATOM     17  C   UNL d   1     -45.594   9.978  23.697  0.00  0.00     0.002 A 
ATOM     18  C   UNL d   1     -46.277  10.426  23.694  0.00  0.00     0.002 A 
ATOM     19  C   UNL d   1     -46.247  11.223  23.480  0.00  0.00     0.027 A 
BRANCH  15  20
ATOM     20  O   UNL d   1     -44.126  11.459  23.064  0.00  0.00    -0.326 OA
ATOM     21  C   UNL d   1     -43.453  10.994  22.960  0.00  0.00     0.181 C 
ENDBRANCH  15  20
ENDBRANCH  13  14
ENDBRANCH   2  13
BRANCH   3  22
ATOM     22  C   UNL d   1     -48.975  13.827  23.314  0.00  0.00     0.086 C 
BRANCH  22  23
ATOM     23  N   UNL d   1     -49.494  13.511  22.752  0.00  0.00    -0.300 N 
ATOM     24  C   UNL d   1     -49.750  12.730  22.826  0.00  0.00     0.100 A 
ATOM     25  C   UNL d   1     -50.266  12.415  22.269  0.00  0.00     0.100 A 
ATOM     26  N   UNL d   1     -50.528  12.879  21.638  0.00  0.00    -0.299 N 
ATOM     27  C   UNL d   1     -50.271  13.660  21.567  0.00  0.00     0.100 A 
ATOM     28  C   UNL d   1     -51.045  12.564  21.080  0.00  0.00     0.100 C 
ATOM     29  C   UNL d   1     -49.749  13.983  22.127  0.00  0.00     0.100 A 
ENDBRANCH  22  23
ENDBRANCH   3  22
TORSDOF 5
ENDMDL
MODEL 5
REMARK VINA RESULT:      -6.8      9.037     10.388
REMARK  5 active torsions:
REMARK  status: ('A' for Active; 'I' for Inactive)
REMARK    1  A    between atoms: O_8  and  C_2 
REMARK    2  A    between atoms: C_10  and  C_3 
REMARK    3  A    between atoms: C_14  and  O_8 
REMARK    4  A    between atoms: N_9  and  C_10 
REMARK    5  A    between atoms: O_23  and  C_17 
ROOT
ATOM      1  C   UNL d   1     -39.513  15.708  18.964  0.00  0.00     0.108 A 
ATOM      2  C   UNL d   1     -39.653  15.597  20.620  0.00  0.00     0.164 A 
ATOM      3  C   UNL d   1     -39.453  15.764  18.142  0.00  0.00     0.079 A 
ATOM      4  C   UNL d   1     -40.265  15.757  19.329  0.00  0.00     0.064 A 
ATOM      5  C   UNL d   1     -40.335  15.702  20.147  0.00  0.00     0.222 A 
ATOM      6  O   UNL d   1     -38.836  15.604  19.425  0.00  0.00    -0.303 OA
ATOM      7  C   UNL d   1     -38.904  15.549  20.257  0.00  0.00     0.150 A 
ATOM      8  C   UNL d   1     -40.943  15.862  18.855  0.00  0.00     0.009 A 
ATOM      9  C   UNL d   1     -40.119  15.867  17.675  0.00  0.00     0.199 A 
ATOM     10  O   UNL d   1     -41.074  15.750  20.511  0.00  0.00    -0.284 OA
ATOM     11  C   UNL d   1     -40.873  15.916  18.036  0.00  0.00     0.042 A 
ATOM     12  O   UNL d   1     -40.061  15.922  16.863  0.00  0.00    -0.286 OA
ENDROOT
BRANCH   2  13
ATOM     13  O   UNL d   1     -39.722  15.543  21.438  0.00  0.00    -0.300 OA
BRANCH  13  14
ATOM     14  C   UNL d   1     -39.368  14.921  21.834  0.00  0.00     0.122 A 
ATOM     15  C   UNL d   1     -39.053  15.037  22.578  0.00  0.00     0.117 A 
ATOM     16  C   UNL d   1     -38.697  14.413  22.976  0.00  0.00     0.026 A 
ATOM     17  C   UNL d   1     -38.661  13.669  22.618  0.00  0.00     0.002 A 
ATOM     18  C   UNL d   1     -38.977  13.553  21.874  0.00  0.00     0.002 A 
ATOM     19  C   UNL d   1     -39.334  14.181  21.474  0.00  0.00     0.027 A 
BRANCH  15  20
ATOM     20  O   UNL d   1     -39.095  15.783  22.925  0.00  0.00    -0.326 OA
ATOM     21  C   UNL d   1     -38.734  15.921  23.654  0.00  0.00     0.181 C 
ENDBRANCH  15  20
ENDBRANCH  13  14
ENDBRANCH   2  13
BRANCH   3  22
ATOM     22  C   UNL d   1     -38.715  15.715  17.788  0.00  0.00     0.086 C 
BRANCH  22  23
ATOM     23  N   UNL d   1     -38.520  15.056  17.328  0.00  0.00    -0.300 N 
ATOM     24  C   UNL d   1     -38.583  14.299  17.650  0.00  0.00     0.100 A 
ATOM     25  C   UNL d   1     -38.389  13.643  17.193  0.00  0.00     0.100 A 
ATOM     26  N   UNL d   1     -38.133  13.742  16.413  0.00  0.00    -0.299 N 
ATOM     27  C   UNL d   1     -38.072  14.501  16.094  0.00  0.00     0.100 A 
ATOM     28  C   UNL d   1     -37.940  13.086  15.956  0.00  0.00     0.100 C 
ATOM     29  C   UNL d   1     -38.266  15.167  16.552  0.00  0.00     0.100 A 
ENDBRANCH  22  23
ENDBRANCH   3  22
TORSDOF 5
ENDMDL
MODEL 6
REMARK VINA RESULT:      -5.3      1.935      5.119
REMARK  5 active torsions:
REMARK  status: ('A' for Active; 'I' for Inactive)
REMARK    1  A    between atoms: O_8  and  C_2 
REMARK    2  A    between atoms: C_10  and  C_3 
REMARK    3  A    between atoms: C_14  and  O_8 
REMARK    4  A    between atoms: N_9  and  C_10 
REMARK    5  A    between atoms: O_23  and  C_17 
ROOT
ATOM      1  C   UNL d   1     -46.902  13.334  22.488  0.00  0.00     0.108 A 
ATOM      2  C   UNL d   1     -48.512  13.486  22.889  0.00  0.00     0.164 A 
ATOM      3  C   UNL d   1     -46.102  13.267  22.293  0.00  0.00     0.079 A 
ATOM      4  C   UNL d   1     -47.185  14.036  22.846  0.00  0.00     0.064 A 
ATOM      5  C   UNL d   1     -47.980  14.113  23.044  0.00  0.00     0.222 A 
ATOM      6  O   UNL d   1     -47.423  12.712  22.333  0.00  0.00    -0.303 OA
ATOM      7  C   UNL d   1     -48.231  12.786  22.533  0.00  0.00     0.150 A 
ATOM      8  C   UNL d   1     -46.652  14.660  22.999  0.00  0.00     0.009 A 
ATOM      9  C   UNL d   1     -45.578  13.880  22.444  0.00  0.00     0.199 A 
ATOM     10  O   UNL d   1     -48.263  14.803  23.396  0.00  0.00    -0.284 OA
ATOM     11  C   UNL d   1     -45.856  14.584  22.801  0.00  0.00     0.042 A 
ATOM     12  O   UNL d   1     -44.787  13.814  22.251  0.00  0.00    -0.286 OA
ENDROOT
BRANCH   2  13
ATOM     13  O   UNL d   1     -49.307  13.561  23.087  0.00  0.00    -0.300 OA
BRANCH  13  14
ATOM     14  C   UNL d   1     -49.881  13.343  22.547  0.00  0.00     0.122 A 
ATOM     15  C   UNL d   1     -50.487  12.844  22.773  0.00  0.00     0.117 A 
ATOM     16  C   UNL d   1     -51.063  12.625  22.231  0.00  0.00     0.026 A 
ATOM     17  C   UNL d   1     -51.026  12.912  21.457  0.00  0.00     0.002 A 
ATOM     18  C   UNL d   1     -50.420  13.411  21.231  0.00  0.00     0.002 A 
ATOM     19  C   UNL d   1     -49.841  13.631  21.776  0.00  0.00     0.027 A 
BRANCH  15  20
ATOM     20  O   UNL d   1     -50.514  12.564  23.547  0.00  0.00    -0.326 OA
ATOM     21  C   UNL d   1     -50.734  11.783  23.696  0.00  0.00     0.181 C 
ENDBRANCH  15  20
ENDBRANCH  13  14
ENDBRANCH   2  13
BRANCH   3  22
ATOM     22  C   UNL d   1     -45.830  12.578  21.944  0.00  0.00     0.086 C 
BRANCH  22  23
ATOM     23  N   UNL d   1     -45.355  12.055  22.376  0.00  0.00    -0.300 N 
ATOM     24  C   UNL d   1     -45.702  11.551  22.928  0.00  0.00     0.100 A 
ATOM     25  C   UNL d   1     -45.231  11.031  23.359  0.00  0.00     0.100 A 
ATOM     26  N   UNL d   1     -44.413  11.015  23.237  0.00  0.00    -0.299 N 
ATOM     27  C   UNL d   1     -44.070  11.521  22.683  0.00  0.00     0.100 A 
ATOM     28  C   UNL d   1     -43.942  10.495  23.667  0.00  0.00     0.100 C 
ATOM     29  C   UNL d   1     -44.542  12.048  22.246  0.00  0.00     0.100 A 
ENDBRANCH  22  23
ENDBRANCH   3  22
TORSDOF 5
ENDMDL
