MODEL 1
REMARK VINA RESULT:      -4.3      0.000      0.000
REMARK  3 active torsions:
REMARK  status: ('A' for Active; 'I' for Inactive)
REMARK    1  A    between atoms: C_2  and  C_1 
REMARK       I    between atoms: N_7  and  C_2 
REMARK    2  A    between atoms: C_9  and  N_7 
REMARK    3  A    between atoms: O_13  and  C_11 
ROOT
ATOM      1  C   UNL d   1      59.140  -9.286  35.413  0.00  0.00     0.280 C 
ATOM      2  N   UNL d   1      59.103  -8.661  35.944  0.00  0.00    -0.208 NA
ATOM      3  O   UNL d   1      58.516  -9.818  35.358  0.00  0.00    -0.265 OA
ENDROOT
BRANCH   1   4
ATOM      4  C   UNL d   1      59.807  -9.381  34.933  0.00  0.00     0.065 A 
ATOM      5  C   UNL d   1      59.814  -9.422  34.113  0.00  0.00     0.011 A 
ATOM      6  C   UNL d   1      60.594  -9.518  33.859  0.00  0.00     0.030 A 
ATOM      7  C   UNL d   1      59.201  -9.383  33.563  0.00  0.00     0.001 A 
ATOM      8  C   UNL d   1      60.762  -9.576  33.054  0.00  0.00     0.006 A 
ATOM      9  S   UNL d   1      61.088  -9.539  34.528  0.00  0.00    -0.086 SA
ATOM     10  C   UNL d   1      60.150  -9.536  32.503  0.00  0.00     0.001 A 
ATOM     11  C   UNL d   1      59.370  -9.440  32.757  0.00  0.00     0.000 A 
ATOM     12  C   UNL d   1      60.609  -9.455  35.198  0.00  0.00     0.040 A 
ENDBRANCH   1   4
BRANCH   2  13
ATOM     13  C   UNL d   1      59.736  -8.122  36.000  0.00  0.00     0.087 A 
ATOM     14  C   UNL d   1      59.617  -7.337  35.780  0.00  0.00     0.043 A 
ATOM     15  C   UNL d   1      60.249  -6.801  35.837  0.00  0.00     0.096 A 
ATOM     16  C   UNL d   1      60.987  -7.058  36.112  0.00  0.00     0.024 A 
ATOM     17  C   UNL d   1      61.092  -7.850  36.330  0.00  0.00     0.004 A 
ATOM     18  C   UNL d   1      60.469  -8.382  36.274  0.00  0.00     0.019 A 
BRANCH  15  19
ATOM     19  O   UNL d   1      60.131  -6.017  35.617  0.00  0.00    -0.328 OA
ATOM     20  C   UNL d   1      60.642  -5.427  35.887  0.00  0.00     0.181 C 
ENDBRANCH  15  19
ENDBRANCH   2  13
TORSDOF 3
ENDMDL
MODEL 2
REMARK VINA RESULT:      -3.7      1.171      3.182
REMARK  3 active torsions:
REMARK  status: ('A' for Active; 'I' for Inactive)
REMARK    1  A    between atoms: C_2  and  C_1 
REMARK       I    between atoms: N_7  and  C_2 
REMARK    2  A    between atoms: C_9  and  N_7 
REMARK    3  A    between atoms: O_13  and  C_11 
ROOT
ATOM      1  C   UNL d   1      59.246  -9.381  35.729  0.00  0.00     0.280 C 
ATOM      2  N   UNL d   1      59.202  -9.818  35.036  0.00  0.00    -0.208 NA
ATOM      3  O   UNL d   1      58.684  -9.486  36.320  0.00  0.00    -0.265 OA
ENDROOT
BRANCH   1   4
ATOM      4  C   UNL d   1      59.857  -8.834  35.835  0.00  0.00     0.065 A 
ATOM      5  C   UNL d   1      59.775  -8.021  35.913  0.00  0.00     0.011 A 
ATOM      6  C   UNL d   1      60.524  -7.686  36.007  0.00  0.00     0.030 A 
ATOM      7  C   UNL d   1      59.104  -7.542  35.910  0.00  0.00     0.001 A 
ATOM      8  C   UNL d   1      60.603  -6.871  36.099  0.00  0.00     0.006 A 
ATOM      9  S   UNL d   1      61.089  -8.296  35.988  0.00  0.00    -0.086 SA
ATOM     10  C   UNL d   1      59.933  -6.390  36.096  0.00  0.00     0.001 A 
ATOM     11  C   UNL d   1      59.184  -6.725  36.001  0.00  0.00     0.000 A 
ATOM     12  C   UNL d   1      60.686  -9.011  35.882  0.00  0.00     0.040 A 
ENDBRANCH   1   4
BRANCH   2  13
ATOM     13  C   UNL d   1      59.771  -9.711  34.437  0.00  0.00     0.087 A 
ATOM     14  C   UNL d   1      59.525  -9.510  33.677  0.00  0.00     0.043 A 
ATOM     15  C   UNL d   1      60.095  -9.405  33.083  0.00  0.00     0.096 A 
ATOM     16  C   UNL d   1      60.899  -9.502  33.256  0.00  0.00     0.024 A 
ATOM     17  C   UNL d   1      61.132  -9.704  34.025  0.00  0.00     0.004 A 
ATOM     18  C   UNL d   1      60.571  -9.809  34.615  0.00  0.00     0.019 A 
BRANCH  15  19
ATOM     19  O   UNL d   1      59.849  -9.204  32.324  0.00  0.00    -0.328 OA
ATOM     20  C   UNL d   1      59.757  -9.788  31.747  0.00  0.00     0.181 C 
ENDBRANCH  15  19
ENDBRANCH   2  13
TORSDOF 3
ENDMDL
MODEL 3
REMARK VINA RESULT:      -3.7      8.586     10.257
REMARK  3 active torsions:
REMARK  status: ('A' for Active; 'I' for Inactive)
REMARK    1  A    between atoms: C_2  and  C_1 
REMARK       I    between atoms: N_7  and  C_2 
REMARK    2  A    between atoms: C_9  and  N_7 
REMARK    3  A    between atoms: O_13  and  C_11 
ROOT
ATOM      1  C   UNL d   1      58.143   0.256  28.996  0.00  0.00     0.280 C 
ATOM      2  N   UNL d   1      58.443  -0.313  28.485  0.00  0.00    -0.208 NA
ATOM      3  O   UNL d   1      57.471   0.682  28.789  0.00  0.00    -0.265 OA
ENDROOT
BRANCH   1   4
ATOM      4  C   UNL d   1      58.517   0.400  29.719  0.00  0.00     0.065 A 
ATOM      5  C   UNL d   1      58.162   0.398  30.459  0.00  0.00     0.011 A 
ATOM      6  C   UNL d   1      58.735   0.568  31.029  0.00  0.00     0.030 A 
ATOM      7  C   UNL d   1      57.381   0.262  30.685  0.00  0.00     0.001 A 
ATOM      8  C   UNL d   1      58.528   0.602  31.826  0.00  0.00     0.006 A 
ATOM      9  S   UNL d   1      59.464   0.679  30.644  0.00  0.00    -0.086 SA
ATOM     10  C   UNL d   1      57.747   0.466  32.053  0.00  0.00     0.001 A 
ATOM     11  C   UNL d   1      57.174   0.296  31.483  0.00  0.00     0.000 A 
ATOM     12  C   UNL d   1      59.339   0.577  29.832  0.00  0.00     0.040 A 
ENDBRANCH   1   4
BRANCH   2  13
ATOM     13  C   UNL d   1      59.124  -0.745  28.694  0.00  0.00     0.087 A 
ATOM     14  C   UNL d   1      59.041  -1.506  29.000  0.00  0.00     0.043 A 
ATOM     15  C   UNL d   1      59.721  -1.934  29.207  0.00  0.00     0.096 A 
ATOM     16  C   UNL d   1      60.471  -1.598  29.106  0.00  0.00     0.024 A 
ATOM     17  C   UNL d   1      60.540  -0.832  28.797  0.00  0.00     0.004 A 
ATOM     18  C   UNL d   1      59.869  -0.406  28.591  0.00  0.00     0.019 A 
BRANCH  15  19
ATOM     19  O   UNL d   1      59.638  -2.694  29.512  0.00  0.00    -0.328 OA
ATOM     20  C   UNL d   1      59.815  -3.352  29.046  0.00  0.00     0.181 C 
ENDBRANCH  15  19
ENDBRANCH   2  13
TORSDOF 3
ENDMDL
MODEL 4
REMARK VINA RESULT:      -3.2      8.794      9.696
REMARK  3 active torsions:
REMARK  status: ('A' for Active; 'I' for Inactive)
REMARK    1  A    between atoms: C_2  and  C_1 
REMARK       I    between atoms: N_7  and  C_2 
REMARK    2  A    between atoms: C_9  and  N_7 
REMARK    3  A    between atoms: O_13  and  C_11 
ROOT
ATOM      1  C   UNL d   1      57.956   0.312  29.240  0.00  0.00     0.280 C 
ATOM      2  N   UNL d   1      57.384   0.488  29.802  0.00  0.00    -0.208 NA
ATOM      3  O   UNL d   1      57.850   0.540  28.458  0.00  0.00    -0.265 OA
ENDROOT
BRANCH   1   4
ATOM      4  C   UNL d   1      58.641  -0.096  29.461  0.00  0.00     0.065 A 
ATOM      5  C   UNL d   1      58.875  -0.835  29.193  0.00  0.00     0.011 A 
ATOM      6  C   UNL d   1      59.590  -1.034  29.553  0.00  0.00     0.030 A 
ATOM      7  C   UNL d   1      58.521  -1.356  28.660  0.00  0.00     0.001 A 
ATOM      8  C   UNL d   1      59.953  -1.754  29.382  0.00  0.00     0.006 A 
ATOM      9  S   UNL d   1      59.813  -0.412  30.058  0.00  0.00    -0.086 SA
ATOM     10  C   UNL d   1      59.600  -2.276  28.849  0.00  0.00     0.001 A 
ATOM     11  C   UNL d   1      58.884  -2.076  28.488  0.00  0.00     0.000 A 
ATOM     12  C   UNL d   1      59.231   0.175  30.007  0.00  0.00     0.040 A 
ENDBRANCH   1   4
BRANCH   2  13
ATOM     13  C   UNL d   1      57.492   0.256  30.595  0.00  0.00     0.087 A 
ATOM     14  C   UNL d   1      57.078  -0.395  30.885  0.00  0.00     0.043 A 
ATOM     15  C   UNL d   1      57.188  -0.623  31.676  0.00  0.00     0.096 A 
ATOM     16  C   UNL d   1      57.706  -0.199  32.162  0.00  0.00     0.024 A 
ATOM     17  C   UNL d   1      58.115   0.454  31.858  0.00  0.00     0.004 A 
ATOM     18  C   UNL d   1      58.009   0.682  31.076  0.00  0.00     0.019 A 
BRANCH  15  19
ATOM     19  O   UNL d   1      56.775  -1.273  31.965  0.00  0.00    -0.328 OA
ATOM     20  C   UNL d   1      56.148  -1.168  32.492  0.00  0.00     0.181 C 
ENDBRANCH  15  19
ENDBRANCH   2  13
TORSDOF 3
ENDMDL
MODEL 5
REMARK VINA RESULT:      -1.9      9.138      9.856
REMARK  3 active torsions:
REMARK  status: ('A' for Active; 'I' for Inactive)
REMARK    1  A    between atoms: C_2  and  C_1 
REMARK       I    between atoms: N_7  and  C_2 
REMARK    2  A    between atoms: C_9  and  N_7 
REMARK    3  A    between atoms: O_13  and  C_11 
ROOT
ATOM      1  C   UNL d   1      58.120   0.335  29.235  0.00  0.00     0.280 C 
ATOM      2  N   UNL d   1      57.597   0.651  29.783  0.00  0.00    -0.208 NA
ATOM      3  O   UNL d   1      58.201   0.682  28.495  0.00  0.00    -0.265 OA
ENDROOT
BRANCH   1   4
ATOM      4  C   UNL d   1      58.568  -0.333  29.429  0.00  0.00     0.065 A 
ATOM      5  C   UNL d   1      59.384  -0.401  29.385  0.00  0.00     0.011 A 
ATOM      6  C   UNL d   1      59.601  -1.160  29.629  0.00  0.00     0.030 A 
ATOM      7  C   UNL d   1      59.961   0.140  29.152  0.00  0.00     0.001 A 
ATOM      8  C   UNL d   1      60.396  -1.379  29.639  0.00  0.00     0.006 A 
ATOM      9  S   UNL d   1      58.911  -1.579  29.830  0.00  0.00    -0.086 SA
ATOM     10  C   UNL d   1      60.974  -0.839  29.406  0.00  0.00     0.001 A 
ATOM     11  C   UNL d   1      60.757  -0.080  29.162  0.00  0.00     0.000 A 
ATOM     12  C   UNL d   1      58.266  -1.075  29.709  0.00  0.00     0.040 A 
ENDBRANCH   1   4
BRANCH   2  13
ATOM     13  C   UNL d   1      57.515   0.299  30.534  0.00  0.00     0.087 A 
ATOM     14  C   UNL d   1      57.851   0.667  31.190  0.00  0.00     0.043 A 
ATOM     15  C   UNL d   1      57.768   0.314  31.938  0.00  0.00     0.096 A 
ATOM     16  C   UNL d   1      57.352  -0.396  32.018  0.00  0.00     0.024 A 
ATOM     17  C   UNL d   1      57.018  -0.755  31.349  0.00  0.00     0.004 A 
ATOM     18  C   UNL d   1      57.099  -0.409  30.609  0.00  0.00     0.019 A 
BRANCH  15  19
ATOM     19  O   UNL d   1      58.104   0.681  32.593  0.00  0.00    -0.328 OA
ATOM     20  C   UNL d   1      57.857   0.482  33.355  0.00  0.00     0.181 C 
ENDBRANCH  15  19
ENDBRANCH   2  13
TORSDOF 3
ENDMDL
MODEL 6
REMARK VINA RESULT:      -1.7      9.070      9.987
REMARK  3 active torsions:
REMARK  status: ('A' for Active; 'I' for Inactive)
REMARK    1  A    between atoms: C_2  and  C_1 
REMARK       I    between atoms: N_7  and  C_2 
REMARK    2  A    between atoms: C_9  and  N_7 
REMARK    3  A    between atoms: O_13  and  C_11 
ROOT
ATOM      1  C   UNL d   1      58.010   0.415  32.513  0.00  0.00     0.280 C 
ATOM      2  N   UNL d   1      58.436   0.638  31.848  0.00  0.00    -0.208 NA
ATOM      3  O   UNL d   1      58.236   0.682  33.257  0.00  0.00    -0.265 OA
ENDROOT
BRANCH   1   4
ATOM      4  C   UNL d   1      57.351  -0.079  32.436  0.00  0.00     0.065 A 
ATOM      5  C   UNL d   1      56.634   0.002  32.825  0.00  0.00     0.011 A 
ATOM      6  C   UNL d   1      56.131  -0.609  32.587  0.00  0.00     0.030 A 
ATOM      7  C   UNL d   1      56.374   0.561  33.373  0.00  0.00     0.001 A 
ATOM      8  C   UNL d   1      55.369  -0.661  32.895  0.00  0.00     0.006 A 
ATOM      9  S   UNL d   1      56.537  -1.084  32.038  0.00  0.00    -0.086 SA
ATOM     10  C   UNL d   1      55.108  -0.102  33.443  0.00  0.00     0.001 A 
ATOM     11  C   UNL d   1      55.610   0.509  33.681  0.00  0.00     0.000 A 
ATOM     12  C   UNL d   1      57.294  -0.764  31.937  0.00  0.00     0.040 A 
ENDBRANCH   1   4
BRANCH   2  13
ATOM     13  C   UNL d   1      58.207   0.367  31.094  0.00  0.00     0.087 A 
ATOM     14  C   UNL d   1      58.662  -0.205  30.715  0.00  0.00     0.043 A 
ATOM     15  C   UNL d   1      58.431  -0.473  29.964  0.00  0.00     0.096 A 
ATOM     16  C   UNL d   1      57.752  -0.166  29.604  0.00  0.00     0.024 A 
ATOM     17  C   UNL d   1      57.303   0.409  29.997  0.00  0.00     0.004 A 
ATOM     18  C   UNL d   1      57.529   0.676  30.740  0.00  0.00     0.019 A 
BRANCH  15  19
ATOM     19  O   UNL d   1      58.886  -1.045  29.586  0.00  0.00    -0.328 OA
ATOM     20  C   UNL d   1      58.726  -1.254  28.803  0.00  0.00     0.181 C 
ENDBRANCH  15  19
ENDBRANCH   2  13
TORSDOF 3
ENDMDL
MODEL 7
REMARK VINA RESULT:      -1.6      9.117      9.956
REMARK  3 active torsions:
REMARK  status: ('A' for Active; 'I' for Inactive)
REMARK    1  A    between atoms: C_2  and  C_1 
REMARK       I    between atoms: N_7  and  C_2 
REMARK    2  A    between atoms: C_9  and  N_7 
REMARK    3  A    between atoms: O_13  and  C_11 
ROOT
ATOM      1  C   UNL d   1      57.999   0.452  32.750  0.00  0.00     0.280 C 
ATOM      2  N   UNL d   1      57.584   0.167  33.398  0.00  0.00    -0.208 NA
ATOM      3  O   UNL d   1      58.784   0.680  32.831  0.00  0.00    -0.265 OA
ENDROOT
BRANCH   1   4
ATOM      4  C   UNL d   1      57.627   0.511  32.014  0.00  0.00     0.065 A 
ATOM      5  C   UNL d   1      57.983   0.420  31.280  0.00  0.00     0.011 A 
ATOM      6  C   UNL d   1      57.411   0.524  30.693  0.00  0.00     0.030 A 
ATOM      7  C   UNL d   1      58.764   0.255  31.073  0.00  0.00     0.001 A 
ATOM      8  C   UNL d   1      57.619   0.462  29.898  0.00  0.00     0.006 A 
ATOM      9  S   UNL d   1      56.682   0.682  31.061  0.00  0.00    -0.086 SA
ATOM     10  C   UNL d   1      58.400   0.296  29.690  0.00  0.00     0.001 A 
ATOM     11  C   UNL d   1      58.972   0.193  30.277  0.00  0.00     0.000 A 
ATOM     12  C   UNL d   1      56.805   0.676  31.879  0.00  0.00     0.040 A 
ENDBRANCH   1   4
BRANCH   2  13
ATOM     13  C   UNL d   1      56.788  -0.065  33.316  0.00  0.00     0.087 A 
ATOM     14  C   UNL d   1      56.193   0.424  33.609  0.00  0.00     0.043 A 
ATOM     15  C   UNL d   1      55.401   0.191  33.526  0.00  0.00     0.096 A 
ATOM     16  C   UNL d   1      55.215  -0.523  33.153  0.00  0.00     0.024 A 
ATOM     17  C   UNL d   1      55.823  -1.006  32.862  0.00  0.00     0.004 A 
ATOM     18  C   UNL d   1      56.608  -0.778  32.943  0.00  0.00     0.019 A 
BRANCH  15  19
ATOM     19  O   UNL d   1      54.807   0.680  33.819  0.00  0.00    -0.328 OA
ATOM     20  C   UNL d   1      54.185   0.362  34.260  0.00  0.00     0.181 C 
ENDBRANCH  15  19
ENDBRANCH   2  13
TORSDOF 3
ENDMDL
MODEL 8
REMARK VINA RESULT:      -1.3      8.531      9.783
REMARK  3 active torsions:
REMARK  status: ('A' for Active; 'I' for Inactive)
REMARK    1  A    between atoms: C_2  and  C_1 
REMARK       I    between atoms: N_7  and  C_2 
REMARK    2  A    between atoms: C_9  and  N_7 
REMARK    3  A    between atoms: O_13  and  C_11 
ROOT
ATOM      1  C   UNL d   1      60.289  -0.335  28.862  0.00  0.00     0.280 C 
ATOM      2  N   UNL d   1      60.062   0.352  29.250  0.00  0.00    -0.208 NA
ATOM      3  O   UNL d   1      61.054  -0.410  28.570  0.00  0.00    -0.265 OA
ENDROOT
BRANCH   1   4
ATOM      4  C   UNL d   1      59.748  -0.953  28.764  0.00  0.00     0.065 A 
ATOM      5  C   UNL d   1      59.873  -1.743  28.946  0.00  0.00     0.011 A 
ATOM      6  C   UNL d   1      59.191  -2.170  28.762  0.00  0.00     0.030 A 
ATOM      7  C   UNL d   1      60.531  -2.129  29.260  0.00  0.00     0.001 A 
ATOM      8  C   UNL d   1      59.164  -2.983  28.891  0.00  0.00     0.006 A 
ATOM      9  S   UNL d   1      58.624  -1.642  28.458  0.00  0.00    -0.086 SA
ATOM     10  C   UNL d   1      59.821  -3.370  29.205  0.00  0.00     0.001 A 
ATOM     11  C   UNL d   1      60.504  -2.944  29.390  0.00  0.00     0.000 A 
ATOM     12  C   UNL d   1      58.960  -0.885  28.455  0.00  0.00     0.040 A 
ENDBRANCH   1   4
BRANCH   2  13
ATOM     13  C   UNL d   1      59.286   0.428  29.545  0.00  0.00     0.087 A 
ATOM     14  C   UNL d   1      59.150   0.324  30.351  0.00  0.00     0.043 A 
ATOM     15  C   UNL d   1      58.376   0.401  30.642  0.00  0.00     0.096 A 
ATOM     16  C   UNL d   1      57.754   0.580  30.127  0.00  0.00     0.024 A 
ATOM     17  C   UNL d   1      57.906   0.682  29.319  0.00  0.00     0.004 A 
ATOM     18  C   UNL d   1      58.669   0.607  29.027  0.00  0.00     0.019 A 
BRANCH  15  19
ATOM     19  O   UNL d   1      58.240   0.296  31.447  0.00  0.00    -0.328 OA
ATOM     20  C   UNL d   1      57.478   0.139  31.724  0.00  0.00     0.181 C 
ENDBRANCH  15  19
ENDBRANCH   2  13
TORSDOF 3
ENDMDL
