MODEL 1
REMARK VINA RESULT:      -5.5      0.000      0.000
REMARK  7 active torsions:
REMARK  status: ('A' for Active; 'I' for Inactive)
REMARK    1  A    between atoms: S_3  and  N_1 
REMARK    2  A    between atoms: C_18  and  S_3 
REMARK    3  A    between atoms: C_8  and  C_4 
REMARK    4  A    between atoms: S_5  and  N_9 
REMARK    5  A    between atoms: C_12  and  C_6 
REMARK    6  A    between atoms: N_9  and  C_19 
REMARK    7  A    between atoms: C_26  and  C_18 
ROOT
ATOM      1  N   UNL d   1     -40.152  14.645  20.328  0.00  0.00    -0.152 N 
ATOM      2  N   UNL d   1     -40.067  14.512  19.515  0.00  0.00    -0.155 NA
ATOM      3  C   UNL d   1     -39.394  14.648  20.662  0.00  0.00     0.098 A 
ATOM      4  C   UNL d   1     -39.265  14.435  19.350  0.00  0.00     0.104 A 
ATOM      5  C   UNL d   1     -38.853  14.519  20.058  0.00  0.00     0.041 A 
ENDROOT
BRANCH   4   6
ATOM      6  C   UNL d   1     -38.934  14.299  18.611  0.00  0.00     0.019 A 
ATOM      7  C   UNL d   1     -39.122  13.615  18.202  0.00  0.00     0.003 A 
ATOM      8  C   UNL d   1     -38.789  13.477  17.458  0.00  0.00     0.020 A 
ATOM      9  C   UNL d   1     -38.267  14.028  17.129  0.00  0.00     0.093 A 
ATOM     10  C   UNL d   1     -38.083  14.714  17.547  0.00  0.00     0.020 A 
ATOM     11  C   UNL d   1     -38.411  14.853  18.282  0.00  0.00     0.003 A 
BRANCH   9  12
ATOM     12  N   UNL d   1     -37.940  13.883  16.387  0.00  0.00    -0.162 NA
BRANCH  12  13
ATOM     13  S   UNL d   1     -38.308  14.146  15.707  0.00  0.00     0.266 S 
ATOM     14  O   UNL d   1     -38.568  13.362  15.689  0.00  0.00    -0.203 OA
ATOM     15  O   UNL d   1     -38.775  14.091  15.028  0.00  0.00    -0.203 OA
ATOM     16  C   UNL d   1     -38.062  14.931  15.702  0.00  0.00     0.165 C 
ENDBRANCH  12  13
ENDBRANCH   9  12
ENDBRANCH   4   6
BRANCH   1  17
ATOM     17  S   UNL d   1     -40.866  14.752  20.724  0.00  0.00     0.287 S 
ATOM     18  O   UNL d   1     -40.428  15.406  20.479  0.00  0.00    -0.198 OA
ATOM     19  O   UNL d   1     -41.439  15.251  21.041  0.00  0.00    -0.198 OA
BRANCH  17  20
ATOM     20  C   UNL d   1     -41.250  14.065  20.939  0.00  0.00     0.117 C 
BRANCH  20  21
ATOM     21  C   UNL d   1     -42.072  14.064  21.022  0.00  0.00     0.014 C 
ATOM     22  C   UNL d   1     -42.465  13.358  21.201  0.00  0.00     0.001 C 
ENDBRANCH  20  21
ENDBRANCH  17  20
ENDBRANCH   1  17
BRANCH   3  23
ATOM     23  C   UNL d   1     -39.225  14.761  21.453  0.00  0.00     0.046 A 
ATOM     24  C   UNL d   1     -38.950  14.108  21.896  0.00  0.00     0.142 A 
ATOM     25  F   UNL d   1     -38.857  13.374  21.532  0.00  0.00    -0.204 F 
ATOM     26  C   UNL d   1     -38.775  14.211  22.701  0.00  0.00     0.030 A 
ATOM     27  C   UNL d   1     -38.869  14.913  23.033  0.00  0.00     0.002 A 
ATOM     28  C   UNL d   1     -39.144  15.566  22.589  0.00  0.00     0.000 A 
ATOM     29  C   UNL d   1     -39.332  15.527  21.795  0.00  0.00     0.004 A 
ENDBRANCH   3  23
TORSDOF 7
ENDMDL
MODEL 2
REMARK VINA RESULT:      -5.5      6.584      9.153
REMARK  7 active torsions:
REMARK  status: ('A' for Active; 'I' for Inactive)
REMARK    1  A    between atoms: S_3  and  N_1 
REMARK    2  A    between atoms: C_18  and  S_3 
REMARK    3  A    between atoms: C_8  and  C_4 
REMARK    4  A    between atoms: S_5  and  N_9 
REMARK    5  A    between atoms: C_12  and  C_6 
REMARK    6  A    between atoms: N_9  and  C_19 
REMARK    7  A    between atoms: C_26  and  C_18 
ROOT
ATOM      1  N   UNL d   1     -48.658  13.255  22.691  0.00  0.00    -0.152 N 
ATOM      2  N   UNL d   1     -47.934  12.868  22.585  0.00  0.00    -0.155 NA
ATOM      3  C   UNL d   1     -48.497  14.057  22.819  0.00  0.00     0.098 A 
ATOM      4  C   UNL d   1     -47.333  13.426  22.646  0.00  0.00     0.104 A 
ATOM      5  C   UNL d   1     -47.683  14.158  22.791  0.00  0.00     0.041 A 
ENDROOT
BRANCH   4   6
ATOM      6  C   UNL d   1     -46.528  13.280  22.576  0.00  0.00     0.019 A 
ATOM      7  C   UNL d   1     -46.207  12.607  22.913  0.00  0.00     0.003 A 
ATOM      8  C   UNL d   1     -45.396  12.460  22.843  0.00  0.00     0.020 A 
ATOM      9  C   UNL d   1     -44.912  12.991  22.433  0.00  0.00     0.093 A 
ATOM     10  C   UNL d   1     -45.243  13.667  22.097  0.00  0.00     0.020 A 
ATOM     11  C   UNL d   1     -46.044  13.814  22.165  0.00  0.00     0.003 A 
BRANCH   9  12
ATOM     12  N   UNL d   1     -44.106  12.837  22.368  0.00  0.00    -0.162 NA
BRANCH  12  13
ATOM     13  S   UNL d   1     -43.751  12.760  21.636  0.00  0.00     0.266 S 
ATOM     14  O   UNL d   1     -43.970  11.971  21.748  0.00  0.00    -0.203 OA
ATOM     15  O   UNL d   1     -43.488  12.368  20.959  0.00  0.00    -0.203 OA
ATOM     16  C   UNL d   1     -43.522  13.538  21.502  0.00  0.00     0.165 C 
ENDBRANCH  12  13
ENDBRANCH   9  12
ENDBRANCH   4   6
BRANCH   1  17
ATOM     17  S   UNL d   1     -49.400  12.898  22.672  0.00  0.00     0.287 S 
ATOM     18  O   UNL d   1     -48.988  12.954  23.384  0.00  0.00    -0.198 OA
ATOM     19  O   UNL d   1     -50.020  12.518  23.057  0.00  0.00    -0.198 OA
BRANCH  17  20
ATOM     20  C   UNL d   1     -49.755  12.874  21.937  0.00  0.00     0.117 C 
BRANCH  20  21
ATOM     21  C   UNL d   1     -50.253  12.245  21.743  0.00  0.00     0.014 C 
ATOM     22  C   UNL d   1     -50.570  12.194  20.980  0.00  0.00     0.001 C 
ENDBRANCH  20  21
ENDBRANCH  17  20
ENDBRANCH   1  17
BRANCH   3  23
ATOM     23  C   UNL d   1     -49.056  14.638  22.950  0.00  0.00     0.046 A 
ATOM     24  C   UNL d   1     -49.113  15.264  22.399  0.00  0.00     0.142 A 
ATOM     25  F   UNL d   1     -48.612  15.283  21.744  0.00  0.00    -0.204 F 
ATOM     26  C   UNL d   1     -49.677  15.860  22.522  0.00  0.00     0.030 A 
ATOM     27  C   UNL d   1     -50.146  15.829  23.147  0.00  0.00     0.002 A 
ATOM     28  C   UNL d   1     -50.089  15.203  23.698  0.00  0.00     0.000 A 
ATOM     29  C   UNL d   1     -49.555  14.588  23.631  0.00  0.00     0.004 A 
ENDBRANCH   3  23
TORSDOF 7
ENDMDL
MODEL 3
REMARK VINA RESULT:      -5.1      6.752      9.505
REMARK  7 active torsions:
REMARK  status: ('A' for Active; 'I' for Inactive)
REMARK    1  A    between atoms: S_3  and  N_1 
REMARK    2  A    between atoms: C_18  and  S_3 
REMARK    3  A    between atoms: C_8  and  C_4 
REMARK    4  A    between atoms: S_5  and  N_9 
REMARK    5  A    between atoms: C_12  and  C_6 
REMARK    6  A    between atoms: N_9  and  C_19 
REMARK    7  A    between atoms: C_26  and  C_18 
ROOT
ATOM      1  N   UNL d   1     -48.729  14.100  22.610  0.00  0.00    -0.152 N 
ATOM      2  N   UNL d   1     -47.909  14.210  22.606  0.00  0.00    -0.155 NA
ATOM      3  C   UNL d   1     -48.872  13.284  22.614  0.00  0.00     0.098 A 
ATOM      4  C   UNL d   1     -47.549  13.470  22.608  0.00  0.00     0.104 A 
ATOM      5  C   UNL d   1     -48.145  12.902  22.613  0.00  0.00     0.041 A 
ENDROOT
BRANCH   4   6
ATOM      6  C   UNL d   1     -46.741  13.325  22.605  0.00  0.00     0.019 A 
ATOM      7  C   UNL d   1     -46.248  13.780  22.137  0.00  0.00     0.003 A 
ATOM      8  C   UNL d   1     -45.435  13.633  22.134  0.00  0.00     0.020 A 
ATOM      9  C   UNL d   1     -45.120  13.029  22.603  0.00  0.00     0.093 A 
ATOM     10  C   UNL d   1     -45.624  12.575  23.072  0.00  0.00     0.020 A 
ATOM     11  C   UNL d   1     -46.428  12.718  23.077  0.00  0.00     0.003 A 
BRANCH   9  12
ATOM     12  N   UNL d   1     -44.309  12.889  22.594  0.00  0.00    -0.162 NA
BRANCH  12  13
ATOM     13  S   UNL d   1     -43.942  12.587  21.929  0.00  0.00     0.266 S 
ATOM     14  O   UNL d   1     -43.955  11.898  22.385  0.00  0.00    -0.203 OA
ATOM     15  O   UNL d   1     -43.585  12.012  21.457  0.00  0.00    -0.203 OA
ATOM     16  C   UNL d   1     -43.917  13.259  21.457  0.00  0.00     0.165 C 
ENDBRANCH  12  13
ENDBRANCH   9  12
ENDBRANCH   4   6
BRANCH   1  17
ATOM     17  S   UNL d   1     -49.294  14.699  22.609  0.00  0.00     0.287 S 
ATOM     18  O   UNL d   1     -49.025  14.385  21.896  0.00  0.00    -0.198 OA
ATOM     19  O   UNL d   1     -49.792  15.211  22.200  0.00  0.00    -0.198 OA
BRANCH  17  20
ATOM     20  C   UNL d   1     -49.517  14.966  23.347  0.00  0.00     0.117 C 
BRANCH  20  21
ATOM     21  C   UNL d   1     -49.753  15.752  23.445  0.00  0.00     0.014 C 
ATOM     22  C   UNL d   1     -50.522  15.920  23.698  0.00  0.00     0.001 C 
ENDBRANCH  20  21
ENDBRANCH  17  20
ENDBRANCH   1  17
BRANCH   3  23
ATOM     23  C   UNL d   1     -49.608  12.931  22.619  0.00  0.00     0.046 A 
ATOM     24  C   UNL d   1     -49.852  12.513  21.938  0.00  0.00     0.142 A 
ATOM     25  F   UNL d   1     -49.352  12.466  21.284  0.00  0.00    -0.204 F 
ATOM     26  C   UNL d   1     -50.599  12.151  21.932  0.00  0.00     0.030 A 
ATOM     27  C   UNL d   1     -51.063  12.205  22.559  0.00  0.00     0.002 A 
ATOM     28  C   UNL d   1     -50.819  12.623  23.240  0.00  0.00     0.000 A 
ATOM     29  C   UNL d   1     -50.097  12.999  23.307  0.00  0.00     0.004 A 
ENDBRANCH   3  23
TORSDOF 7
ENDMDL
MODEL 4
REMARK VINA RESULT:      -4.3      2.152      5.064
REMARK  7 active torsions:
REMARK  status: ('A' for Active; 'I' for Inactive)
REMARK    1  A    between atoms: S_3  and  N_1 
REMARK    2  A    between atoms: C_18  and  S_3 
REMARK    3  A    between atoms: C_8  and  C_4 
REMARK    4  A    between atoms: S_5  and  N_9 
REMARK    5  A    between atoms: C_12  and  C_6 
REMARK    6  A    between atoms: N_9  and  C_19 
REMARK    7  A    between atoms: C_26  and  C_18 
ROOT
ATOM      1  N   UNL d   1     -38.965  14.821  17.982  0.00  0.00    -0.152 N 
ATOM      2  N   UNL d   1     -38.543  14.771  18.693  0.00  0.00    -0.155 NA
ATOM      3  C   UNL d   1     -39.733  15.072  18.165  0.00  0.00     0.098 A 
ATOM      4  C   UNL d   1     -39.046  14.988  19.307  0.00  0.00     0.104 A 
ATOM      5  C   UNL d   1     -39.778  15.173  18.978  0.00  0.00     0.041 A 
ENDROOT
BRANCH   4   6
ATOM      6  C   UNL d   1     -38.853  15.016  20.104  0.00  0.00     0.019 A 
ATOM      7  C   UNL d   1     -38.145  15.354  20.338  0.00  0.00     0.003 A 
ATOM      8  C   UNL d   1     -37.950  15.382  21.141  0.00  0.00     0.020 A 
ATOM      9  C   UNL d   1     -38.468  15.070  21.705  0.00  0.00     0.093 A 
ATOM     10  C   UNL d   1     -39.179  14.731  21.461  0.00  0.00     0.020 A 
ATOM     11  C   UNL d   1     -39.374  14.702  20.668  0.00  0.00     0.003 A 
BRANCH   9  12
ATOM     12  N   UNL d   1     -38.266  15.102  22.503  0.00  0.00    -0.162 NA
BRANCH  12  13
ATOM     13  S   UNL d   1     -38.537  14.537  23.028  0.00  0.00     0.266 S 
ATOM     14  O   UNL d   1     -39.004  15.171  23.280  0.00  0.00    -0.203 OA
ATOM     15  O   UNL d   1     -38.991  14.234  23.647  0.00  0.00    -0.203 OA
ATOM     16  C   UNL d   1     -38.083  13.892  22.796  0.00  0.00     0.165 C 
ENDBRANCH  12  13
ENDBRANCH   9  12
ENDBRANCH   4   6
BRANCH   1  17
ATOM     17  S   UNL d   1     -38.667  14.650  17.234  0.00  0.00     0.287 S 
ATOM     18  O   UNL d   1     -38.862  15.426  17.433  0.00  0.00    -0.198 OA
ATOM     19  O   UNL d   1     -38.434  14.898  16.484  0.00  0.00    -0.198 OA
BRANCH  17  20
ATOM     20  C   UNL d   1     -38.493  13.864  17.101  0.00  0.00     0.117 C 
BRANCH  20  21
ATOM     21  C   UNL d   1     -38.075  13.646  16.422  0.00  0.00     0.014 C 
ATOM     22  C   UNL d   1     -37.940  12.846  16.265  0.00  0.00     0.001 C 
ENDBRANCH  20  21
ENDBRANCH  17  20
ENDBRANCH   1  17
BRANCH   3  23
ATOM     23  C   UNL d   1     -40.333  15.194  17.624  0.00  0.00     0.046 A 
ATOM     24  C   UNL d   1     -40.980  14.666  17.624  0.00  0.00     0.142 A 
ATOM     25  F   UNL d   1     -41.001  14.041  18.161  0.00  0.00    -0.204 F 
ATOM     26  C   UNL d   1     -41.595  14.780  17.078  0.00  0.00     0.030 A 
ATOM     27  C   UNL d   1     -41.563  15.377  16.574  0.00  0.00     0.002 A 
ATOM     28  C   UNL d   1     -40.915  15.906  16.574  0.00  0.00     0.000 A 
ATOM     29  C   UNL d   1     -40.281  15.845  17.086  0.00  0.00     0.004 A 
ENDBRANCH   3  23
TORSDOF 7
ENDMDL
MODEL 5
REMARK VINA RESULT:      -4.3      1.224      2.150
REMARK  7 active torsions:
REMARK  status: ('A' for Active; 'I' for Inactive)
REMARK    1  A    between atoms: S_3  and  N_1 
REMARK    2  A    between atoms: C_18  and  S_3 
REMARK    3  A    between atoms: C_8  and  C_4 
REMARK    4  A    between atoms: S_5  and  N_9 
REMARK    5  A    between atoms: C_12  and  C_6 
REMARK    6  A    between atoms: N_9  and  C_19 
REMARK    7  A    between atoms: C_26  and  C_18 
ROOT
ATOM      1  N   UNL d   1     -39.222  15.068  20.127  0.00  0.00    -0.152 N 
ATOM      2  N   UNL d   1     -38.699  14.984  19.491  0.00  0.00    -0.155 NA
ATOM      3  C   UNL d   1     -39.991  15.087  19.818  0.00  0.00     0.098 A 
ATOM      4  C   UNL d   1     -39.140  14.951  18.798  0.00  0.00     0.104 A 
ATOM      5  C   UNL d   1     -39.935  15.015  19.002  0.00  0.00     0.041 A 
ENDROOT
BRANCH   4   6
ATOM      6  C   UNL d   1     -38.841  14.870  18.037  0.00  0.00     0.019 A 
ATOM      7  C   UNL d   1     -39.019  15.431  17.469  0.00  0.00     0.003 A 
ATOM      8  C   UNL d   1     -38.718  15.350  16.704  0.00  0.00     0.020 A 
ATOM      9  C   UNL d   1     -38.240  14.702  16.512  0.00  0.00     0.093 A 
ATOM     10  C   UNL d   1     -38.065  14.141  17.090  0.00  0.00     0.020 A 
ATOM     11  C   UNL d   1     -38.361  14.220  17.848  0.00  0.00     0.003 A 
BRANCH   9  12
ATOM     12  N   UNL d   1     -37.944  14.629  15.747  0.00  0.00    -0.162 NA
BRANCH  12  13
ATOM     13  S   UNL d   1     -38.112  13.970  15.294  0.00  0.00     0.266 S 
ATOM     14  O   UNL d   1     -38.240  14.550  14.718  0.00  0.00    -0.203 OA
ATOM     15  O   UNL d   1     -38.329  13.553  14.615  0.00  0.00    -0.203 OA
ATOM     16  C   UNL d   1     -37.991  13.375  15.848  0.00  0.00     0.165 C 
ENDBRANCH  12  13
ENDBRANCH   9  12
ENDBRANCH   4   6
BRANCH   1  17
ATOM     17  S   UNL d   1     -39.008  15.122  20.921  0.00  0.00     0.287 S 
ATOM     18  O   UNL d   1     -39.203  15.803  20.498  0.00  0.00    -0.198 OA
ATOM     19  O   UNL d   1     -38.873  15.575  21.594  0.00  0.00    -0.198 OA
BRANCH  17  20
ATOM     20  C   UNL d   1     -38.828  14.413  21.281  0.00  0.00     0.117 C 
BRANCH  20  21
ATOM     21  C   UNL d   1     -38.420  14.409  21.999  0.00  0.00     0.014 C 
ATOM     22  C   UNL d   1     -38.381  13.714  22.445  0.00  0.00     0.001 C 
ENDBRANCH  20  21
ENDBRANCH  17  20
ENDBRANCH   1  17
BRANCH   3  23
ATOM     23  C   UNL d   1     -40.676  15.163  20.256  0.00  0.00     0.046 A 
ATOM     24  C   UNL d   1     -41.178  14.499  20.326  0.00  0.00     0.142 A 
ATOM     25  F   UNL d   1     -40.975  13.790  19.957  0.00  0.00    -0.204 F 
ATOM     26  C   UNL d   1     -41.877  14.566  20.768  0.00  0.00     0.030 A 
ATOM     27  C   UNL d   1     -42.057  15.245  21.112  0.00  0.00     0.002 A 
ATOM     28  C   UNL d   1     -41.554  15.909  21.042  0.00  0.00     0.000 A 
ATOM     29  C   UNL d   1     -40.854  15.906  20.621  0.00  0.00     0.004 A 
ENDBRANCH   3  23
TORSDOF 7
ENDMDL
MODEL 6
REMARK VINA RESULT:      -4.1      2.156      5.127
REMARK  7 active torsions:
REMARK  status: ('A' for Active; 'I' for Inactive)
REMARK    1  A    between atoms: S_3  and  N_1 
REMARK    2  A    between atoms: C_18  and  S_3 
REMARK    3  A    between atoms: C_8  and  C_4 
REMARK    4  A    between atoms: S_5  and  N_9 
REMARK    5  A    between atoms: C_12  and  C_6 
REMARK    6  A    between atoms: N_9  and  C_19 
REMARK    7  A    between atoms: C_26  and  C_18 
ROOT
ATOM      1  N   UNL d   1     -40.865  14.430  20.256  0.00  0.00    -0.152 N 
ATOM      2  N   UNL d   1     -41.610  14.071  20.228  0.00  0.00    -0.155 NA
ATOM      3  C   UNL d   1     -40.609  14.415  21.043  0.00  0.00     0.098 A 
ATOM      4  C   UNL d   1     -41.811  13.837  20.991  0.00  0.00     0.104 A 
ATOM      5  C   UNL d   1     -41.192  14.050  21.491  0.00  0.00     0.041 A 
ENDROOT
BRANCH   4   6
ATOM      6  C   UNL d   1     -42.505  13.458  21.214  0.00  0.00     0.019 A 
ATOM      7  C   UNL d   1     -42.475  12.688  21.490  0.00  0.00     0.003 A 
ATOM      8  C   UNL d   1     -43.173  12.306  21.716  0.00  0.00     0.020 A 
ATOM      9  C   UNL d   1     -43.898  12.701  21.661  0.00  0.00     0.093 A 
ATOM     10  C   UNL d   1     -43.919  13.476  21.382  0.00  0.00     0.020 A 
ATOM     11  C   UNL d   1     -43.231  13.855  21.159  0.00  0.00     0.003 A 
BRANCH   9  12
ATOM     12  N   UNL d   1     -44.588  12.313  21.887  0.00  0.00    -0.162 NA
BRANCH  12  13
ATOM     13  S   UNL d   1     -45.078  12.628  22.461  0.00  0.00     0.266 S 
ATOM     14  O   UNL d   1     -44.745  12.016  22.907  0.00  0.00    -0.203 OA
ATOM     15  O   UNL d   1     -45.428  12.692  23.207  0.00  0.00    -0.203 OA
ATOM     16  C   UNL d   1     -45.423  13.243  22.039  0.00  0.00     0.165 C 
ENDBRANCH  12  13
ENDBRANCH   9  12
ENDBRANCH   4   6
BRANCH   1  17
ATOM     17  S   UNL d   1     -40.460  14.744  19.611  0.00  0.00     0.287 S 
ATOM     18  O   UNL d   1     -40.904  15.238  20.098  0.00  0.00    -0.198 OA
ATOM     19  O   UNL d   1     -40.246  15.388  19.146  0.00  0.00    -0.198 OA
BRANCH  17  20
ATOM     20  C   UNL d   1     -40.039  14.202  19.169  0.00  0.00     0.117 C 
BRANCH  20  21
ATOM     21  C   UNL d   1     -39.923  14.333  18.362  0.00  0.00     0.014 C 
ATOM     22  C   UNL d   1     -39.520  13.770  17.909  0.00  0.00     0.001 C 
ENDBRANCH  20  21
ENDBRANCH  17  20
ENDBRANCH   1  17
BRANCH   3  23
ATOM     23  C   UNL d   1     -39.899  14.713  21.317  0.00  0.00     0.046 A 
ATOM     24  C   UNL d   1     -39.308  14.173  21.556  0.00  0.00     0.142 A 
ATOM     25  F   UNL d   1     -39.451  13.362  21.512  0.00  0.00    -0.204 F 
ATOM     26  C   UNL d   1     -38.584  14.465  21.835  0.00  0.00     0.030 A 
ATOM     27  C   UNL d   1     -38.462  15.237  21.872  0.00  0.00     0.002 A 
ATOM     28  C   UNL d   1     -39.053  15.777  21.632  0.00  0.00     0.000 A 
ATOM     29  C   UNL d   1     -39.786  15.551  21.349  0.00  0.00     0.004 A 
ENDBRANCH   3  23
TORSDOF 7
ENDMDL
MODEL 7
REMARK VINA RESULT:      -3.8      2.597      5.264
REMARK  7 active torsions:
REMARK  status: ('A' for Active; 'I' for Inactive)
REMARK    1  A    between atoms: S_3  and  N_1 
REMARK    2  A    between atoms: C_18  and  S_3 
REMARK    3  A    between atoms: C_8  and  C_4 
REMARK    4  A    between atoms: S_5  and  N_9 
REMARK    5  A    between atoms: C_12  and  C_6 
REMARK    6  A    between atoms: N_9  and  C_19 
REMARK    7  A    between atoms: C_26  and  C_18 
ROOT
ATOM      1  N   UNL d   1     -40.347  14.319  21.102  0.00  0.00    -0.152 N 
ATOM      2  N   UNL d   1     -40.965  13.947  21.507  0.00  0.00    -0.155 NA
ATOM      3  C   UNL d   1     -40.599  14.448  20.323  0.00  0.00     0.098 A 
ATOM      4  C   UNL d   1     -41.592  13.846  20.984  0.00  0.00     0.104 A 
ATOM      5  C   UNL d   1     -41.363  14.156  20.255  0.00  0.00     0.041 A 
ENDROOT
BRANCH   4   6
ATOM      6  C   UNL d   1     -42.316  13.500  21.157  0.00  0.00     0.019 A 
ATOM      7  C   UNL d   1     -42.357  12.694  21.293  0.00  0.00     0.003 A 
ATOM      8  C   UNL d   1     -43.086  12.344  21.467  0.00  0.00     0.020 A 
ATOM      9  C   UNL d   1     -43.770  12.807  21.503  0.00  0.00     0.093 A 
ATOM     10  C   UNL d   1     -43.720  13.618  21.364  0.00  0.00     0.020 A 
ATOM     11  C   UNL d   1     -43.001  13.966  21.192  0.00  0.00     0.003 A 
BRANCH   9  12
ATOM     12  N   UNL d   1     -44.492  12.451  21.677  0.00  0.00    -0.162 NA
BRANCH  12  13
ATOM     13  S   UNL d   1     -44.934  12.690  22.321  0.00  0.00     0.266 S 
ATOM     14  O   UNL d   1     -44.574  12.026  22.659  0.00  0.00    -0.203 OA
ATOM     15  O   UNL d   1     -45.225  12.658  23.094  0.00  0.00    -0.203 OA
ATOM     16  C   UNL d   1     -45.303  13.354  22.009  0.00  0.00     0.165 C 
ENDBRANCH  12  13
ENDBRANCH   9  12
ENDBRANCH   4   6
BRANCH   1  17
ATOM     17  S   UNL d   1     -39.616  14.522  21.423  0.00  0.00     0.287 S 
ATOM     18  O   UNL d   1     -40.214  15.088  21.368  0.00  0.00    -0.198 OA
ATOM     19  O   UNL d   1     -39.115  15.080  21.762  0.00  0.00    -0.198 OA
BRANCH  17  20
ATOM     20  C   UNL d   1     -39.069  13.918  21.448  0.00  0.00     0.117 C 
BRANCH  20  21
ATOM     21  C   UNL d   1     -38.525  13.883  22.070  0.00  0.00     0.014 C 
ATOM     22  C   UNL d   1     -37.968  13.272  22.093  0.00  0.00     0.001 C 
ENDBRANCH  20  21
ENDBRANCH  17  20
ENDBRANCH   1  17
BRANCH   3  23
ATOM     23  C   UNL d   1     -40.159  14.802  19.734  0.00  0.00     0.046 A 
ATOM     24  C   UNL d   1     -39.892  14.329  19.099  0.00  0.00     0.142 A 
ATOM     25  F   UNL d   1     -40.076  13.526  19.079  0.00  0.00    -0.204 F 
ATOM     26  C   UNL d   1     -39.443  14.680  18.495  0.00  0.00     0.030 A 
ATOM     27  C   UNL d   1     -39.276  15.443  18.527  0.00  0.00     0.002 A 
ATOM     28  C   UNL d   1     -39.543  15.916  19.162  0.00  0.00     0.000 A 
ATOM     29  C   UNL d   1     -39.987  15.630  19.785  0.00  0.00     0.004 A 
ENDBRANCH   3  23
TORSDOF 7
ENDMDL
