MODEL 1
REMARK VINA RESULT:      13.7      0.000      0.000
REMARK  3 active torsions:
REMARK  status: ('A' for Active; 'I' for Inactive)
REMARK    1  A    between atoms: C_11  and  C_2 
REMARK    2  A    between atoms: C_12  and  C_3 
REMARK    3  A    between atoms: N_7  and  C_6 
ROOT
ATOM      1  C   UNL d   1     -41.558-121.459 -51.993  0.00  0.00     0.078 A 
ATOM      2  C   UNL d   1     -41.799-121.967 -53.307  0.00  0.00     0.029 A 
ATOM      3  C   UNL d   1     -41.608-121.225 -53.624  0.00  0.00     0.102 A 
ATOM      4  C   UNL d   1     -41.368-120.718 -52.314  0.00  0.00     0.187 A 
ATOM      5  O   UNL d   1     -41.395-120.611 -53.125  0.00  0.00    -0.289 OA
ATOM      6  C   UNL d   1     -41.532-121.572 -51.171  0.00  0.00     0.153 A 
ATOM      7  N   UNL d   1     -41.154-120.099 -51.813  0.00  0.00    -0.200 NA
ATOM      8  N   UNL d   1     -41.317-120.948 -50.681  0.00  0.00    -0.206 NA
ATOM      9  C   UNL d   1     -41.126-120.205 -50.998  0.00  0.00     0.202 A 
ENDROOT
BRANCH   2  10
ATOM     10  C   UNL d   1     -42.013-122.586 -53.808  0.00  0.00     0.002 A 
ATOM     11  C   UNL d   1     -41.492-123.198 -53.945  0.00  0.00     0.000 A 
ATOM     12  C   UNL d   1     -41.711-123.817 -54.448  0.00  0.00     0.000 A 
ATOM     13  C   UNL d   1     -42.456-123.817 -54.812  0.00  0.00     0.000 A 
ATOM     14  C   UNL d   1     -42.979-123.194 -54.670  0.00  0.00     0.000 A 
ATOM     15  C   UNL d   1     -42.762-122.574 -54.167  0.00  0.00     0.000 A 
ENDBRANCH   2  10
BRANCH   3  16
ATOM     16  C   UNL d   1     -41.633-121.109 -54.438  0.00  0.00     0.023 A 
ATOM     17  C   UNL d   1     -42.172-120.578 -54.750  0.00  0.00     0.002 A 
ATOM     18  C   UNL d   1     -42.198-120.462 -55.563  0.00  0.00     0.000 A 
ATOM     19  C   UNL d   1     -41.682-120.880 -56.053  0.00  0.00     0.000 A 
ATOM     20  C   UNL d   1     -41.143-121.412 -55.727  0.00  0.00     0.000 A 
ATOM     21  C   UNL d   1     -41.125-121.520 -54.920  0.00  0.00     0.002 A 
ENDBRANCH   3  16
BRANCH   6  22
ATOM     22  N   UNL d   1     -41.721-122.309 -50.852  0.00  0.00    -0.285 N 
ATOM     23  C   UNL d   1     -41.129-122.834 -50.635  0.00  0.00     0.108 A 
ATOM     24  C   UNL d   1     -41.320-123.575 -50.315  0.00  0.00     0.142 A 
ATOM     25  O   UNL d   1     -42.103-123.790 -50.212  0.00  0.00    -0.300 OA
ATOM     26  C   UNL d   1     -42.707-123.254 -50.433  0.00  0.00     0.142 A 
ATOM     27  C   UNL d   1     -42.518-122.520 -50.750  0.00  0.00     0.108 A 
ENDBRANCH   6  22
TORSDOF 3
ENDMDL
