MODEL 1
REMARK VINA RESULT:      50.4      0.000      0.000
REMARK  3 active torsions:
REMARK  status: ('A' for Active; 'I' for Inactive)
REMARK    1  A    between atoms: C_2  and  N_1 
REMARK    2  A    between atoms: N_8  and  C_3 
REMARK       I    between atoms: C_9  and  N_8 
REMARK    3  A    between atoms: C_10  and  C_9 
ROOT
ATOM      1  N   UNL d   1     -50.217  25.622  33.565  0.00  0.00    -0.189 N 
ATOM      2  C   UNL d   1     -50.484  24.841  33.619  0.00  0.00     0.171 A 
ATOM      3  N   UNL d   1     -49.397  25.615  33.556  0.00  0.00    -0.162 NA
ATOM      4  C   UNL d   1     -49.811  24.365  33.643  0.00  0.00     0.060 A 
ATOM      5  C   UNL d   1     -49.150  24.828  33.605  0.00  0.00     0.105 A 
ATOM      6  C   UNL d   1     -48.365  24.557  33.614  0.00  0.00     0.023 C 
ENDROOT
BRANCH   1   7
ATOM      7  C   UNL d   1     -50.675  26.315  33.524  0.00  0.00     0.197 A 
ATOM      8  N   UNL d   1     -51.492  26.298  33.414  0.00  0.00    -0.221 NA
ATOM      9  C   UNL d   1     -51.758  27.089  33.402  0.00  0.00     0.090 A 
ATOM     10  C   UNL d   1     -52.490  27.425  33.314  0.00  0.00     0.020 A 
ATOM     11  C   UNL d   1     -51.091  27.565  33.506  0.00  0.00     0.050 A 
ATOM     12  C   UNL d   1     -52.584  28.245  33.326  0.00  0.00     0.002 A 
ATOM     13  C   UNL d   1     -51.926  28.710  33.428  0.00  0.00     0.001 A 
ATOM     14  C   UNL d   1     -51.177  28.379  33.518  0.00  0.00     0.008 A 
ATOM     15  S   UNL d   1     -50.433  27.080  33.579  0.00  0.00    -0.047 SA
ENDBRANCH   1   7
BRANCH   2  16
ATOM     16  N   UNL d   1     -51.271  24.585  33.645  0.00  0.00    -0.189 NA
ATOM     17  C   UNL d   1     -51.427  23.788  33.713  0.00  0.00     0.281 C 
ATOM     18  O   UNL d   1     -50.807  23.248  33.755  0.00  0.00    -0.265 OA
BRANCH  17  19
ATOM     19  C   UNL d   1     -52.212  23.528  33.739  0.00  0.00     0.058 A 
ATOM     20  C   UNL d   1     -53.006  23.269  33.762  0.00  0.00     0.005 A 
ATOM     21  C   UNL d   1     -52.798  23.938  33.325  0.00  0.00     0.005 A 
ENDBRANCH  17  19
ENDBRANCH   2  16
TORSDOF 3
ENDMDL
MODEL 2
REMARK VINA RESULT:      51.7      1.606      4.141
REMARK  3 active torsions:
REMARK  status: ('A' for Active; 'I' for Inactive)
REMARK    1  A    between atoms: C_2  and  N_1 
REMARK    2  A    between atoms: N_8  and  C_3 
REMARK       I    between atoms: C_9  and  N_8 
REMARK    3  A    between atoms: C_10  and  C_9 
ROOT
ATOM      1  N   UNL d   1     -52.051  25.256  33.463  0.00  0.00    -0.189 N 
ATOM      2  C   UNL d   1     -52.131  26.075  33.374  0.00  0.00     0.171 A 
ATOM      3  N   UNL d   1     -52.799  24.920  33.452  0.00  0.00    -0.162 NA
ATOM      4  C   UNL d   1     -52.939  26.225  33.309  0.00  0.00     0.060 A 
ATOM      5  C   UNL d   1     -53.349  25.530  33.356  0.00  0.00     0.105 A 
ATOM      6  C   UNL d   1     -54.175  25.448  33.314  0.00  0.00     0.023 C 
ENDROOT
BRANCH   1   7
ATOM      7  C   UNL d   1     -51.349  24.819  33.551  0.00  0.00     0.197 A 
ATOM      8  N   UNL d   1     -50.614  25.116  33.325  0.00  0.00    -0.221 NA
ATOM      9  C   UNL d   1     -50.045  24.528  33.495  0.00  0.00     0.090 A 
ATOM     10  C   UNL d   1     -49.241  24.493  33.400  0.00  0.00     0.020 A 
ATOM     11  C   UNL d   1     -50.456  23.889  33.820  0.00  0.00     0.050 A 
ATOM     12  C   UNL d   1     -48.818  23.821  33.625  0.00  0.00     0.002 A 
ATOM     13  C   UNL d   1     -49.224  23.195  33.944  0.00  0.00     0.001 A 
ATOM     14  C   UNL d   1     -50.041  23.220  34.045  0.00  0.00     0.008 A 
ATOM     15  S   UNL d   1     -51.253  24.078  33.849  0.00  0.00    -0.047 SA
ENDBRANCH   1   7
BRANCH   2  16
ATOM     16  N   UNL d   1     -51.521  26.634  33.353  0.00  0.00    -0.189 NA
ATOM     17  C   UNL d   1     -51.709  27.426  33.362  0.00  0.00     0.281 C 
ATOM     18  O   UNL d   1     -52.497  27.663  33.392  0.00  0.00    -0.265 OA
BRANCH  17  19
ATOM     19  C   UNL d   1     -51.103  27.989  33.342  0.00  0.00     0.058 A 
ATOM     20  C   UNL d   1     -50.488  28.554  33.322  0.00  0.00     0.005 A 
ATOM     21  C   UNL d   1     -50.320  27.758  33.463  0.00  0.00     0.005 A 
ENDBRANCH  17  19
ENDBRANCH   2  16
TORSDOF 3
ENDMDL
