MODEL 1
REMARK VINA RESULT:     119.3      0.000      0.000
REMARK  4 active torsions:
REMARK  status: ('A' for Active; 'I' for Inactive)
REMARK    1  A    between atoms: C_2  and  S_1 
REMARK    2  A    between atoms: N_3  and  S_1 
REMARK    3  A    between atoms: C_7  and  C_14 
REMARK       I    between atoms: N_9  and  C_7 
REMARK    4  A    between atoms: C_13  and  N_10 
ROOT
ATOM      1  N   UNL d   1      58.799  48.780  50.592  0.00  0.00    -0.229 N 
ATOM      2  C   UNL d   1      60.367  48.254  50.430  0.00  0.00     0.060 A 
ATOM      3  C   UNL d   1      59.330  49.212  50.130  0.00  0.00     0.092 A 
ATOM      4  C   UNL d   1      59.053  48.092  50.968  0.00  0.00     0.092 A 
ATOM      5  C   UNL d   1      59.828  47.832  50.888  0.00  0.00     0.025 A 
ATOM      6  C   UNL d   1      60.123  48.946  50.048  0.00  0.00     0.025 A 
ENDROOT
BRANCH   2   7
ATOM      7  C   UNL d   1      61.144  47.993  50.350  0.00  0.00     0.265 C 
ATOM      8  N   UNL d   1      61.306  47.224  50.155  0.00  0.00    -0.269 N 
ATOM      9  C   UNL d   1      60.684  46.685  50.032  0.00  0.00     0.102 A 
ATOM     10  C   UNL d   1      62.082  46.964  50.075  0.00  0.00     0.102 A 
ATOM     11  C   UNL d   1      60.839  45.900  49.833  0.00  0.00     0.100 A 
ATOM     12  N   UNL d   1      61.627  45.644  49.754  0.00  0.00    -0.301 N 
ATOM     13  C   UNL d   1      62.249  46.184  49.877  0.00  0.00     0.100 A 
ATOM     14  O   UNL d   1      61.765  48.532  50.473  0.00  0.00    -0.267 OA
BRANCH  12  15
ATOM     15  C   UNL d   1      62.186  45.046  49.594  0.00  0.00     0.064 A 
ATOM     16  C   UNL d   1      62.891  44.818  49.230  0.00  0.00     0.020 A 
ATOM     17  C   UNL d   1      63.158  44.034  49.308  0.00  0.00     0.031 A 
ATOM     18  C   UNL d   1      62.707  43.493  49.753  0.00  0.00     0.140 A 
ATOM     19  C   UNL d   1      62.004  43.726  50.115  0.00  0.00     0.031 A 
ATOM     20  F   UNL d   1      62.970  42.697  49.837  0.00  0.00    -0.204 F 
ATOM     21  C   UNL d   1      61.743  44.512  50.032  0.00  0.00     0.020 A 
ENDBRANCH  12  15
ENDBRANCH   2   7
BRANCH   1  22
ATOM     22  S   UNL d   1      58.022  49.040  50.672  0.00  0.00     0.275 S 
ATOM     23  O   UNL d   1      57.767  48.387  50.225  0.00  0.00    -0.199 OA
ATOM     24  O   UNL d   1      58.292  49.693  51.121  0.00  0.00    -0.199 OA
BRANCH  22  25
ATOM     25  C   UNL d   1      57.237  49.304  50.753  0.00  0.00     0.148 A 
ATOM     26  C   UNL d   1      56.775  49.460  51.413  0.00  0.00     0.139 A 
ATOM     27  O   UNL d   1      56.036  49.708  51.156  0.00  0.00    -0.210 OA
ATOM     28  C   UNL d   1      57.020  49.378  52.201  0.00  0.00     0.030 C 
ATOM     29  N   UNL d   1      56.034  49.708  50.329  0.00  0.00    -0.126 NA
ATOM     30  C   UNL d   1      56.790  49.454  50.079  0.00  0.00     0.122 A 
ATOM     31  C   UNL d   1      57.039  49.369  49.293  0.00  0.00     0.024 C 
ENDBRANCH  22  25
ENDBRANCH   1  22
TORSDOF 4
ENDMDL
