MODEL 1
REMARK VINA RESULT:      24.1      0.000      0.000
REMARK  5 active torsions:
REMARK  status: ('A' for Active; 'I' for Inactive)
REMARK    1  A    between atoms: C_5  and  N_1 
REMARK    2  A    between atoms: C_7  and  C_5 
REMARK    3  A    between atoms: O_14  and  C_10 
REMARK    4  A    between atoms: C_18  and  O_14 
REMARK    5  A    between atoms: C_19  and  C_18 
ROOT
ATOM      1  N   UNL d   1      45.699 -16.292  44.242  0.00  0.00    -0.251 N 
ATOM      2  C   UNL d   1      45.035 -16.581  44.644  0.00  0.00     0.378 A 
ATOM      3  C   UNL d   1      45.699 -15.466  44.301  0.00  0.00     0.092 A 
ATOM      4  O   UNL d   1      44.624 -15.931  44.953  0.00  0.00    -0.258 OA
ATOM      5  C   UNL d   1      45.035 -15.243  44.741  0.00  0.00     0.121 A 
ATOM      6  O   UNL d   1      44.818 -17.370  44.725  0.00  0.00    -0.237 OA
ATOM      7  C   UNL d   1      46.219 -14.900  44.011  0.00  0.00     0.020 A 
ATOM      8  C   UNL d   1      44.897 -14.439  44.887  0.00  0.00     0.026 A 
ATOM      9  C   UNL d   1      46.079 -14.103  44.158  0.00  0.00     0.002 A 
ATOM     10  C   UNL d   1      45.417 -13.873  44.597  0.00  0.00     0.002 A 
ATOM     11  C   UNL d   1      46.600 -13.533  43.868  0.00  0.00     0.000 C 
ENDROOT
BRANCH   1  12
ATOM     12  C   UNL d   1      46.282 -16.717  43.840  0.00  0.00     0.087 C 
BRANCH  12  13
ATOM     13  C   UNL d   1      46.400 -17.521  44.004  0.00  0.00     0.041 A 
ATOM     14  C   UNL d   1      46.525 -18.048  43.398  0.00  0.00     0.102 A 
ATOM     15  C   UNL d   1      46.641 -18.842  43.561  0.00  0.00     0.025 A 
ATOM     16  C   UNL d   1      46.632 -19.108  44.340  0.00  0.00     0.002 A 
ATOM     17  C   UNL d   1      46.506 -18.572  44.955  0.00  0.00     0.000 A 
ATOM     18  C   UNL d   1      46.389 -17.773  44.784  0.00  0.00     0.004 A 
BRANCH  14  19
ATOM     19  O   UNL d   1      46.534 -17.785  42.612  0.00  0.00    -0.305 OA
BRANCH  19  20
ATOM     20  C   UNL d   1      46.428 -18.322  41.994  0.00  0.00     0.123 C 
BRANCH  20  21
ATOM     21  C   UNL d   1      46.445 -18.063  41.217  0.00  0.00     0.027 C 
ATOM     22  C   UNL d   1      46.574 -18.602  40.603  0.00  0.00     0.002 C 
ENDBRANCH  20  21
ENDBRANCH  19  20
ENDBRANCH  14  19
ENDBRANCH  12  13
ENDBRANCH   1  12
TORSDOF 5
ENDMDL
MODEL 2
REMARK VINA RESULT:      26.3      1.013      3.918
REMARK  5 active torsions:
REMARK  status: ('A' for Active; 'I' for Inactive)
REMARK    1  A    between atoms: C_5  and  N_1 
REMARK    2  A    between atoms: C_7  and  C_5 
REMARK    3  A    between atoms: O_14  and  C_10 
REMARK    4  A    between atoms: C_18  and  O_14 
REMARK    5  A    between atoms: C_19  and  C_18 
ROOT
ATOM      1  N   UNL d   1      46.401 -17.686  43.504  0.00  0.00    -0.251 N 
ATOM      2  C   UNL d   1      46.540 -18.151  44.176  0.00  0.00     0.378 A 
ATOM      3  C   UNL d   1      46.414 -18.180  42.840  0.00  0.00     0.092 A 
ATOM      4  O   UNL d   1      46.639 -18.934  43.926  0.00  0.00    -0.258 OA
ATOM      5  C   UNL d   1      46.561 -18.951  43.101  0.00  0.00     0.121 A 
ATOM      6  O   UNL d   1      46.573 -17.886  44.955  0.00  0.00    -0.237 OA
ATOM      7  C   UNL d   1      46.311 -18.021  42.041  0.00  0.00     0.020 A 
ATOM      8  C   UNL d   1      46.604 -19.565  42.546  0.00  0.00     0.026 A 
ATOM      9  C   UNL d   1      46.355 -18.632  41.493  0.00  0.00     0.002 A 
ATOM     10  C   UNL d   1      46.501 -19.406  41.746  0.00  0.00     0.002 A 
ATOM     11  C   UNL d   1      46.251 -18.474  40.690  0.00  0.00     0.000 C 
ENDROOT
BRANCH   1  12
ATOM     12  C   UNL d   1      46.268 -16.872  43.461  0.00  0.00     0.087 C 
BRANCH  12  13
ATOM     13  C   UNL d   1      45.715 -16.512  43.962  0.00  0.00     0.041 A 
ATOM     14  C   UNL d   1      45.730 -15.707  44.075  0.00  0.00     0.102 A 
ATOM     15  C   UNL d   1      45.182 -15.352  44.570  0.00  0.00     0.025 A 
ATOM     16  C   UNL d   1      44.617 -15.810  44.955  0.00  0.00     0.002 A 
ATOM     17  C   UNL d   1      44.603 -16.627  44.839  0.00  0.00     0.000 A 
ATOM     18  C   UNL d   1      45.157 -16.979  44.339  0.00  0.00     0.004 A 
BRANCH  14  19
ATOM     19  O   UNL d   1      46.297 -15.242  43.690  0.00  0.00    -0.305 OA
BRANCH  19  20
ATOM     20  C   UNL d   1      46.382 -14.445  43.887  0.00  0.00     0.123 C 
BRANCH  20  21
ATOM     21  C   UNL d   1      46.436 -13.879  43.297  0.00  0.00     0.027 C 
ATOM     22  C   UNL d   1      45.895 -13.254  43.270  0.00  0.00     0.002 C 
ENDBRANCH  20  21
ENDBRANCH  19  20
ENDBRANCH  14  19
ENDBRANCH  12  13
ENDBRANCH   1  12
TORSDOF 5
ENDMDL
