MODEL 1
REMARK VINA RESULT:      -4.8      0.000      0.000
REMARK  1 active torsions:
REMARK  status: ('A' for Active; 'I' for Inactive)
REMARK    1  A    between atoms: C_7  and  C_1 
ROOT
ATOM      1  C   UNL d   1      57.876  -0.706  30.516  0.00  0.00     0.122 A 
ATOM      2  C   UNL d   1      57.208  -0.034  31.598  0.00  0.00     0.057 A 
ATOM      3  C   UNL d   1      56.821  -0.736  31.796  0.00  0.00     0.085 A 
ATOM      4  C   UNL d   1      57.732  -0.018  30.962  0.00  0.00     0.204 A 
ATOM      5  N   UNL d   1      56.969  -1.421  31.344  0.00  0.00    -0.244 NA
ATOM      6  C   UNL d   1      56.296  -0.760  32.429  0.00  0.00     0.028 A 
ATOM      7  C   UNL d   1      57.489  -1.408  30.713  0.00  0.00     0.108 A 
ATOM      8  C   UNL d   1      57.071   0.647  32.034  0.00  0.00     0.006 A 
ATOM      9  C   UNL d   1      56.163  -0.080  32.859  0.00  0.00     0.059 A 
ATOM     10  C   UNL d   1      56.548   0.618  32.663  0.00  0.00     0.012 A 
ATOM     11  O   UNL d   1      58.117   0.681  30.766  0.00  0.00    -0.286 OA
ATOM     12 CL   UNL d   1      55.633  -0.093  33.503  0.00  0.00    -0.082 Cl
ATOM     13  C   UNL d   1      55.903  -1.473  32.629  0.00  0.00     0.002 C 
ENDROOT
BRANCH   1  14
ATOM     14  C   UNL d   1      58.408  -0.678  29.875  0.00  0.00     0.216 C 
ATOM     15  O   UNL d   1      59.221  -0.779  29.995  0.00  0.00    -0.644 OA
ATOM     16  O   UNL d   1      58.118  -0.546  29.107  0.00  0.00    -0.644 OA
ENDBRANCH   1  14
TORSDOF 1
ENDMDL
MODEL 2
REMARK VINA RESULT:      -4.2      2.273      3.482
REMARK  1 active torsions:
REMARK  status: ('A' for Active; 'I' for Inactive)
REMARK    1  A    between atoms: C_7  and  C_1 
ROOT
ATOM      1  C   UNL d   1      55.940  -0.029  33.025  0.00  0.00     0.122 A 
ATOM      2  C   UNL d   1      56.658  -0.753  32.010  0.00  0.00     0.057 A 
ATOM      3  C   UNL d   1      56.960  -0.042  31.716  0.00  0.00     0.085 A 
ATOM      4  C   UNL d   1      56.151  -0.747  32.660  0.00  0.00     0.204 A 
ATOM      5  N   UNL d   1      56.743   0.674  32.087  0.00  0.00    -0.244 NA
ATOM      6  C   UNL d   1      57.466  -0.039  31.068  0.00  0.00     0.028 A 
ATOM      7  C   UNL d   1      56.241   0.682  32.732  0.00  0.00     0.108 A 
ATOM      8  C   UNL d   1      56.862  -1.463  31.655  0.00  0.00     0.006 A 
ATOM      9  C   UNL d   1      57.666  -0.748  30.719  0.00  0.00     0.059 A 
ATOM     10  C   UNL d   1      57.367  -1.455  31.010  0.00  0.00     0.012 A 
ATOM     11  O   UNL d   1      55.851  -1.454  32.952  0.00  0.00    -0.286 OA
ATOM     12 CL   UNL d   1      58.179  -0.757  30.060  0.00  0.00    -0.082 Cl
ATOM     13  C   UNL d   1      57.771   0.682  30.770  0.00  0.00     0.002 C 
ENDROOT
BRANCH   1  14
ATOM     14  C   UNL d   1      55.427  -0.036  33.681  0.00  0.00     0.216 C 
ATOM     15  O   UNL d   1      54.605  -0.043  33.577  0.00  0.00    -0.644 OA
ATOM     16  O   UNL d   1      55.744  -0.034  34.450  0.00  0.00    -0.644 OA
ENDBRANCH   1  14
TORSDOF 1
ENDMDL
MODEL 3
REMARK VINA RESULT:      -4.2      2.094      3.047
REMARK  1 active torsions:
REMARK  status: ('A' for Active; 'I' for Inactive)
REMARK    1  A    between atoms: C_7  and  C_1 
ROOT
ATOM      1  C   UNL d   1      56.224  -0.653  32.727  0.00  0.00     0.122 A 
ATOM      2  C   UNL d   1      57.172   0.019  31.878  0.00  0.00     0.057 A 
ATOM      3  C   UNL d   1      57.210  -0.648  31.392  0.00  0.00     0.085 A 
ATOM      4  C   UNL d   1      56.682   0.017  32.542  0.00  0.00     0.204 A 
ATOM      5  N   UNL d   1      56.748  -1.316  31.584  0.00  0.00    -0.244 NA
ATOM      6  C   UNL d   1      57.696  -0.654  30.729  0.00  0.00     0.028 A 
ATOM      7  C   UNL d   1      56.262  -1.320  32.241  0.00  0.00     0.108 A 
ATOM      8  C   UNL d   1      57.620   0.682  31.701  0.00  0.00     0.006 A 
ATOM      9  C   UNL d   1      58.140   0.008  30.557  0.00  0.00     0.059 A 
ATOM     10  C   UNL d   1      58.102   0.671  31.040  0.00  0.00     0.012 A 
ATOM     11  O   UNL d   1      56.644   0.681  33.025  0.00  0.00    -0.286 OA
ATOM     12 CL   UNL d   1      58.636   0.013  29.886  0.00  0.00    -0.082 Cl
ATOM     13  C   UNL d   1      57.734  -1.330  30.236  0.00  0.00     0.002 C 
ENDROOT
BRANCH   1  14
ATOM     14  C   UNL d   1      55.733  -0.644  33.400  0.00  0.00     0.216 C 
ATOM     15  O   UNL d   1      56.031  -0.850  34.145  0.00  0.00    -0.644 OA
ATOM     16  O   UNL d   1      54.935  -0.424  33.322  0.00  0.00    -0.644 OA
ENDBRANCH   1  14
TORSDOF 1
ENDMDL
MODEL 4
REMARK VINA RESULT:      -3.7      2.096      3.382
REMARK  1 active torsions:
REMARK  status: ('A' for Active; 'I' for Inactive)
REMARK    1  A    between atoms: C_7  and  C_1 
ROOT
ATOM      1  C   UNL d   1      56.901  -0.011  32.027  0.00  0.00     0.122 A 
ATOM      2  C   UNL d   1      57.523  -0.717  30.938  0.00  0.00     0.057 A 
ATOM      3  C   UNL d   1      57.910  -0.024  30.710  0.00  0.00     0.085 A 
ATOM      4  C   UNL d   1      57.021  -0.711  31.592  0.00  0.00     0.204 A 
ATOM      5  N   UNL d   1      57.785   0.674  31.150  0.00  0.00    -0.244 NA
ATOM      6  C   UNL d   1      58.412  -0.021  30.058  0.00  0.00     0.028 A 
ATOM      7  C   UNL d   1      57.288   0.682  31.799  0.00  0.00     0.108 A 
ATOM      8  C   UNL d   1      57.636  -1.409  30.514  0.00  0.00     0.006 A 
ATOM      9  C   UNL d   1      58.522  -0.712  29.640  0.00  0.00     0.059 A 
ATOM     10  C   UNL d   1      58.137  -1.401  29.866  0.00  0.00     0.012 A 
ATOM     11  O   UNL d   1      56.636  -1.401  31.819  0.00  0.00    -0.286 OA
ATOM     12 CL   UNL d   1      59.029  -0.721  28.977  0.00  0.00    -0.082 Cl
ATOM     13  C   UNL d   1      58.805   0.682  29.827  0.00  0.00     0.002 C 
ENDROOT
BRANCH   1  14
ATOM     14  C   UNL d   1      56.392  -0.018  32.686  0.00  0.00     0.216 C 
ATOM     15  O   UNL d   1      55.573   0.060  32.590  0.00  0.00    -0.644 OA
ATOM     16  O   UNL d   1      56.710  -0.103  33.449  0.00  0.00    -0.644 OA
ENDBRANCH   1  14
TORSDOF 1
ENDMDL
MODEL 5
REMARK VINA RESULT:      -3.4      1.647      2.305
REMARK  1 active torsions:
REMARK  status: ('A' for Active; 'I' for Inactive)
REMARK    1  A    between atoms: C_7  and  C_1 
ROOT
ATOM      1  C   UNL d   1      56.593   0.104  32.111  0.00  0.00     0.122 A 
ATOM      2  C   UNL d   1      56.559   0.395  33.519  0.00  0.00     0.057 A 
ATOM      3  C   UNL d   1      55.738   0.298  33.520  0.00  0.00     0.085 A 
ATOM      4  C   UNL d   1      56.984   0.299  32.819  0.00  0.00     0.204 A 
ATOM      5  N   UNL d   1      55.354   0.102  32.806  0.00  0.00    -0.244 NA
ATOM      6  C   UNL d   1      55.307   0.392  34.214  0.00  0.00     0.028 A 
ATOM      7  C   UNL d   1      55.773   0.006  32.111  0.00  0.00     0.108 A 
ATOM      8  C   UNL d   1      56.950   0.587  34.213  0.00  0.00     0.006 A 
ATOM      9  C   UNL d   1      55.701   0.583  34.902  0.00  0.00     0.059 A 
ATOM     10  C   UNL d   1      56.516   0.680  34.902  0.00  0.00     0.012 A 
ATOM     11  O   UNL d   1      57.800   0.396  32.819  0.00  0.00    -0.286 OA
ATOM     12 CL   UNL d   1      55.273   0.682  35.612  0.00  0.00    -0.082 Cl
ATOM     13  C   UNL d   1      54.475   0.294  34.214  0.00  0.00     0.002 C 
ENDROOT
BRANCH   1  14
ATOM     14  C   UNL d   1      57.033   0.009  31.410  0.00  0.00     0.216 C 
ATOM     15  O   UNL d   1      57.376  -0.721  31.221  0.00  0.00    -0.644 OA
ATOM     16  O   UNL d   1      57.128   0.654  30.895  0.00  0.00    -0.644 OA
ENDBRANCH   1  14
TORSDOF 1
ENDMDL
MODEL 6
REMARK VINA RESULT:      -3.1      9.644     10.038
REMARK  1 active torsions:
REMARK  status: ('A' for Active; 'I' for Inactive)
REMARK    1  A    between atoms: C_7  and  C_1 
ROOT
ATOM      1  C   UNL d   1      59.634  -9.025  34.955  0.00  0.00     0.122 A 
ATOM      2  C   UNL d   1      60.394  -9.232  33.751  0.00  0.00     0.057 A 
ATOM      3  C   UNL d   1      59.700  -9.417  33.344  0.00  0.00     0.085 A 
ATOM      4  C   UNL d   1      60.362  -9.037  34.551  0.00  0.00     0.204 A 
ATOM      5  N   UNL d   1      58.974  -9.403  33.754  0.00  0.00    -0.244 NA
ATOM      6  C   UNL d   1      59.724  -9.612  32.545  0.00  0.00     0.028 A 
ATOM      7  C   UNL d   1      58.939  -9.210  34.548  0.00  0.00     0.108 A 
ATOM      8  C   UNL d   1      61.114  -9.242  33.360  0.00  0.00     0.006 A 
ATOM      9  C   UNL d   1      60.442  -9.621  32.160  0.00  0.00     0.059 A 
ATOM     10  C   UNL d   1      61.133  -9.437  32.565  0.00  0.00     0.012 A 
ATOM     11  O   UNL d   1      61.053  -8.852  34.956  0.00  0.00    -0.286 OA
ATOM     12 CL   UNL d   1      60.478  -9.818  31.350  0.00  0.00    -0.082 Cl
ATOM     13  C   UNL d   1      59.019  -9.800  32.132  0.00  0.00     0.002 C 
ENDROOT
BRANCH   1  14
ATOM     14  C   UNL d   1      59.613  -8.826  35.763  0.00  0.00     0.216 C 
ATOM     15  O   UNL d   1      59.322  -8.092  36.012  0.00  0.00    -0.644 OA
ATOM     16  O   UNL d   1      59.889  -9.372  36.326  0.00  0.00    -0.644 OA
ENDBRANCH   1  14
TORSDOF 1
ENDMDL
MODEL 7
REMARK VINA RESULT:      -3.0      1.105      1.617
REMARK  1 active torsions:
REMARK  status: ('A' for Active; 'I' for Inactive)
REMARK    1  A    between atoms: C_7  and  C_1 
ROOT
ATOM      1  C   UNL d   1      58.500   0.329  30.561  0.00  0.00     0.122 A 
ATOM      2  C   UNL d   1      57.385  -0.032  31.397  0.00  0.00     0.057 A 
ATOM      3  C   UNL d   1      57.757   0.320  32.045  0.00  0.00     0.085 A 
ATOM      4  C   UNL d   1      57.754  -0.028  30.659  0.00  0.00     0.204 A 
ATOM      5  N   UNL d   1      58.504   0.676  31.940  0.00  0.00    -0.244 NA
ATOM      6  C   UNL d   1      57.395   0.320  32.784  0.00  0.00     0.028 A 
ATOM      7  C   UNL d   1      58.872   0.681  31.210  0.00  0.00     0.108 A 
ATOM      8  C   UNL d   1      56.651  -0.385  31.486  0.00  0.00     0.006 A 
ATOM      9  C   UNL d   1      56.665  -0.032  32.868  0.00  0.00     0.059 A 
ATOM     10  C   UNL d   1      56.295  -0.382  32.224  0.00  0.00     0.012 A 
ATOM     11  O   UNL d   1      57.384  -0.378  30.014  0.00  0.00    -0.286 OA
ATOM     12 CL   UNL d   1      56.289  -0.038  33.613  0.00  0.00    -0.082 Cl
ATOM     13  C   UNL d   1      57.773   0.677  33.441  0.00  0.00     0.002 C 
ENDROOT
BRANCH   1  14
ATOM     14  C   UNL d   1      58.863   0.327  29.812  0.00  0.00     0.216 C 
ATOM     15  O   UNL d   1      58.457   0.600  29.144  0.00  0.00    -0.644 OA
ATOM     16  O   UNL d   1      59.642   0.047  29.734  0.00  0.00    -0.644 OA
ENDBRANCH   1  14
TORSDOF 1
ENDMDL
MODEL 8
REMARK VINA RESULT:      -2.5      2.742      3.992
REMARK  1 active torsions:
REMARK  status: ('A' for Active; 'I' for Inactive)
REMARK    1  A    between atoms: C_7  and  C_1 
ROOT
ATOM      1  C   UNL d   1      58.360  -0.407  29.933  0.00  0.00     0.122 A 
ATOM      2  C   UNL d   1      59.477  -1.051  29.295  0.00  0.00     0.057 A 
ATOM      3  C   UNL d   1      59.097  -1.781  29.367  0.00  0.00     0.085 A 
ATOM      4  C   UNL d   1      59.111  -0.368  29.577  0.00  0.00     0.204 A 
ATOM      5  N   UNL d   1      58.345  -1.813  29.725  0.00  0.00    -0.244 NA
ATOM      6  C   UNL d   1      59.456  -2.467  29.088  0.00  0.00     0.028 A 
ATOM      7  C   UNL d   1      57.980  -1.137  30.005  0.00  0.00     0.108 A 
ATOM      8  C   UNL d   1      60.217  -1.005  28.945  0.00  0.00     0.006 A 
ATOM      9  C   UNL d   1      60.192  -2.416  28.741  0.00  0.00     0.059 A 
ATOM     10  C   UNL d   1      60.569  -1.691  28.670  0.00  0.00     0.012 A 
ATOM     11  O   UNL d   1      59.489   0.359  29.505  0.00  0.00    -0.286 OA
ATOM     12 CL   UNL d   1      60.565  -3.106  28.455  0.00  0.00    -0.082 Cl
ATOM     13  C   UNL d   1      59.071  -3.207  29.161  0.00  0.00     0.002 C 
ENDROOT
BRANCH   1  14
ATOM     14  C   UNL d   1      57.999   0.290  30.214  0.00  0.00     0.216 C 
ATOM     15  O   UNL d   1      57.425   0.680  29.763  0.00  0.00    -0.644 OA
ATOM     16  O   UNL d   1      58.220   0.596  30.955  0.00  0.00    -0.644 OA
ENDBRANCH   1  14
TORSDOF 1
ENDMDL
MODEL 9
REMARK VINA RESULT:      -1.8      9.367      9.699
REMARK  1 active torsions:
REMARK  status: ('A' for Active; 'I' for Inactive)
REMARK    1  A    between atoms: C_7  and  C_1 
ROOT
ATOM      1  C   UNL d   1      60.136  -9.212  33.896  0.00  0.00     0.122 A 
ATOM      2  C   UNL d   1      58.845  -9.365  33.280  0.00  0.00     0.057 A 
ATOM      3  C   UNL d   1      59.209  -9.515  32.554  0.00  0.00     0.085 A 
ATOM      4  C   UNL d   1      59.305  -9.215  33.947  0.00  0.00     0.204 A 
ATOM      5  N   UNL d   1      60.042  -9.511  32.510  0.00  0.00    -0.244 NA
ATOM      6  C   UNL d   1      58.756  -9.665  31.884  0.00  0.00     0.028 A 
ATOM      7  C   UNL d   1      60.500  -9.362  33.170  0.00  0.00     0.108 A 
ATOM      8  C   UNL d   1      58.027  -9.366  33.338  0.00  0.00     0.006 A 
ATOM      9  C   UNL d   1      57.943  -9.665  31.946  0.00  0.00     0.059 A 
ATOM     10  C   UNL d   1      57.582  -9.516  32.668  0.00  0.00     0.012 A 
ATOM     11  O   UNL d   1      58.943  -9.066  34.670  0.00  0.00    -0.286 OA
ATOM     12 CL   UNL d   1      57.475  -9.817  31.272  0.00  0.00    -0.082 Cl
ATOM     13  C   UNL d   1      59.126  -9.817  31.147  0.00  0.00     0.002 C 
ENDROOT
BRANCH   1  14
ATOM     14  C   UNL d   1      60.591  -9.059  34.577  0.00  0.00     0.216 C 
ATOM     15  O   UNL d   1      60.703  -8.284  34.846  0.00  0.00    -0.644 OA
ATOM     16  O   UNL d   1      60.936  -9.693  34.990  0.00  0.00    -0.644 OA
ENDBRANCH   1  14
TORSDOF 1
ENDMDL
