MODEL 1
REMARK VINA RESULT:      36.1      0.000      0.000
REMARK  1 active torsions:
REMARK  status: ('A' for Active; 'I' for Inactive)
REMARK    1  A    between atoms: N_2  and  C_1 
ROOT
ATOM      1  C   UNL d   1      58.757  49.680  50.906  0.00  0.00     0.110 A 
ATOM      2  C   UNL d   1      58.482  49.651  50.114  0.00  0.00     0.212 A 
ATOM      3  C   UNL d   1      58.213  49.705  51.530  0.00  0.00     0.056 A 
ATOM      4  C   UNL d   1      57.675  49.648  49.964  0.00  0.00     0.046 A 
ATOM      5  S   UNL d   1      57.392  49.701  51.364  0.00  0.00    -0.085 SA
ATOM      6  C   UNL d   1      57.125  49.672  50.584  0.00  0.00     0.033 A 
ATOM      7  O   UNL d   1      59.022  49.627  49.494  0.00  0.00    -0.285 OA
ATOM      8  C   UNL d   1      57.401  49.619  49.187  0.00  0.00     0.004 A 
ATOM      9  C   UNL d   1      56.319  49.668  50.429  0.00  0.00     0.007 A 
ATOM     10  C   UNL d   1      56.597  49.615  49.025  0.00  0.00     0.000 A 
ATOM     11  C   UNL d   1      56.052  49.640  49.650  0.00  0.00     0.001 A 
ENDROOT
BRANCH   1  12
ATOM     12  N   UNL d   1      59.569  49.684  51.065  0.00  0.00    -0.301 N 
ATOM     13  C   UNL d   1      59.835  49.689  51.835  0.00  0.00     0.080 A 
ATOM     14  C   UNL d   1      60.648  49.693  52.000  0.00  0.00     0.018 A 
ATOM     15  C   UNL d   1      60.914  49.697  52.775  0.00  0.00     0.002 A 
ATOM     16  C   UNL d   1      61.188  49.692  51.380  0.00  0.00     0.003 A 
ATOM     17  C   UNL d   1      61.724  49.701  52.937  0.00  0.00     0.000 A 
ATOM     18  C   UNL d   1      62.266  49.701  52.315  0.00  0.00     0.000 A 
ATOM     19  C   UNL d   1      61.996  49.696  51.533  0.00  0.00     0.000 A 
ATOM     20  C   UNL d   1      60.922  49.688  50.587  0.00  0.00     0.019 A 
ATOM     21  C   UNL d   1      60.114  49.684  50.440  0.00  0.00     0.080 A 
ENDBRANCH   1  12
TORSDOF 1
ENDMDL
MODEL 2
REMARK VINA RESULT:      39.0      0.815      1.145
REMARK  1 active torsions:
REMARK  status: ('A' for Active; 'I' for Inactive)
REMARK    1  A    between atoms: N_2  and  C_1 
ROOT
ATOM      1  C   UNL d   1      58.964  49.691  50.694  0.00  0.00     0.110 A 
ATOM      2  C   UNL d   1      58.277  49.684  51.177  0.00  0.00     0.212 A 
ATOM      3  C   UNL d   1      58.887  49.701  49.868  0.00  0.00     0.056 A 
ATOM      4  C   UNL d   1      57.535  49.686  50.827  0.00  0.00     0.046 A 
ATOM      5  S   UNL d   1      58.123  49.703  49.525  0.00  0.00    -0.085 SA
ATOM      6  C   UNL d   1      57.451  49.696  50.002  0.00  0.00     0.033 A 
ATOM      7  O   UNL d   1      58.354  49.674  51.995  0.00  0.00    -0.285 OA
ATOM      8  C   UNL d   1      56.859  49.679  51.298  0.00  0.00     0.004 A 
ATOM      9  C   UNL d   1      56.706  49.698  49.657  0.00  0.00     0.007 A 
ATOM     10  C   UNL d   1      56.111  49.681  50.960  0.00  0.00     0.000 A 
ATOM     11  C   UNL d   1      56.034  49.691  50.134  0.00  0.00     0.001 A 
ENDROOT
BRANCH   1  12
ATOM     12  N   UNL d   1      59.716  49.689  51.038  0.00  0.00    -0.301 N 
ATOM     13  C   UNL d   1      59.794  49.684  51.849  0.00  0.00     0.080 A 
ATOM     14  C   UNL d   1      60.547  49.682  52.199  0.00  0.00     0.018 A 
ATOM     15  C   UNL d   1      60.624  49.677  53.015  0.00  0.00     0.002 A 
ATOM     16  C   UNL d   1      61.216  49.684  51.722  0.00  0.00     0.003 A 
ATOM     17  C   UNL d   1      61.374  49.674  53.361  0.00  0.00     0.000 A 
ATOM     18  C   UNL d   1      62.046  49.677  52.883  0.00  0.00     0.000 A 
ATOM     19  C   UNL d   1      61.967  49.682  52.059  0.00  0.00     0.000 A 
ATOM     20  C   UNL d   1      61.143  49.690  50.889  0.00  0.00     0.019 A 
ATOM     21  C   UNL d   1      60.391  49.692  50.558  0.00  0.00     0.080 A 
ENDBRANCH   1  12
TORSDOF 1
ENDMDL
