MODEL 1
REMARK VINA RESULT:      -7.8      0.000      0.000
REMARK  6 active torsions:
REMARK  status: ('A' for Active; 'I' for Inactive)
REMARK    1  A    between atoms: N_3  and  C_1 
REMARK    2  A    between atoms: C_16  and  N_2 
REMARK       I    between atoms: C_7  and  N_3 
REMARK    3  A    between atoms: C_14  and  C_7 
REMARK    4  A    between atoms: C_10  and  S_11 
REMARK    5  A    between atoms: S_11  and  C_14 
REMARK    6  A    between atoms: O_18  and  C_15 
ROOT
ATOM      1  C   UNL d   1      53.365  32.099  53.617  0.00  0.00     0.182 A 
ATOM      2  N   UNL d   1      53.419  32.833  53.995  0.00  0.00    -0.285 N 
ATOM      3  S   UNL d   1      52.789  32.160  53.022  0.00  0.00    -0.048 SA
ATOM      4  C   UNL d   1      52.490  32.936  53.036  0.00  0.00     0.050 A 
ATOM      5  C   UNL d   1      52.879  33.350  53.636  0.00  0.00     0.072 A 
ATOM      6  C   UNL d   1      51.912  33.308  52.573  0.00  0.00     0.032 A 
ATOM      7  C   UNL d   1      52.689  34.138  53.773  0.00  0.00     0.020 A 
ATOM      8  C   UNL d   1      51.734  34.096  52.724  0.00  0.00     0.095 A 
ATOM      9  C   UNL d   1      52.123  34.511  53.323  0.00  0.00     0.026 A 
ENDROOT
BRANCH   1  10
ATOM     10  N   UNL d   1      53.806  31.423  53.799  0.00  0.00    -0.183 NA
ATOM     11  C   UNL d   1      53.279  30.790  53.693  0.00  0.00     0.288 C 
ATOM     12  O   UNL d   1      52.499  30.937  53.451  0.00  0.00    -0.265 OA
BRANCH  11  13
ATOM     13  C   UNL d   1      53.523  30.018  53.825  0.00  0.00     0.101 C 
BRANCH  13  14
ATOM     14  S   UNL d   1      53.029  29.482  54.221  0.00  0.00    -0.040 SA
BRANCH  14  15
ATOM     15  C   UNL d   1      53.354  28.811  54.592  0.00  0.00     0.226 C 
ATOM     16  O   UNL d   1      53.631  28.188  54.126  0.00  0.00    -0.279 OA
ATOM     17  C   UNL d   1      53.394  28.775  55.408  0.00  0.00     0.053 C 
ENDBRANCH  14  15
ENDBRANCH  13  14
ENDBRANCH  11  13
ENDBRANCH   1  10
BRANCH   2  18
ATOM     18  C   UNL d   1      53.923  33.011  54.616  0.00  0.00     0.082 C 
ATOM     19  C   UNL d   1      54.687  33.288  54.474  0.00  0.00     0.021 C 
ENDBRANCH   2  18
BRANCH   8  20
ATOM     20  O   UNL d   1      51.157  34.481  52.267  0.00  0.00    -0.328 OA
ATOM     21  C   UNL d   1      50.372  34.459  52.497  0.00  0.00     0.181 C 
ENDBRANCH   8  20
TORSDOF 6
ENDMDL
MODEL 2
REMARK VINA RESULT:      -7.3      1.502      4.463
REMARK  6 active torsions:
REMARK  status: ('A' for Active; 'I' for Inactive)
REMARK    1  A    between atoms: N_3  and  C_1 
REMARK    2  A    between atoms: C_16  and  N_2 
REMARK       I    between atoms: C_7  and  N_3 
REMARK    3  A    between atoms: C_14  and  C_7 
REMARK    4  A    between atoms: C_10  and  S_11 
REMARK    5  A    between atoms: S_11  and  C_14 
REMARK    6  A    between atoms: O_18  and  C_15 
ROOT
ATOM      1  C   UNL d   1      52.153  33.754  53.309  0.00  0.00     0.182 A 
ATOM      2  N   UNL d   1      52.742  33.712  53.889  0.00  0.00    -0.285 N 
ATOM      3  S   UNL d   1      52.133  33.024  52.913  0.00  0.00    -0.048 SA
ATOM      4  C   UNL d   1      52.712  32.534  53.253  0.00  0.00     0.050 A 
ATOM      5  C   UNL d   1      53.088  32.958  53.855  0.00  0.00     0.072 A 
ATOM      6  C   UNL d   1      52.938  31.754  53.082  0.00  0.00     0.032 A 
ATOM      7  C   UNL d   1      53.689  32.603  54.287  0.00  0.00     0.020 A 
ATOM      8  C   UNL d   1      53.542  31.414  53.525  0.00  0.00     0.095 A 
ATOM      9  C   UNL d   1      53.917  31.838  54.126  0.00  0.00     0.026 A 
ENDROOT
BRANCH   1  10
ATOM     10  N   UNL d   1      51.670  34.406  53.151  0.00  0.00    -0.183 NA
ATOM     11  C   UNL d   1      50.913  34.087  53.033  0.00  0.00     0.288 C 
ATOM     12  O   UNL d   1      50.796  33.268  53.090  0.00  0.00    -0.265 OA
BRANCH  11  13
ATOM     13  C   UNL d   1      50.278  34.576  52.861  0.00  0.00     0.101 C 
BRANCH  13  14
ATOM     14  S   UNL d   1      49.701  34.340  52.313  0.00  0.00    -0.040 SA
BRANCH  14  15
ATOM     15  C   UNL d   1      49.055  34.839  52.145  0.00  0.00     0.226 C 
ATOM     16  O   UNL d   1      48.777  35.348  52.731  0.00  0.00    -0.279 OA
ATOM     17  C   UNL d   1      48.706  34.818  51.406  0.00  0.00     0.053 C 
ENDBRANCH  14  15
ENDBRANCH  13  14
ENDBRANCH  11  13
ENDBRANCH   1  10
BRANCH   2  18
ATOM     18  C   UNL d   1      52.944  34.315  54.406  0.00  0.00     0.082 C 
ATOM     19  C   UNL d   1      53.487  34.895  54.185  0.00  0.00     0.021 C 
ENDBRANCH   2  18
BRANCH   8  20
ATOM     20  O   UNL d   1      53.777  30.634  53.364  0.00  0.00    -0.328 OA
ATOM     21  C   UNL d   1      53.345  30.006  53.662  0.00  0.00     0.181 C 
ENDBRANCH   8  20
TORSDOF 6
ENDMDL
MODEL 3
REMARK VINA RESULT:      -7.1      2.223      4.446
REMARK  6 active torsions:
REMARK  status: ('A' for Active; 'I' for Inactive)
REMARK    1  A    between atoms: N_3  and  C_1 
REMARK    2  A    between atoms: C_16  and  N_2 
REMARK       I    between atoms: C_7  and  N_3 
REMARK    3  A    between atoms: C_14  and  C_7 
REMARK    4  A    between atoms: C_10  and  S_11 
REMARK    5  A    between atoms: S_11  and  C_14 
REMARK    6  A    between atoms: O_18  and  C_15 
ROOT
ATOM      1  C   UNL d   1      52.182  33.084  53.166  0.00  0.00     0.182 A 
ATOM      2  N   UNL d   1      52.791  32.525  53.131  0.00  0.00    -0.285 N 
ATOM      3  S   UNL d   1      52.394  33.657  53.728  0.00  0.00    -0.048 SA
ATOM      4  C   UNL d   1      53.136  33.447  54.039  0.00  0.00     0.050 A 
ATOM      5  C   UNL d   1      53.381  32.749  53.671  0.00  0.00     0.072 A 
ATOM      6  C   UNL d   1      53.612  33.811  54.612  0.00  0.00     0.032 A 
ATOM      7  C   UNL d   1      54.102  32.414  53.875  0.00  0.00     0.020 A 
ATOM      8  C   UNL d   1      54.331  33.463  54.805  0.00  0.00     0.095 A 
ATOM      9  C   UNL d   1      54.576  32.765  54.436  0.00  0.00     0.026 A 
ENDROOT
BRANCH   1  10
ATOM     10  N   UNL d   1      51.486  33.075  52.720  0.00  0.00    -0.183 NA
ATOM     11  C   UNL d   1      51.271  33.873  52.643  0.00  0.00     0.288 C 
ATOM     12  O   UNL d   1      51.741  34.463  52.989  0.00  0.00    -0.265 OA
BRANCH  11  13
ATOM     13  C   UNL d   1      50.596  34.084  52.228  0.00  0.00     0.101 C 
BRANCH  13  14
ATOM     14  S   UNL d   1      49.966  34.463  52.613  0.00  0.00    -0.040 SA
BRANCH  14  15
ATOM     15  C   UNL d   1      49.302  34.716  52.178  0.00  0.00     0.226 C 
ATOM     16  O   UNL d   1      49.210  34.460  51.399  0.00  0.00    -0.279 OA
ATOM     17  C   UNL d   1      48.752  35.211  52.526  0.00  0.00     0.053 C 
ENDBRANCH  14  15
ENDBRANCH  13  14
ENDBRANCH  11  13
ENDBRANCH   1  10
BRANCH   2  18
ATOM     18  C   UNL d   1      52.804  31.866  52.645  0.00  0.00     0.082 C 
ATOM     19  C   UNL d   1      52.564  31.129  52.927  0.00  0.00     0.021 C 
ENDBRANCH   2  18
BRANCH   8  20
ATOM     20  O   UNL d   1      54.818  33.817  55.377  0.00  0.00    -0.328 OA
ATOM     21  C   UNL d   1      55.563  34.085  55.172  0.00  0.00     0.181 C 
ENDBRANCH   8  20
TORSDOF 6
ENDMDL
MODEL 4
REMARK VINA RESULT:      -6.9      1.320      2.044
REMARK  6 active torsions:
REMARK  status: ('A' for Active; 'I' for Inactive)
REMARK    1  A    between atoms: N_3  and  C_1 
REMARK    2  A    between atoms: C_16  and  N_2 
REMARK       I    between atoms: C_7  and  N_3 
REMARK    3  A    between atoms: C_14  and  C_7 
REMARK    4  A    between atoms: C_10  and  S_11 
REMARK    5  A    between atoms: S_11  and  C_14 
REMARK    6  A    between atoms: O_18  and  C_15 
ROOT
ATOM      1  C   UNL d   1      52.675  32.570  53.112  0.00  0.00     0.182 A 
ATOM      2  N   UNL d   1      52.129  33.175  52.972  0.00  0.00    -0.285 N 
ATOM      3  S   UNL d   1      53.303  32.891  53.550  0.00  0.00    -0.048 SA
ATOM      4  C   UNL d   1      53.140  33.696  53.678  0.00  0.00     0.050 A 
ATOM      5  C   UNL d   1      52.415  33.871  53.322  0.00  0.00     0.072 A 
ATOM      6  C   UNL d   1      53.567  34.284  54.077  0.00  0.00     0.032 A 
ATOM      7  C   UNL d   1      52.117  34.635  53.364  0.00  0.00     0.020 A 
ATOM      8  C   UNL d   1      53.253  35.044  54.110  0.00  0.00     0.095 A 
ATOM      9  C   UNL d   1      52.529  35.219  53.753  0.00  0.00     0.026 A 
ENDROOT
BRANCH   1  10
ATOM     10  N   UNL d   1      52.609  31.785  52.861  0.00  0.00    -0.183 NA
ATOM     11  C   UNL d   1      53.095  31.354  53.377  0.00  0.00     0.288 C 
ATOM     12  O   UNL d   1      53.509  31.747  53.980  0.00  0.00    -0.265 OA
BRANCH  11  13
ATOM     13  C   UNL d   1      53.170  30.541  53.297  0.00  0.00     0.101 C 
BRANCH  13  14
ATOM     14  S   UNL d   1      53.364  30.070  53.952  0.00  0.00    -0.040 SA
BRANCH  14  15
ATOM     15  C   UNL d   1      53.153  29.264  53.964  0.00  0.00     0.226 C 
ATOM     16  O   UNL d   1      52.666  28.967  53.368  0.00  0.00    -0.279 OA
ATOM     17  C   UNL d   1      53.430  28.780  54.562  0.00  0.00     0.053 C 
ENDBRANCH  14  15
ENDBRANCH  13  14
ENDBRANCH  11  13
ENDBRANCH   1  10
BRANCH   2  18
ATOM     18  C   UNL d   1      51.427  33.094  52.558  0.00  0.00     0.082 C 
ATOM     19  C   UNL d   1      50.700  33.130  52.947  0.00  0.00     0.021 C 
ENDBRANCH   2  18
BRANCH   8  20
ATOM     20  O   UNL d   1      53.671  35.642  54.506  0.00  0.00    -0.328 OA
ATOM     21  C   UNL d   1      53.264  36.240  54.889  0.00  0.00     0.181 C 
ENDBRANCH   8  20
TORSDOF 6
ENDMDL
MODEL 5
REMARK VINA RESULT:      -5.9      1.535      4.460
REMARK  6 active torsions:
REMARK  status: ('A' for Active; 'I' for Inactive)
REMARK    1  A    between atoms: N_3  and  C_1 
REMARK    2  A    between atoms: C_16  and  N_2 
REMARK       I    between atoms: C_7  and  N_3 
REMARK    3  A    between atoms: C_14  and  C_7 
REMARK    4  A    between atoms: C_10  and  S_11 
REMARK    5  A    between atoms: S_11  and  C_14 
REMARK    6  A    between atoms: O_18  and  C_15 
ROOT
ATOM      1  C   UNL d   1      53.312  32.369  53.370  0.00  0.00     0.182 A 
ATOM      2  N   UNL d   1      52.723  31.913  53.009  0.00  0.00    -0.285 N 
ATOM      3  S   UNL d   1      53.791  31.858  53.817  0.00  0.00    -0.048 SA
ATOM      4  C   UNL d   1      53.493  31.087  53.728  0.00  0.00     0.050 A 
ATOM      5  C   UNL d   1      52.835  31.121  53.230  0.00  0.00     0.072 A 
ATOM      6  C   UNL d   1      53.747  30.363  54.043  0.00  0.00     0.032 A 
ATOM      7  C   UNL d   1      52.429  30.431  53.045  0.00  0.00     0.020 A 
ATOM      8  C   UNL d   1      53.329  29.682  53.848  0.00  0.00     0.095 A 
ATOM      9  C   UNL d   1      52.671  29.716  53.350  0.00  0.00     0.026 A 
ENDROOT
BRANCH   1  10
ATOM     10  N   UNL d   1      53.407  33.187  53.300  0.00  0.00    -0.183 NA
ATOM     11  C   UNL d   1      53.639  33.440  54.055  0.00  0.00     0.288 C 
ATOM     12  O   UNL d   1      53.722  32.888  54.670  0.00  0.00    -0.265 OA
BRANCH  11  13
ATOM     13  C   UNL d   1      53.787  34.234  54.201  0.00  0.00     0.101 C 
BRANCH  13  14
ATOM     14  S   UNL d   1      53.307  34.663  54.725  0.00  0.00    -0.040 SA
BRANCH  14  15
ATOM     15  C   UNL d   1      53.192  35.480  54.613  0.00  0.00     0.226 C 
ATOM     16  O   UNL d   1      53.811  35.936  54.313  0.00  0.00    -0.279 OA
ATOM     17  C   UNL d   1      52.473  35.820  54.800  0.00  0.00     0.053 C 
ENDBRANCH  14  15
ENDBRANCH  13  14
ENDBRANCH  11  13
ENDBRANCH   1  10
BRANCH   2  18
ATOM     18  C   UNL d   1      52.134  32.202  52.518  0.00  0.00     0.082 C 
ATOM     19  C   UNL d   1      51.383  32.369  52.814  0.00  0.00     0.021 C 
ENDBRANCH   2  18
BRANCH   8  20
ATOM     20  O   UNL d   1      53.572  28.950  54.157  0.00  0.00    -0.328 OA
ATOM     21  C   UNL d   1      53.318  28.714  54.898  0.00  0.00     0.181 C 
ENDBRANCH   8  20
TORSDOF 6
ENDMDL
MODEL 6
REMARK VINA RESULT:      -5.2      9.656     10.652
REMARK  6 active torsions:
REMARK  status: ('A' for Active; 'I' for Inactive)
REMARK    1  A    between atoms: N_3  and  C_1 
REMARK    2  A    between atoms: C_16  and  N_2 
REMARK       I    between atoms: C_7  and  N_3 
REMARK    3  A    between atoms: C_14  and  C_7 
REMARK    4  A    between atoms: C_10  and  S_11 
REMARK    5  A    between atoms: S_11  and  C_14 
REMARK    6  A    between atoms: O_18  and  C_15 
ROOT
ATOM      1  C   UNL d   1      44.641  29.811  58.560  0.00  0.00     0.182 A 
ATOM      2  N   UNL d   1      44.859  29.814  57.762  0.00  0.00    -0.285 N 
ATOM      3  S   UNL d   1      44.622  29.022  58.816  0.00  0.00    -0.048 SA
ATOM      4  C   UNL d   1      44.829  28.540  58.171  0.00  0.00     0.050 A 
ATOM      5  C   UNL d   1      44.975  29.028  57.521  0.00  0.00     0.072 A 
ATOM      6  C   UNL d   1      44.900  27.716  58.104  0.00  0.00     0.032 A 
ATOM      7  C   UNL d   1      45.193  28.694  56.803  0.00  0.00     0.020 A 
ATOM      8  C   UNL d   1      45.119  27.398  57.378  0.00  0.00     0.095 A 
ATOM      9  C   UNL d   1      45.265  27.886  56.728  0.00  0.00     0.026 A 
ENDROOT
BRANCH   1  10
ATOM     10  N   UNL d   1      44.472  30.476  59.022  0.00  0.00    -0.183 NA
ATOM     11  C   UNL d   1      44.604  30.232  59.804  0.00  0.00     0.288 C 
ATOM     12  O   UNL d   1      44.853  29.455  59.958  0.00  0.00    -0.265 OA
BRANCH  11  13
ATOM     13  C   UNL d   1      44.491  30.752  60.427  0.00  0.00     0.101 C 
BRANCH  13  14
ATOM     14  S   UNL d   1      44.722  30.544  61.197  0.00  0.00    -0.040 SA
BRANCH  14  15
ATOM     15  C   UNL d   1      44.559  31.054  61.835  0.00  0.00     0.226 C 
ATOM     16  O   UNL d   1      44.647  31.868  61.732  0.00  0.00    -0.279 OA
ATOM     17  C   UNL d   1      44.314  30.745  62.551  0.00  0.00     0.053 C 
ENDBRANCH  14  15
ENDBRANCH  13  14
ENDBRANCH  11  13
ENDBRANCH   1  10
BRANCH   2  18
ATOM     18  C   UNL d   1      44.944  30.482  57.295  0.00  0.00     0.082 C 
ATOM     19  C   UNL d   1      44.317  30.758  56.837  0.00  0.00     0.021 C 
ENDBRANCH   2  18
BRANCH   8  20
ATOM     20  O   UNL d   1      45.194  26.575  57.298  0.00  0.00    -0.328 OA
ATOM     21  C   UNL d   1      44.986  26.212  56.594  0.00  0.00     0.181 C 
ENDBRANCH   8  20
TORSDOF 6
ENDMDL
