MODEL 1
REMARK VINA RESULT:      -5.0      0.000      0.000
REMARK  3 active torsions:
REMARK  status: ('A' for Active; 'I' for Inactive)
REMARK    1  A    between atoms: C_10  and  C_5 
REMARK    2  A    between atoms: S_9  and  C_10 
REMARK    3  A    between atoms: C_11  and  S_9 
ROOT
ATOM      1  C   UNL d   1     -41.287-123.518 -53.221  0.00  0.00     0.179 A 
ATOM      2  N   UNL d   1     -41.539-122.737 -53.277  0.00  0.00    -0.283 N 
ATOM      3  N   UNL d   1     -41.185-123.689 -52.430  0.00  0.00    -0.220 NA
ATOM      4  S   UNL d   1     -41.238-123.816 -53.978  0.00  0.00    -0.048 SA
ATOM      5  C   UNL d   1     -41.371-123.022 -51.991  0.00  0.00     0.107 A 
ATOM      6  C   UNL d   1     -41.591-122.432 -52.520  0.00  0.00     0.102 A 
ATOM      7  C   UNL d   1     -41.644-122.559 -54.068  0.00  0.00     0.073 A 
ATOM      8  C   UNL d   1     -41.456-123.228 -54.487  0.00  0.00     0.056 A 
ATOM      9  C   UNL d   1     -41.896-121.826 -54.376  0.00  0.00     0.020 C 
ENDROOT
BRANCH   5  10
ATOM     10  C   UNL d   1     -41.338-122.969 -51.159  0.00  0.00     0.056 C 
BRANCH  10  11
ATOM     11  S   UNL d   1     -41.858-123.429 -50.717  0.00  0.00    -0.085 SA
BRANCH  11  12
ATOM     12  C   UNL d   1     -41.907-123.316 -49.904  0.00  0.00     0.030 A 
ATOM     13  C   UNL d   1     -41.250-123.466 -49.414  0.00  0.00     0.007 A 
ATOM     14  C   UNL d   1     -41.299-123.353 -48.605  0.00  0.00     0.012 A 
ATOM     15  C   UNL d   1     -42.005-123.088 -48.272  0.00  0.00     0.058 A 
ATOM     16  C   UNL d   1     -42.666-122.935 -48.746  0.00  0.00     0.012 A 
ATOM     17 CL   UNL d   1     -42.069-122.971 -47.468  0.00  0.00    -0.082 Cl
ATOM     18  C   UNL d   1     -42.616-123.050 -49.575  0.00  0.00     0.007 A 
ENDBRANCH  11  12
ENDBRANCH  10  11
ENDBRANCH   5  10
TORSDOF 3
ENDMDL
MODEL 2
REMARK VINA RESULT:      -4.9      2.276      4.682
REMARK  3 active torsions:
REMARK  status: ('A' for Active; 'I' for Inactive)
REMARK    1  A    between atoms: C_10  and  C_5 
REMARK    2  A    between atoms: S_9  and  C_10 
REMARK    3  A    between atoms: C_11  and  S_9 
ROOT
ATOM      1  C   UNL d   1     -42.460-122.625 -50.006  0.00  0.00     0.179 A 
ATOM      2  N   UNL d   1     -41.747-123.021 -49.907  0.00  0.00    -0.283 N 
ATOM      3  N   UNL d   1     -42.458-122.295 -50.752  0.00  0.00    -0.220 NA
ATOM      4  S   UNL d   1     -42.891-122.717 -49.320  0.00  0.00    -0.048 SA
ATOM      5  C   UNL d   1     -41.750-122.481 -51.120  0.00  0.00     0.107 A 
ATOM      6  C   UNL d   1     -41.309-122.933 -50.592  0.00  0.00     0.102 A 
ATOM      7  C   UNL d   1     -41.742-123.355 -49.161  0.00  0.00     0.073 A 
ATOM      8  C   UNL d   1     -42.448-123.161 -48.811  0.00  0.00     0.056 A 
ATOM      9  C   UNL d   1     -41.124-123.806 -48.830  0.00  0.00     0.020 C 
ENDROOT
BRANCH   5  10
ATOM     10  C   UNL d   1     -41.532-122.247 -51.890  0.00  0.00     0.056 C 
BRANCH  10  11
ATOM     11  S   UNL d   1     -41.460-122.827 -52.470  0.00  0.00    -0.085 SA
BRANCH  11  12
ATOM     12  C   UNL d   1     -41.542-122.620 -53.261  0.00  0.00     0.030 A 
ATOM     13  C   UNL d   1     -41.960-121.933 -53.480  0.00  0.00     0.007 A 
ATOM     14  C   UNL d   1     -42.041-121.728 -54.268  0.00  0.00     0.012 A 
ATOM     15  C   UNL d   1     -41.705-122.205 -54.851  0.00  0.00     0.058 A 
ATOM     16  C   UNL d   1     -41.287-122.890 -54.649  0.00  0.00     0.012 A 
ATOM     17 CL   UNL d   1     -41.778-122.013 -55.639  0.00  0.00    -0.082 Cl
ATOM     18  C   UNL d   1     -41.204-123.101 -53.841  0.00  0.00     0.007 A 
ENDBRANCH  11  12
ENDBRANCH  10  11
ENDBRANCH   5  10
TORSDOF 3
ENDMDL
MODEL 3
REMARK VINA RESULT:      -3.6      0.785      1.047
REMARK  3 active torsions:
REMARK  status: ('A' for Active; 'I' for Inactive)
REMARK    1  A    between atoms: C_10  and  C_5 
REMARK    2  A    between atoms: S_9  and  C_10 
REMARK    3  A    between atoms: C_11  and  S_9 
ROOT
ATOM      1  C   UNL d   1     -41.915-121.994 -53.166  0.00  0.00     0.179 A 
ATOM      2  N   UNL d   1     -41.542-122.720 -53.262  0.00  0.00    -0.283 N 
ATOM      3  N   UNL d   1     -41.979-121.853 -52.366  0.00  0.00    -0.220 NA
ATOM      4  S   UNL d   1     -42.075-121.698 -53.909  0.00  0.00    -0.048 SA
ATOM      5  C   UNL d   1     -41.650-122.484 -51.960  0.00  0.00     0.107 A 
ATOM      6  C   UNL d   1     -41.379-123.023 -52.520  0.00  0.00     0.102 A 
ATOM      7  C   UNL d   1     -41.475-122.868 -54.064  0.00  0.00     0.073 A 
ATOM      8  C   UNL d   1     -41.804-122.235 -54.449  0.00  0.00     0.056 A 
ATOM      9  C   UNL d   1     -41.130-123.544 -54.409  0.00  0.00     0.020 C 
ENDROOT
BRANCH   5  10
ATOM     10  C   UNL d   1     -41.606-122.553 -51.130  0.00  0.00     0.056 C 
BRANCH  10  11
ATOM     11  S   UNL d   1     -42.149-123.040 -50.748  0.00  0.00    -0.085 SA
BRANCH  11  12
ATOM     12  C   UNL d   1     -42.034-123.233 -49.958  0.00  0.00     0.030 A 
ATOM     13  C   UNL d   1     -41.273-123.421 -49.673  0.00  0.00     0.007 A 
ATOM     14  C   UNL d   1     -41.158-123.613 -48.886  0.00  0.00     0.012 A 
ATOM     15  C   UNL d   1     -41.802-123.621 -48.370  0.00  0.00     0.058 A 
ATOM     16  C   UNL d   1     -42.563-123.438 -48.638  0.00  0.00     0.012 A 
ATOM     17 CL   UNL d   1     -41.703-123.811 -47.584  0.00  0.00    -0.082 Cl
ATOM     18  C   UNL d   1     -42.681-123.240 -49.445  0.00  0.00     0.007 A 
ENDBRANCH  11  12
ENDBRANCH  10  11
ENDBRANCH   5  10
TORSDOF 3
ENDMDL
