MODEL 1
REMARK VINA RESULT:      32.5      0.000      0.000
REMARK  5 active torsions:
REMARK  status: ('A' for Active; 'I' for Inactive)
REMARK    1  A    between atoms: C_4  and  C_1 
REMARK    2  A    between atoms: N_8  and  C_4 
REMARK    3  A    between atoms: C_11  and  N_8 
REMARK    4  A    between atoms: O_17  and  C_12 
REMARK    5  A    between atoms: C_20  and  O_17 
ROOT
ATOM      1  C   UNL d   1     -56.516 -98.769 -44.375  0.00  0.00     0.105 C 
ENDROOT
BRANCH   1   2
ATOM      2  C   UNL d   1     -57.333 -98.766 -44.555  0.00  0.00     0.096 A 
ATOM      3  C   UNL d   1     -57.890 -98.770 -43.951  0.00  0.00     0.196 A 
ATOM      4  C   UNL d   1     -58.697 -98.767 -44.140  0.00  0.00     0.019 A 
ATOM      5  O   UNL d   1     -57.649 -98.776 -43.151  0.00  0.00    -0.287 OA
ATOM      6  C   UNL d   1     -58.941 -98.761 -44.931  0.00  0.00     0.043 A 
ATOM      7  C   UNL d   1     -58.372 -98.758 -45.534  0.00  0.00     0.019 A 
ATOM      8  C   UNL d   1     -59.605 -98.764 -44.466  0.00  0.00     0.009 C 
ATOM      9  C   UNL d   1     -59.547 -98.757 -45.491  0.00  0.00     0.009 C 
ATOM     10  C   UNL d   1     -57.571 -98.761 -45.352  0.00  0.00     0.196 A 
ATOM     11  O   UNL d   1     -57.014 -98.757 -45.973  0.00  0.00    -0.287 OA
ENDBRANCH   1   2
BRANCH   1  12
ATOM     12  N   UNL d   1     -55.983 -99.192 -44.831  0.00  0.00    -0.244 NA
BRANCH  12  13
ATOM     13  C   UNL d   1     -55.668 -99.892 -44.542  0.00  0.00     0.082 A 
ATOM     14  C   UNL d   1     -55.949-100.610 -44.836  0.00  0.00     0.021 A 
ATOM     15  C   UNL d   1     -55.628-101.315 -44.541  0.00  0.00     0.026 A 
ATOM     16  C   UNL d   1     -55.038-101.308 -43.965  0.00  0.00     0.100 A 
ATOM     17  C   UNL d   1     -54.765-100.581 -43.679  0.00  0.00     0.026 A 
ATOM     18  C   UNL d   1     -55.079 -99.877 -43.967  0.00  0.00     0.021 A 
BRANCH  16  19
ATOM     19  O   UNL d   1     -54.712-102.030 -43.667  0.00  0.00    -0.305 OA
BRANCH  19  20
ATOM     20  C   UNL d   1     -55.094-102.454 -43.045  0.00  0.00     0.123 C 
ATOM     21  C   UNL d   1     -54.822-102.355 -42.273  0.00  0.00     0.029 C 
ENDBRANCH  19  20
ENDBRANCH  16  19
ENDBRANCH  12  13
ENDBRANCH   1  12
TORSDOF 5
ENDMDL
MODEL 2
REMARK VINA RESULT:      33.1      2.763      4.059
REMARK  5 active torsions:
REMARK  status: ('A' for Active; 'I' for Inactive)
REMARK    1  A    between atoms: C_4  and  C_1 
REMARK    2  A    between atoms: N_8  and  C_4 
REMARK    3  A    between atoms: C_11  and  N_8 
REMARK    4  A    between atoms: O_17  and  C_12 
REMARK    5  A    between atoms: C_20  and  O_17 
ROOT
ATOM      1  C   UNL d   1     -55.079-101.253 -42.841  0.00  0.00     0.105 C 
ENDROOT
BRANCH   1   2
ATOM      2  C   UNL d   1     -54.986-100.840 -43.563  0.00  0.00     0.096 A 
ATOM      3  C   UNL d   1     -54.906-101.253 -44.268  0.00  0.00     0.196 A 
ATOM      4  C   UNL d   1     -54.814-100.834 -44.977  0.00  0.00     0.019 A 
ATOM      5  O   UNL d   1     -54.916-102.089 -44.275  0.00  0.00    -0.287 OA
ATOM      6  C   UNL d   1     -54.804-100.007 -44.977  0.00  0.00     0.043 A 
ATOM      7  C   UNL d   1     -54.885 -99.599 -44.260  0.00  0.00     0.019 A 
ATOM      8  C   UNL d   1     -54.714-100.256 -45.743  0.00  0.00     0.009 C 
ATOM      9  C   UNL d   1     -54.745 -99.293 -45.387  0.00  0.00     0.009 C 
ATOM     10  C   UNL d   1     -54.976-100.008 -43.554  0.00  0.00     0.196 A 
ATOM     11  O   UNL d   1     -55.057 -99.579 -42.843  0.00  0.00    -0.287 OA
ENDBRANCH   1   2
BRANCH   1  12
ATOM     12  N   UNL d   1     -54.711-100.996 -42.156  0.00  0.00    -0.244 NA
BRANCH  12  13
ATOM     13  C   UNL d   1     -54.746-101.459 -41.478  0.00  0.00     0.082 A 
ATOM     14  C   UNL d   1     -54.813-101.089 -40.744  0.00  0.00     0.021 A 
ATOM     15  C   UNL d   1     -54.847-101.560 -40.063  0.00  0.00     0.026 A 
ATOM     16  C   UNL d   1     -54.816-102.383 -40.109  0.00  0.00     0.100 A 
ATOM     17  C   UNL d   1     -54.748-102.740 -40.852  0.00  0.00     0.026 A 
ATOM     18  C   UNL d   1     -54.713-102.279 -41.533  0.00  0.00     0.021 A 
BRANCH  16  19
ATOM     19  O   UNL d   1     -54.851-102.860 -39.412  0.00  0.00    -0.305 OA
BRANCH  19  20
ATOM     20  C   UNL d   1     -55.429-102.714 -38.814  0.00  0.00     0.123 C 
ATOM     21  C   UNL d   1     -55.237-102.880 -38.029  0.00  0.00     0.029 C 
ENDBRANCH  19  20
ENDBRANCH  16  19
ENDBRANCH  12  13
ENDBRANCH   1  12
TORSDOF 5
ENDMDL
MODEL 3
REMARK VINA RESULT:      33.6      1.098      4.036
REMARK  5 active torsions:
REMARK  status: ('A' for Active; 'I' for Inactive)
REMARK    1  A    between atoms: C_4  and  C_1 
REMARK    2  A    between atoms: N_8  and  C_4 
REMARK    3  A    between atoms: C_11  and  N_8 
REMARK    4  A    between atoms: O_17  and  C_12 
REMARK    5  A    between atoms: C_20  and  O_17 
ROOT
ATOM      1  C   UNL d   1     -54.747 -99.411 -44.855  0.00  0.00     0.105 C 
ENDROOT
BRANCH   1   2
ATOM      2  C   UNL d   1     -54.742-100.198 -44.570  0.00  0.00     0.096 A 
ATOM      3  C   UNL d   1     -54.725-100.346 -43.763  0.00  0.00     0.196 A 
ATOM      4  C   UNL d   1     -54.721-101.128 -43.491  0.00  0.00     0.019 A 
ATOM      5  O   UNL d   1     -54.714 -99.714 -43.215  0.00  0.00    -0.287 OA
ATOM      6  C   UNL d   1     -54.732-101.758 -44.029  0.00  0.00     0.043 A 
ATOM      7  C   UNL d   1     -54.748-101.599 -44.842  0.00  0.00     0.019 A 
ATOM      8  C   UNL d   1     -54.717-102.070 -43.281  0.00  0.00     0.009 C 
ATOM      9  C   UNL d   1     -54.735-102.569 -44.178  0.00  0.00     0.009 C 
ATOM     10  C   UNL d   1     -54.753-100.825 -45.117  0.00  0.00     0.196 A 
ATOM     11  O   UNL d   1     -54.769-100.686 -45.940  0.00  0.00    -0.287 OA
ENDBRANCH   1   2
BRANCH   1  12
ATOM     12  N   UNL d   1     -55.157 -98.821 -44.463  0.00  0.00    -0.244 NA
BRANCH  12  13
ATOM     13  C   UNL d   1     -55.977 -98.805 -44.498  0.00  0.00     0.082 A 
ATOM     14  C   UNL d   1     -56.408 -98.773 -43.796  0.00  0.00     0.021 A 
ATOM     15  C   UNL d   1     -57.236 -98.756 -43.836  0.00  0.00     0.026 A 
ATOM     16  C   UNL d   1     -57.629 -98.772 -44.561  0.00  0.00     0.100 A 
ATOM     17  C   UNL d   1     -57.185 -98.804 -45.258  0.00  0.00     0.026 A 
ATOM     18  C   UNL d   1     -56.363 -98.821 -45.225  0.00  0.00     0.021 A 
BRANCH  16  19
ATOM     19  O   UNL d   1     -58.474 -98.755 -44.598  0.00  0.00    -0.305 OA
BRANCH  19  20
ATOM     20  C   UNL d   1     -58.943 -98.874 -43.905  0.00  0.00     0.123 C 
ATOM     21  C   UNL d   1     -59.762 -98.807 -43.966  0.00  0.00     0.029 C 
ENDBRANCH  19  20
ENDBRANCH  16  19
ENDBRANCH  12  13
ENDBRANCH   1  12
TORSDOF 5
ENDMDL
