MODEL 1
REMARK VINA RESULT:      47.8      0.000      0.000
REMARK  3 active torsions:
REMARK  status: ('A' for Active; 'I' for Inactive)
REMARK    1  A    between atoms: C_4  and  C_1 
REMARK       I    between atoms: N_7  and  C_4 
REMARK    2  A    between atoms: C_14  and  N_7 
REMARK    3  A    between atoms: C_9  and  C_10 
ROOT
ATOM      1  C   UNL d   1     -55.274-101.769 -39.744  0.00  0.00     0.281 C 
ATOM      2  N   UNL d   1     -54.840-102.239 -39.241  0.00  0.00    -0.208 NA
ATOM      3  O   UNL d   1     -55.875-101.285 -39.451  0.00  0.00    -0.265 OA
ENDROOT
BRANCH   2   4
ATOM      4  C   UNL d   1     -55.002-102.231 -38.439  0.00  0.00     0.085 A 
ATOM      5  C   UNL d   1     -54.711-101.591 -37.972  0.00  0.00     0.019 A 
ATOM      6  C   UNL d   1     -54.864-101.567 -37.169  0.00  0.00     0.005 A 
ATOM      7  C   UNL d   1     -55.299-102.162 -36.808  0.00  0.00     0.039 A 
ATOM      8  C   UNL d   1     -55.583-102.791 -37.274  0.00  0.00     0.005 A 
ATOM      9  C   UNL d   1     -55.433-102.819 -38.077  0.00  0.00     0.019 A 
BRANCH   7  10
ATOM     10  C   UNL d   1     -55.457-102.137 -35.978  0.00  0.00     0.196 C 
ATOM     11  O   UNL d   1     -56.083-102.538 -35.659  0.00  0.00    -0.287 OA
ATOM     12  C   UNL d   1     -54.957-101.688 -35.470  0.00  0.00     0.045 C 
ENDBRANCH   7  10
ENDBRANCH   2   4
BRANCH   1  13
ATOM     13  C   UNL d   1     -55.130-101.758 -40.564  0.00  0.00     0.076 A 
ATOM     14  C   UNL d   1     -55.078-101.114 -41.046  0.00  0.00     0.092 A 
ATOM     15  S   UNL d   1     -54.926-101.354 -41.837  0.00  0.00    -0.064 SA
ATOM     16 CL   UNL d   1     -55.166-100.304 -40.788  0.00  0.00    -0.075 Cl
ATOM     17  C   UNL d   1     -54.887-102.134 -41.834  0.00  0.00     0.088 A 
ATOM     18  C   UNL d   1     -55.010-102.412 -41.051  0.00  0.00     0.024 A 
ATOM     19 CL   UNL d   1     -54.742-102.616 -42.515  0.00  0.00    -0.075 Cl
ENDBRANCH   1  13
TORSDOF 3
ENDMDL
MODEL 2
REMARK VINA RESULT:      48.7      2.121      3.146
REMARK  3 active torsions:
REMARK  status: ('A' for Active; 'I' for Inactive)
REMARK    1  A    between atoms: C_4  and  C_1 
REMARK       I    between atoms: N_7  and  C_4 
REMARK    2  A    between atoms: C_14  and  N_7 
REMARK    3  A    between atoms: C_9  and  C_10 
ROOT
ATOM      1  C   UNL d   1     -55.072-101.260 -42.627  0.00  0.00     0.281 C 
ATOM      2  N   UNL d   1     -55.143-102.039 -42.400  0.00  0.00    -0.208 NA
ATOM      3  O   UNL d   1     -55.125-100.654 -42.067  0.00  0.00    -0.265 OA
ENDROOT
BRANCH   2   4
ATOM      4  C   UNL d   1     -55.268-102.221 -41.612  0.00  0.00     0.085 A 
ATOM      5  C   UNL d   1     -55.994-101.989 -41.251  0.00  0.00     0.019 A 
ATOM      6  C   UNL d   1     -56.135-102.163 -40.464  0.00  0.00     0.005 A 
ATOM      7  C   UNL d   1     -55.574-102.564 -40.018  0.00  0.00     0.039 A 
ATOM      8  C   UNL d   1     -54.860-102.790 -40.380  0.00  0.00     0.005 A 
ATOM      9  C   UNL d   1     -54.715-102.618 -41.166  0.00  0.00     0.019 A 
BRANCH   7  10
ATOM     10  C   UNL d   1     -55.719-102.744 -39.205  0.00  0.00     0.196 C 
ATOM     11  O   UNL d   1     -56.473-102.827 -38.924  0.00  0.00    -0.287 OA
ATOM     12  C   UNL d   1     -55.072-102.839 -38.674  0.00  0.00     0.045 C 
ENDBRANCH   7  10
ENDBRANCH   2   4
BRANCH   1  13
ATOM     13  C   UNL d   1     -54.946-101.047 -43.421  0.00  0.00     0.076 A 
ATOM     14  C   UNL d   1     -54.819-100.308 -43.718  0.00  0.00     0.092 A 
ATOM     15  S   UNL d   1     -54.718-100.343 -44.551  0.00  0.00    -0.064 SA
ATOM     16 CL   UNL d   1     -54.793 -99.594 -43.251  0.00  0.00    -0.075 Cl
ATOM     17  C   UNL d   1     -54.782-101.094 -44.757  0.00  0.00     0.088 A 
ATOM     18  C   UNL d   1     -54.924-101.555 -44.069  0.00  0.00     0.024 A 
ATOM     19 CL   UNL d   1     -54.717-101.389 -45.548  0.00  0.00    -0.075 Cl
ENDBRANCH   1  13
TORSDOF 3
ENDMDL
