MODEL 1
REMARK VINA RESULT:      -7.3      0.000      0.000
REMARK  4 active torsions:
REMARK  status: ('A' for Active; 'I' for Inactive)
REMARK    1  A    between atoms: C_3  and  C_1 
REMARK    2  A    between atoms: C_4  and  C_3 
REMARK    3  A    between atoms: C_7  and  C_4 
REMARK    4  A    between atoms: C_14  and  C_7 
ROOT
ATOM      1  C   UNL d   1     -47.256  13.584  22.918  0.00  0.00     0.042 C 
ENDROOT
BRANCH   1   2
ATOM      2  C   UNL d   1     -46.438  13.441  22.879  0.00  0.00     0.199 C 
ATOM      3  O   UNL d   1     -45.903  14.078  22.666  0.00  0.00    -0.286 OA
BRANCH   2   4
ATOM      4  C   UNL d   1     -46.161  12.706  23.040  0.00  0.00     0.078 A 
ATOM      5  C   UNL d   1     -45.438  12.449  22.739  0.00  0.00     0.199 A 
ATOM      6  C   UNL d   1     -45.165  11.694  22.912  0.00  0.00     0.042 A 
ATOM      7  O   UNL d   1     -44.966  12.950  22.253  0.00  0.00    -0.286 OA
ATOM      8  C   UNL d   1     -45.616  11.191  23.387  0.00  0.00     0.003 A 
ATOM      9  C   UNL d   1     -46.340  11.448  23.688  0.00  0.00     0.000 A 
ATOM     10  C   UNL d   1     -45.343  10.435  23.560  0.00  0.00     0.000 C 
ATOM     11  C   UNL d   1     -46.613  12.208  23.513  0.00  0.00     0.006 A 
ENDBRANCH   2   4
ENDBRANCH   1   2
BRANCH   1  12
ATOM     12  C   UNL d   1     -47.606  14.144  22.420  0.00  0.00     0.003 C 
BRANCH  12  13
ATOM     13  C   UNL d   1     -48.406  14.315  22.494  0.00  0.00     0.002 A 
ATOM     14  C   UNL d   1     -48.652  14.923  22.997  0.00  0.00     0.027 A 
ATOM     15  C   UNL d   1     -49.452  15.094  23.072  0.00  0.00     0.123 A 
ATOM     16  O   UNL d   1     -49.702  15.705  23.578  0.00  0.00    -0.301 OA
ATOM     17  C   UNL d   1     -50.010  14.660  22.646  0.00  0.00     0.123 A 
ATOM     18  C   UNL d   1     -50.506  15.879  23.655  0.00  0.00     0.149 A 
ATOM     19  C   UNL d   1     -51.064  15.445  23.229  0.00  0.00     0.149 A 
ATOM     20  O   UNL d   1     -50.818  14.838  22.726  0.00  0.00    -0.301 OA
ATOM     21  C   UNL d   1     -49.768  14.056  22.145  0.00  0.00     0.027 A 
ATOM     22  C   UNL d   1     -48.964  13.882  22.068  0.00  0.00     0.002 A 
ENDBRANCH  12  13
ENDBRANCH   1  12
TORSDOF 4
ENDMDL
MODEL 2
REMARK VINA RESULT:      -7.2      8.376      9.607
REMARK  4 active torsions:
REMARK  status: ('A' for Active; 'I' for Inactive)
REMARK    1  A    between atoms: C_3  and  C_1 
REMARK    2  A    between atoms: C_4  and  C_3 
REMARK    3  A    between atoms: C_7  and  C_4 
REMARK    4  A    between atoms: C_14  and  C_7 
ROOT
ATOM      1  C   UNL d   1     -39.916  14.469  19.005  0.00  0.00     0.042 C 
ENDROOT
BRANCH   1   2
ATOM      2  C   UNL d   1     -40.142  14.088  18.301  0.00  0.00     0.199 C 
ATOM      3  O   UNL d   1     -40.941  13.783  18.219  0.00  0.00    -0.286 OA
BRANCH   2   4
ATOM      4  C   UNL d   1     -39.608  14.013  17.708  0.00  0.00     0.078 A 
ATOM      5  C   UNL d   1     -39.608  14.533  17.067  0.00  0.00     0.199 A 
ATOM      6  C   UNL d   1     -39.056  14.446  16.466  0.00  0.00     0.042 A 
ATOM      7  O   UNL d   1     -40.168  15.160  17.016  0.00  0.00    -0.286 OA
ATOM      8  C   UNL d   1     -38.500  13.836  16.502  0.00  0.00     0.003 A 
ATOM      9  C   UNL d   1     -38.500  13.315  17.142  0.00  0.00     0.000 A 
ATOM     10  C   UNL d   1     -37.947  13.748  15.900  0.00  0.00     0.000 C 
ATOM     11  C   UNL d   1     -39.057  13.405  17.746  0.00  0.00     0.006 A 
ENDBRANCH   2   4
ENDBRANCH   1   2
BRANCH   1  12
ATOM     12  C   UNL d   1     -40.381  14.398  19.686  0.00  0.00     0.003 C 
BRANCH  12  13
ATOM     13  C   UNL d   1     -40.154  14.780  20.377  0.00  0.00     0.002 A 
ATOM     14  C   UNL d   1     -39.652  14.398  20.912  0.00  0.00     0.027 A 
ATOM     15  C   UNL d   1     -39.426  14.780  21.603  0.00  0.00     0.123 A 
ATOM     16  O   UNL d   1     -38.921  14.398  22.143  0.00  0.00    -0.301 OA
ATOM     17  C   UNL d   1     -39.698  15.542  21.765  0.00  0.00     0.123 A 
ATOM     18  C   UNL d   1     -38.692  14.780  22.839  0.00  0.00     0.149 A 
ATOM     19  C   UNL d   1     -38.964  15.542  23.001  0.00  0.00     0.149 A 
ATOM     20  O   UNL d   1     -39.466  15.922  22.466  0.00  0.00    -0.301 OA
ATOM     21  C   UNL d   1     -40.197  15.922  21.235  0.00  0.00     0.027 A 
ATOM     22  C   UNL d   1     -40.427  15.542  20.539  0.00  0.00     0.002 A 
ENDBRANCH  12  13
ENDBRANCH   1  12
TORSDOF 4
ENDMDL
MODEL 3
REMARK VINA RESULT:      -7.0      1.347      1.957
REMARK  4 active torsions:
REMARK  status: ('A' for Active; 'I' for Inactive)
REMARK    1  A    between atoms: C_3  and  C_1 
REMARK    2  A    between atoms: C_4  and  C_3 
REMARK    3  A    between atoms: C_7  and  C_4 
REMARK    4  A    between atoms: C_14  and  C_7 
ROOT
ATOM      1  C   UNL d   1     -46.946  12.972  22.565  0.00  0.00     0.042 C 
ENDROOT
BRANCH   1   2
ATOM      2  C   UNL d   1     -46.226  13.177  22.929  0.00  0.00     0.199 C 
ATOM      3  O   UNL d   1     -46.231  13.560  23.698  0.00  0.00    -0.286 OA
BRANCH   2   4
ATOM      4  C   UNL d   1     -45.537  13.012  22.553  0.00  0.00     0.078 A 
ATOM      5  C   UNL d   1     -45.099  12.340  22.745  0.00  0.00     0.199 A 
ATOM      6  C   UNL d   1     -44.395  12.183  22.354  0.00  0.00     0.042 A 
ATOM      7  O   UNL d   1     -45.361  11.805  23.341  0.00  0.00    -0.286 OA
ATOM      8  C   UNL d   1     -44.125  12.697  21.767  0.00  0.00     0.003 A 
ATOM      9  C   UNL d   1     -44.563  13.369  21.575  0.00  0.00     0.000 A 
ATOM     10  C   UNL d   1     -43.420  12.540  21.374  0.00  0.00     0.000 C 
ATOM     11  C   UNL d   1     -45.272  13.527  21.970  0.00  0.00     0.006 A 
ENDBRANCH   2   4
ENDBRANCH   1   2
BRANCH   1  12
ATOM     12  C   UNL d   1     -47.654  13.007  22.992  0.00  0.00     0.003 C 
BRANCH  12  13
ATOM     13  C   UNL d   1     -48.372  12.986  22.595  0.00  0.00     0.002 A 
ATOM     14  C   UNL d   1     -48.865  13.650  22.601  0.00  0.00     0.027 A 
ATOM     15  C   UNL d   1     -49.584  13.629  22.204  0.00  0.00     0.123 A 
ATOM     16  O   UNL d   1     -50.082  14.295  22.209  0.00  0.00    -0.301 OA
ATOM     17  C   UNL d   1     -49.815  12.948  21.799  0.00  0.00     0.123 A 
ATOM     18  C   UNL d   1     -50.805  14.277  21.810  0.00  0.00     0.149 A 
ATOM     19  C   UNL d   1     -51.036  13.596  21.405  0.00  0.00     0.149 A 
ATOM     20  O   UNL d   1     -50.543  12.933  21.399  0.00  0.00    -0.301 OA
ATOM     21  C   UNL d   1     -49.327  12.288  21.792  0.00  0.00     0.027 A 
ATOM     22  C   UNL d   1     -48.603  12.305  22.190  0.00  0.00     0.002 A 
ENDBRANCH  12  13
ENDBRANCH   1  12
TORSDOF 4
ENDMDL
MODEL 4
REMARK VINA RESULT:      -6.6      8.118     10.024
REMARK  4 active torsions:
REMARK  status: ('A' for Active; 'I' for Inactive)
REMARK    1  A    between atoms: C_3  and  C_1 
REMARK    2  A    between atoms: C_4  and  C_3 
REMARK    3  A    between atoms: C_7  and  C_4 
REMARK    4  A    between atoms: C_14  and  C_7 
ROOT
ATOM      1  C   UNL d   1     -39.915  14.617  19.424  0.00  0.00     0.042 C 
ENDROOT
BRANCH   1   2
ATOM      2  C   UNL d   1     -40.325  14.542  20.144  0.00  0.00     0.199 C 
ATOM      3  O   UNL d   1     -41.060  14.098  20.173  0.00  0.00    -0.286 OA
BRANCH   2   4
ATOM      4  C   UNL d   1     -40.025  14.887  20.803  0.00  0.00     0.078 A 
ATOM      5  C   UNL d   1     -40.368  15.568  21.119  0.00  0.00     0.199 A 
ATOM      6  C   UNL d   1     -40.052  15.912  21.794  0.00  0.00     0.042 A 
ATOM      7  O   UNL d   1     -41.044  15.922  20.761  0.00  0.00    -0.286 OA
ATOM      8  C   UNL d   1     -39.390  15.577  22.157  0.00  0.00     0.003 A 
ATOM      9  C   UNL d   1     -39.047  14.897  21.840  0.00  0.00     0.000 A 
ATOM     10  C   UNL d   1     -39.073  15.922  22.833  0.00  0.00     0.000 C 
ATOM     11  C   UNL d   1     -39.367  14.551  21.161  0.00  0.00     0.006 A 
ENDBRANCH   2   4
ENDBRANCH   1   2
BRANCH   1  12
ATOM     12  C   UNL d   1     -40.156  14.186  18.760  0.00  0.00     0.003 C 
BRANCH  12  13
ATOM     13  C   UNL d   1     -39.784  14.306  18.038  0.00  0.00     0.002 A 
ATOM     14  C   UNL d   1     -39.250  13.744  17.752  0.00  0.00     0.027 A 
ATOM     15  C   UNL d   1     -38.878  13.865  17.029  0.00  0.00     0.123 A 
ATOM     16  O   UNL d   1     -38.340  13.301  16.739  0.00  0.00    -0.301 OA
ATOM     17  C   UNL d   1     -39.037  14.544  16.589  0.00  0.00     0.123 A 
ATOM     18  C   UNL d   1     -37.965  13.419  16.012  0.00  0.00     0.149 A 
ATOM     19  C   UNL d   1     -38.124  14.099  15.572  0.00  0.00     0.149 A 
ATOM     20  O   UNL d   1     -38.658  14.660  15.858  0.00  0.00    -0.301 OA
ATOM     21  C   UNL d   1     -39.568  15.103  16.871  0.00  0.00     0.027 A 
ATOM     22  C   UNL d   1     -39.943  14.986  17.597  0.00  0.00     0.002 A 
ENDBRANCH  12  13
ENDBRANCH   1  12
TORSDOF 4
ENDMDL
MODEL 5
REMARK VINA RESULT:      -6.1      8.840      9.963
REMARK  4 active torsions:
REMARK  status: ('A' for Active; 'I' for Inactive)
REMARK    1  A    between atoms: C_3  and  C_1 
REMARK    2  A    between atoms: C_4  and  C_3 
REMARK    3  A    between atoms: C_7  and  C_4 
REMARK    4  A    between atoms: C_14  and  C_7 
ROOT
ATOM      1  C   UNL d   1     -39.188  14.417  19.275  0.00  0.00     0.042 C 
ENDROOT
BRANCH   1   2
ATOM      2  C   UNL d   1     -39.299  14.166  18.490  0.00  0.00     0.199 C 
ATOM      3  O   UNL d   1     -38.899  13.460  18.207  0.00  0.00    -0.286 OA
BRANCH   2   4
ATOM      4  C   UNL d   1     -39.780  14.589  18.009  0.00  0.00     0.078 A 
ATOM      5  C   UNL d   1     -40.564  14.363  17.886  0.00  0.00     0.199 A 
ATOM      6  C   UNL d   1     -41.047  14.805  17.391  0.00  0.00     0.042 A 
ATOM      7  O   UNL d   1     -40.884  13.681  18.263  0.00  0.00    -0.286 OA
ATOM      8  C   UNL d   1     -40.748  15.476  17.014  0.00  0.00     0.003 A 
ATOM      9  C   UNL d   1     -39.964  15.702  17.136  0.00  0.00     0.000 A 
ATOM     10  C   UNL d   1     -41.232  15.919  16.518  0.00  0.00     0.000 C 
ATOM     11  C   UNL d   1     -39.479  15.256  17.635  0.00  0.00     0.006 A 
ENDBRANCH   2   4
ENDBRANCH   1   2
BRANCH   1  12
ATOM     12  C   UNL d   1     -38.616  14.056  19.752  0.00  0.00     0.003 C 
BRANCH  12  13
ATOM     13  C   UNL d   1     -38.566  14.248  20.549  0.00  0.00     0.002 A 
ATOM     14  C   UNL d   1     -38.680  13.663  21.121  0.00  0.00     0.027 A 
ATOM     15  C   UNL d   1     -38.630  13.855  21.918  0.00  0.00     0.123 A 
ATOM     16  O   UNL d   1     -38.744  13.268  22.496  0.00  0.00    -0.301 OA
ATOM     17  C   UNL d   1     -38.467  14.631  22.148  0.00  0.00     0.123 A 
ATOM     18  C   UNL d   1     -38.695  13.459  23.299  0.00  0.00     0.149 A 
ATOM     19  C   UNL d   1     -38.532  14.235  23.529  0.00  0.00     0.149 A 
ATOM     20  O   UNL d   1     -38.418  14.819  22.956  0.00  0.00    -0.301 OA
ATOM     21  C   UNL d   1     -38.354  15.214  21.581  0.00  0.00     0.027 A 
ATOM     22  C   UNL d   1     -38.403  15.024  20.779  0.00  0.00     0.002 A 
ENDBRANCH  12  13
ENDBRANCH   1  12
TORSDOF 4
ENDMDL
MODEL 6
REMARK VINA RESULT:      -5.5      8.760      9.575
REMARK  4 active torsions:
REMARK  status: ('A' for Active; 'I' for Inactive)
REMARK    1  A    between atoms: C_3  and  C_1 
REMARK    2  A    between atoms: C_4  and  C_3 
REMARK    3  A    between atoms: C_7  and  C_4 
REMARK    4  A    between atoms: C_14  and  C_7 
ROOT
ATOM      1  C   UNL d   1     -39.092  14.587  19.911  0.00  0.00     0.042 C 
ENDROOT
BRANCH   1   2
ATOM      2  C   UNL d   1     -38.742  14.208  20.562  0.00  0.00     0.199 C 
ATOM      3  O   UNL d   1     -38.405  13.424  20.469  0.00  0.00    -0.286 OA
BRANCH   2   4
ATOM      4  C   UNL d   1     -38.724  14.584  21.270  0.00  0.00     0.078 A 
ATOM      5  C   UNL d   1     -39.211  14.343  21.891  0.00  0.00     0.199 A 
ATOM      6  C   UNL d   1     -39.184  14.735  22.612  0.00  0.00     0.042 A 
ATOM      7  O   UNL d   1     -39.742  13.695  21.802  0.00  0.00    -0.286 OA
ATOM      8  C   UNL d   1     -38.668  15.372  22.716  0.00  0.00     0.003 A 
ATOM      9  C   UNL d   1     -38.181  15.613  22.095  0.00  0.00     0.000 A 
ATOM     10  C   UNL d   1     -38.641  15.765  23.437  0.00  0.00     0.000 C 
ATOM     11  C   UNL d   1     -38.210  15.217  21.370  0.00  0.00     0.006 A 
ENDBRANCH   2   4
ENDBRANCH   1   2
BRANCH   1  12
ATOM     12  C   UNL d   1     -39.051  14.247  19.158  0.00  0.00     0.003 C 
BRANCH  12  13
ATOM     13  C   UNL d   1     -39.321  14.665  18.504  0.00  0.00     0.002 A 
ATOM     14  C   UNL d   1     -40.122  14.641  18.303  0.00  0.00     0.027 A 
ATOM     15  C   UNL d   1     -40.392  15.059  17.650  0.00  0.00     0.123 A 
ATOM     16  O   UNL d   1     -41.198  15.037  17.446  0.00  0.00    -0.301 OA
ATOM     17  C   UNL d   1     -39.866  15.501  17.194  0.00  0.00     0.123 A 
ATOM     18  C   UNL d   1     -41.473  15.457  16.789  0.00  0.00     0.149 A 
ATOM     19  C   UNL d   1     -40.947  15.899  16.333  0.00  0.00     0.149 A 
ATOM     20  O   UNL d   1     -40.146  15.922  16.534  0.00  0.00    -0.301 OA
ATOM     21  C   UNL d   1     -39.070  15.526  17.391  0.00  0.00     0.027 A 
ATOM     22  C   UNL d   1     -38.794  15.107  18.048  0.00  0.00     0.002 A 
ENDBRANCH  12  13
ENDBRANCH   1  12
TORSDOF 4
ENDMDL
MODEL 7
REMARK VINA RESULT:      -5.2      8.415     10.857
REMARK  4 active torsions:
REMARK  status: ('A' for Active; 'I' for Inactive)
REMARK    1  A    between atoms: C_3  and  C_1 
REMARK    2  A    between atoms: C_4  and  C_3 
REMARK    3  A    between atoms: C_7  and  C_4 
REMARK    4  A    between atoms: C_14  and  C_7 
ROOT
ATOM      1  C   UNL d   1     -38.742  14.689  18.926  0.00  0.00     0.042 C 
ENDROOT
BRANCH   1   2
ATOM      2  C   UNL d   1     -38.787  15.096  19.649  0.00  0.00     0.199 C 
ATOM      3  O   UNL d   1     -38.069  15.390  20.018  0.00  0.00    -0.286 OA
BRANCH   2   4
ATOM      4  C   UNL d   1     -39.503  15.208  19.992  0.00  0.00     0.078 A 
ATOM      5  C   UNL d   1     -39.712  14.805  20.681  0.00  0.00     0.199 A 
ATOM      6  C   UNL d   1     -40.448  14.928  21.022  0.00  0.00     0.042 A 
ATOM      7  O   UNL d   1     -39.180  14.264  21.047  0.00  0.00    -0.286 OA
ATOM      8  C   UNL d   1     -40.981  15.456  20.676  0.00  0.00     0.003 A 
ATOM      9  C   UNL d   1     -40.772  15.858  19.987  0.00  0.00     0.000 A 
ATOM     10  C   UNL d   1     -41.718  15.579  21.017  0.00  0.00     0.000 C 
ATOM     11  C   UNL d   1     -40.030  15.733  19.644  0.00  0.00     0.006 A 
ENDBRANCH   2   4
ENDBRANCH   1   2
BRANCH   1  12
ATOM     12  C   UNL d   1     -38.106  14.818  18.412  0.00  0.00     0.003 C 
BRANCH  12  13
ATOM     13  C   UNL d   1     -38.073  14.422  17.694  0.00  0.00     0.002 A 
ATOM     14  C   UNL d   1     -38.040  14.851  16.988  0.00  0.00     0.027 A 
ATOM     15  C   UNL d   1     -38.007  14.455  16.269  0.00  0.00     0.123 A 
ATOM     16  O   UNL d   1     -37.973  14.884  15.558  0.00  0.00    -0.301 OA
ATOM     17  C   UNL d   1     -38.006  13.630  16.251  0.00  0.00     0.123 A 
ATOM     18  C   UNL d   1     -37.940  14.488  14.833  0.00  0.00     0.149 A 
ATOM     19  C   UNL d   1     -37.940  13.663  14.815  0.00  0.00     0.149 A 
ATOM     20  O   UNL d   1     -37.973  13.234  15.520  0.00  0.00    -0.301 OA
ATOM     21  C   UNL d   1     -38.039  13.202  16.950  0.00  0.00     0.027 A 
ATOM     22  C   UNL d   1     -38.073  13.597  17.675  0.00  0.00     0.002 A 
ENDBRANCH  12  13
ENDBRANCH   1  12
TORSDOF 4
ENDMDL
MODEL 8
REMARK VINA RESULT:      -4.4      4.132      6.078
REMARK  4 active torsions:
REMARK  status: ('A' for Active; 'I' for Inactive)
REMARK    1  A    between atoms: C_3  and  C_1 
REMARK    2  A    between atoms: C_4  and  C_3 
REMARK    3  A    between atoms: C_7  and  C_4 
REMARK    4  A    between atoms: C_14  and  C_7 
ROOT
ATOM      1  C   UNL d   1     -42.074  13.660  21.192  0.00  0.00     0.042 C 
ENDROOT
BRANCH   1   2
ATOM      2  C   UNL d   1     -41.495  13.967  20.681  0.00  0.00     0.199 C 
ATOM      3  O   UNL d   1     -41.533  13.795  19.840  0.00  0.00    -0.286 OA
BRANCH   2   4
ATOM      4  C   UNL d   1     -40.907  14.420  20.984  0.00  0.00     0.078 A 
ATOM      5  C   UNL d   1     -40.936  15.243  20.934  0.00  0.00     0.199 A 
ATOM      6  C   UNL d   1     -40.328  15.696  21.248  0.00  0.00     0.042 A 
ATOM      7  O   UNL d   1     -41.585  15.634  20.564  0.00  0.00    -0.286 OA
ATOM      8  C   UNL d   1     -39.685  15.328  21.613  0.00  0.00     0.003 A 
ATOM      9  C   UNL d   1     -39.656  14.505  21.663  0.00  0.00     0.000 A 
ATOM     10  C   UNL d   1     -39.076  15.782  21.927  0.00  0.00     0.000 C 
ATOM     11  C   UNL d   1     -40.269  14.050  21.347  0.00  0.00     0.006 A 
ENDBRANCH   2   4
ENDBRANCH   1   2
BRANCH   1  12
ATOM     12  C   UNL d   1     -42.661  13.154  20.902  0.00  0.00     0.003 C 
BRANCH  12  13
ATOM     13  C   UNL d   1     -43.252  12.882  21.404  0.00  0.00     0.002 A 
ATOM     14  C   UNL d   1     -43.974  13.283  21.443  0.00  0.00     0.027 A 
ATOM     15  C   UNL d   1     -44.565  13.011  21.945  0.00  0.00     0.123 A 
ATOM     16  O   UNL d   1     -45.292  13.413  21.987  0.00  0.00    -0.301 OA
ATOM     17  C   UNL d   1     -44.440  12.340  22.408  0.00  0.00     0.123 A 
ATOM     18  C   UNL d   1     -45.889  13.142  22.491  0.00  0.00     0.149 A 
ATOM     19  C   UNL d   1     -45.764  12.471  22.954  0.00  0.00     0.149 A 
ATOM     20  O   UNL d   1     -45.042  12.071  22.914  0.00  0.00    -0.301 OA
ATOM     21  C   UNL d   1     -43.724  11.941  22.370  0.00  0.00     0.027 A 
ATOM     22  C   UNL d   1     -43.127  12.211  21.867  0.00  0.00     0.002 A 
ENDBRANCH  12  13
ENDBRANCH   1  12
TORSDOF 4
ENDMDL
