MODEL 1
REMARK VINA RESULT:      27.0      0.000      0.000
REMARK  4 active torsions:
REMARK  status: ('A' for Active; 'I' for Inactive)
REMARK    1  A    between atoms: N_2  and  S_1 
REMARK    2  A    between atoms: C_3  and  S_1 
REMARK    3  A    between atoms: O_15  and  C_13 
REMARK    4  A    between atoms: C_19  and  O_15 
ROOT
ATOM      1  C   UNL d   1     -52.204  25.368  33.380  0.00  0.00     0.105 A 
ATOM      2  C   UNL d   1     -51.790  24.644  33.360  0.00  0.00     0.014 A 
ATOM      3  C   UNL d   1     -52.203  23.933  33.373  0.00  0.00     0.024 A 
ATOM      4  C   UNL d   1     -53.035  25.353  33.413  0.00  0.00     0.015 A 
ATOM      5  C   UNL d   1     -53.024  23.926  33.407  0.00  0.00     0.100 A 
ATOM      6  C   UNL d   1     -53.442  24.638  33.426  0.00  0.00     0.025 A 
ATOM      7  C   UNL d   1     -50.965  24.649  33.327  0.00  0.00     0.001 A 
ATOM      8  C   UNL d   1     -51.789  23.223  33.354  0.00  0.00     0.002 A 
ATOM      9  C   UNL d   1     -50.551  23.939  33.307  0.00  0.00     0.000 A 
ATOM     10  C   UNL d   1     -50.965  23.219  33.320  0.00  0.00     0.000 A 
ENDROOT
BRANCH   1  11
ATOM     11  S   UNL d   1     -51.798  26.083  33.367  0.00  0.00     0.286 S 
ATOM     12  O   UNL d   1     -51.079  25.675  33.396  0.00  0.00    -0.198 OA
ATOM     13  O   UNL d   1     -52.521  26.494  33.337  0.00  0.00    -0.198 OA
BRANCH  11  14
ATOM     14  N   UNL d   1     -51.385  26.810  33.353  0.00  0.00    -0.150 N 
ATOM     15  N   UNL d   1     -50.559  26.901  33.385  0.00  0.00    -0.155 NA
ATOM     16  C   UNL d   1     -50.391  27.709  33.358  0.00  0.00     0.104 A 
ATOM     17  C   UNL d   1     -49.637  28.055  33.375  0.00  0.00     0.022 C 
ATOM     18  C   UNL d   1     -51.113  28.118  33.308  0.00  0.00     0.042 A 
ATOM     19  C   UNL d   1     -51.722  27.560  33.306  0.00  0.00     0.115 A 
ENDBRANCH  11  14
ENDBRANCH   1  11
BRANCH   5  20
ATOM     20  O   UNL d   1     -53.431  23.211  33.420  0.00  0.00    -0.305 OA
BRANCH  20  21
ATOM     21  C   UNL d   1     -54.222  23.192  33.639  0.00  0.00     0.123 C 
ATOM     22  C   UNL d   1     -54.437  23.189  34.434  0.00  0.00     0.029 C 
ENDBRANCH  20  21
ENDBRANCH   5  20
TORSDOF 4
ENDMDL
MODEL 2
REMARK VINA RESULT:      28.4      1.391      3.901
REMARK  4 active torsions:
REMARK  status: ('A' for Active; 'I' for Inactive)
REMARK    1  A    between atoms: N_2  and  S_1 
REMARK    2  A    between atoms: C_3  and  S_1 
REMARK    3  A    between atoms: O_15  and  C_13 
REMARK    4  A    between atoms: C_19  and  O_15 
ROOT
ATOM      1  C   UNL d   1     -51.663  25.764  33.331  0.00  0.00     0.105 A 
ATOM      2  C   UNL d   1     -50.834  25.661  33.323  0.00  0.00     0.014 A 
ATOM      3  C   UNL d   1     -50.339  26.318  33.316  0.00  0.00     0.024 A 
ATOM      4  C   UNL d   1     -51.971  26.536  33.331  0.00  0.00     0.015 A 
ATOM      5  C   UNL d   1     -50.651  27.078  33.317  0.00  0.00     0.100 A 
ATOM      6  C   UNL d   1     -51.469  27.188  33.324  0.00  0.00     0.025 A 
ATOM      7  C   UNL d   1     -50.519  24.898  33.322  0.00  0.00     0.001 A 
ATOM      8  C   UNL d   1     -49.524  26.211  33.308  0.00  0.00     0.002 A 
ATOM      9  C   UNL d   1     -49.704  24.791  33.314  0.00  0.00     0.000 A 
ATOM     10  C   UNL d   1     -49.201  25.452  33.307  0.00  0.00     0.000 A 
ENDROOT
BRANCH   1  11
ATOM     11  S   UNL d   1     -52.165  25.111  33.337  0.00  0.00     0.286 S 
ATOM     12  O   UNL d   1     -51.510  24.607  33.366  0.00  0.00    -0.198 OA
ATOM     13  O   UNL d   1     -52.824  25.618  33.309  0.00  0.00    -0.198 OA
BRANCH  11  14
ATOM     14  N   UNL d   1     -52.674  24.449  33.344  0.00  0.00    -0.150 N 
ATOM     15  N   UNL d   1     -53.505  24.475  33.360  0.00  0.00    -0.155 NA
ATOM     16  C   UNL d   1     -53.783  23.697  33.362  0.00  0.00     0.104 A 
ATOM     17  C   UNL d   1     -54.578  23.460  33.376  0.00  0.00     0.022 C 
ATOM     18  C   UNL d   1     -53.125  23.190  33.348  0.00  0.00     0.042 A 
ATOM     19  C   UNL d   1     -52.444  23.658  33.337  0.00  0.00     0.115 A 
ENDBRANCH  11  14
ENDBRANCH   1  11
BRANCH   5  20
ATOM     20  O   UNL d   1     -50.149  27.730  33.310  0.00  0.00    -0.305 OA
BRANCH  20  21
ATOM     21  C   UNL d   1     -50.413  28.455  33.592  0.00  0.00     0.123 C 
ATOM     22  C   UNL d   1     -49.878  29.018  33.864  0.00  0.00     0.029 C 
ENDBRANCH  20  21
ENDBRANCH   5  20
TORSDOF 4
ENDMDL
