MODEL 1
REMARK VINA RESULT:      70.8      0.000      0.000
REMARK  4 active torsions:
REMARK  status: ('A' for Active; 'I' for Inactive)
REMARK    1  A    between atoms: C_2  and  C_1 
REMARK    2  A    between atoms: C_15  and  C_8 
REMARK    3  A    between atoms: C_9  and  C_15 
REMARK    4  A    between atoms: C_18  and  C_10 
ROOT
ATOM      1  C   UNL d   1     -48.383  29.326  34.925  0.00  0.00     0.094 A 
ATOM      2  N   UNL d   1     -48.361  28.835  34.263  0.00  0.00    -0.238 NA
ATOM      3  C   UNL d   1     -48.724  28.121  34.463  0.00  0.00     0.113 A 
ATOM      4  S   UNL d   1     -48.970  28.166  35.244  0.00  0.00    -0.066 SA
ATOM      5  C   UNL d   1     -48.760  28.911  35.533  0.00  0.00     0.056 A 
ENDROOT
BRANCH   3   6
ATOM      6  C   UNL d   1     -48.822  27.472  33.959  0.00  0.00     0.051 C 
BRANCH   6   7
ATOM      7  C   UNL d   1     -49.583  27.232  33.746  0.00  0.00     0.113 A 
ATOM      8  N   UNL d   1     -49.884  26.466  33.786  0.00  0.00    -0.238 NA
ATOM      9  C   UNL d   1     -50.664  26.482  33.519  0.00  0.00     0.088 A 
ATOM     10  C   UNL d   1     -50.846  27.260  33.313  0.00  0.00     0.056 A 
ATOM     11  S   UNL d   1     -50.180  27.723  33.453  0.00  0.00    -0.066 SA
BRANCH   9  12
ATOM     12  C   UNL d   1     -51.171  25.830  33.468  0.00  0.00     0.018 A 
ATOM     13  C   UNL d   1     -51.978  25.934  33.502  0.00  0.00     0.002 A 
ATOM     14  C   UNL d   1     -52.481  25.282  33.451  0.00  0.00     0.007 A 
ATOM     15  C   UNL d   1     -52.166  24.524  33.365  0.00  0.00     0.035 A 
ATOM     16  C   UNL d   1     -51.358  24.420  33.331  0.00  0.00     0.007 A 
ATOM     17 BR   UNL d   1     -52.668  23.872  33.314  0.00  0.00    -0.049 Br
ATOM     18  C   UNL d   1     -50.851  25.072  33.382  0.00  0.00     0.002 A 
ENDBRANCH   9  12
ENDBRANCH   6   7
ENDBRANCH   3   6
BRANCH   1  19
ATOM     19  C   UNL d   1     -48.082  30.092  34.973  0.00  0.00     0.082 A 
ATOM     20  C   UNL d   1     -47.505  30.275  35.535  0.00  0.00     0.302 A 
ATOM     21  O   UNL d   1     -47.204  31.041  35.582  0.00  0.00    -0.273 OA
ATOM     22  O   UNL d   1     -47.230  29.692  36.048  0.00  0.00    -0.259 OA
ATOM     23  C   UNL d   1     -47.479  31.626  35.068  0.00  0.00     0.103 A 
ATOM     24  C   UNL d   1     -48.056  31.443  34.506  0.00  0.00     0.023 A 
ATOM     25  C   UNL d   1     -47.178  32.392  35.116  0.00  0.00     0.025 A 
ATOM     26  C   UNL d   1     -48.357  30.676  34.459  0.00  0.00     0.009 A 
ATOM     27  C   UNL d   1     -48.331  32.026  33.993  0.00  0.00     0.002 A 
ATOM     28  C   UNL d   1     -48.030  32.789  34.042  0.00  0.00     0.000 A 
ATOM     29  C   UNL d   1     -47.453  32.972  34.604  0.00  0.00     0.002 A 
ENDBRANCH   1  19
TORSDOF 4
ENDMDL
