MODEL 1
REMARK VINA RESULT:      -9.4      0.000      0.000
REMARK  2 active torsions:
REMARK  status: ('A' for Active; 'I' for Inactive)
REMARK    1  A    between atoms: C_6  and  C_1 
REMARK    2  A    between atoms: C_7  and  C_5 
ROOT
ATOM      1  C   UNL d   1      53.011  30.547  53.314  0.00  0.00     0.169 A 
ATOM      2  C   UNL d   1      53.552  30.927  53.831  0.00  0.00     0.048 A 
ATOM      3  N   UNL d   1      53.001  31.875  53.050  0.00  0.00    -0.148 NA
ATOM      4  N   UNL d   1      52.679  31.130  52.842  0.00  0.00    -0.142 NA
ATOM      5  C   UNL d   1      53.547  31.732  53.671  0.00  0.00     0.105 A 
ENDROOT
BRANCH   5   6
ATOM      6  C   UNL d   1      53.995  32.309  54.049  0.00  0.00     0.019 A 
ATOM      7  C   UNL d   1      53.842  32.494  54.839  0.00  0.00     0.002 A 
ATOM      8  C   UNL d   1      54.288  33.070  55.221  0.00  0.00     0.011 A 
ATOM      9  C   UNL d   1      54.893  33.475  54.834  0.00  0.00     0.058 A 
ATOM     10  C   UNL d   1      55.040  33.286  54.047  0.00  0.00     0.011 A 
ATOM     11 CL   UNL d   1      55.327  34.039  55.211  0.00  0.00    -0.082 Cl
ATOM     12  C   UNL d   1      54.600  32.709  53.650  0.00  0.00     0.002 A 
ENDBRANCH   5   6
BRANCH   1  13
ATOM     13  C   UNL d   1      52.847  29.729  53.292  0.00  0.00     0.231 C 
ATOM     14  O   UNL d   1      52.974  29.247  53.958  0.00  0.00    -0.643 OA
ATOM     15  O   UNL d   1      52.552  29.405  52.581  0.00  0.00    -0.643 OA
ENDBRANCH   1  13
TORSDOF 2
ENDMDL
MODEL 2
REMARK VINA RESULT:      -8.9      2.718      3.694
REMARK  2 active torsions:
REMARK  status: ('A' for Active; 'I' for Inactive)
REMARK    1  A    between atoms: C_6  and  C_1 
REMARK    2  A    between atoms: C_7  and  C_5 
ROOT
ATOM      1  C   UNL d   1      54.506  33.325  54.513  0.00  0.00     0.169 A 
ATOM      2  C   UNL d   1      53.958  32.689  54.512  0.00  0.00     0.048 A 
ATOM      3  N   UNL d   1      54.686  32.602  53.382  0.00  0.00    -0.148 NA
ATOM      4  N   UNL d   1      54.945  33.266  53.823  0.00  0.00    -0.142 NA
ATOM      5  C   UNL d   1      54.067  32.251  53.827  0.00  0.00     0.105 A 
ENDROOT
BRANCH   5   6
ATOM      6  C   UNL d   1      53.647  31.579  53.604  0.00  0.00     0.019 A 
ATOM      7  C   UNL d   1      53.885  30.838  53.879  0.00  0.00     0.002 A 
ATOM      8  C   UNL d   1      53.467  30.164  53.658  0.00  0.00     0.011 A 
ATOM      9  C   UNL d   1      52.809  30.206  53.164  0.00  0.00     0.058 A 
ATOM     10  C   UNL d   1      52.578  30.948  52.893  0.00  0.00     0.011 A 
ATOM     11 CL   UNL d   1      52.403  29.545  52.950  0.00  0.00    -0.082 Cl
ATOM     12  C   UNL d   1      52.988  31.634  53.107  0.00  0.00     0.002 A 
ENDBRANCH   5   6
BRANCH   1  13
ATOM     13  C   UNL d   1      54.582  33.904  55.109  0.00  0.00     0.231 C 
ATOM     14  O   UNL d   1      53.968  34.442  55.266  0.00  0.00    -0.643 OA
ATOM     15  O   UNL d   1      55.294  33.930  55.545  0.00  0.00    -0.643 OA
ENDBRANCH   1  13
TORSDOF 2
ENDMDL
MODEL 3
REMARK VINA RESULT:      -8.6      3.139      3.769
REMARK  2 active torsions:
REMARK  status: ('A' for Active; 'I' for Inactive)
REMARK    1  A    between atoms: C_6  and  C_1 
REMARK    2  A    between atoms: C_7  and  C_5 
ROOT
ATOM      1  C   UNL d   1      54.200  33.345  54.487  0.00  0.00     0.169 A 
ATOM      2  C   UNL d   1      53.436  33.685  54.412  0.00  0.00     0.048 A 
ATOM      3  N   UNL d   1      53.687  32.992  53.284  0.00  0.00    -0.148 NA
ATOM      4  N   UNL d   1      54.346  32.926  53.798  0.00  0.00    -0.142 NA
ATOM      5  C   UNL d   1      53.125  33.471  53.683  0.00  0.00     0.105 A 
ENDROOT
BRANCH   5   6
ATOM      6  C   UNL d   1      52.389  33.684  53.383  0.00  0.00     0.019 A 
ATOM      7  C   UNL d   1      51.738  33.191  53.509  0.00  0.00     0.002 A 
ATOM      8  C   UNL d   1      51.000  33.400  53.211  0.00  0.00     0.011 A 
ATOM      9  C   UNL d   1      50.887  34.097  52.785  0.00  0.00     0.058 A 
ATOM     10  C   UNL d   1      51.541  34.583  52.663  0.00  0.00     0.011 A 
ATOM     11 CL   UNL d   1      50.164  34.299  52.495  0.00  0.00    -0.082 Cl
ATOM     12  C   UNL d   1      52.288  34.386  52.956  0.00  0.00     0.002 A 
ENDBRANCH   5   6
BRANCH   1  13
ATOM     13  C   UNL d   1      54.708  33.426  55.144  0.00  0.00     0.231 C 
ATOM     14  O   UNL d   1      55.324  33.985  55.145  0.00  0.00    -0.643 OA
ATOM     15  O   UNL d   1      54.582  32.929  55.803  0.00  0.00    -0.643 OA
ENDBRANCH   1  13
TORSDOF 2
ENDMDL
MODEL 4
REMARK VINA RESULT:      -8.6      1.503      1.573
REMARK  2 active torsions:
REMARK  status: ('A' for Active; 'I' for Inactive)
REMARK    1  A    between atoms: C_6  and  C_1 
REMARK    2  A    between atoms: C_7  and  C_5 
ROOT
ATOM      1  C   UNL d   1      52.970  30.843  53.218  0.00  0.00     0.169 A 
ATOM      2  C   UNL d   1      53.074  31.527  53.694  0.00  0.00     0.048 A 
ATOM      3  N   UNL d   1      52.706  31.937  52.465  0.00  0.00    -0.148 NA
ATOM      4  N   UNL d   1      52.746  31.100  52.472  0.00  0.00    -0.142 NA
ATOM      5  C   UNL d   1      52.914  32.190  53.238  0.00  0.00     0.105 A 
ENDROOT
BRANCH   5   6
ATOM      6  C   UNL d   1      52.949  32.974  53.485  0.00  0.00     0.019 A 
ATOM      7  C   UNL d   1      52.342  33.495  53.282  0.00  0.00     0.002 A 
ATOM      8  C   UNL d   1      52.372  34.280  53.527  0.00  0.00     0.011 A 
ATOM      9  C   UNL d   1      53.000  34.567  53.977  0.00  0.00     0.058 A 
ATOM     10  C   UNL d   1      53.602  34.042  54.177  0.00  0.00     0.011 A 
ATOM     11 CL   UNL d   1      53.028  35.335  54.216  0.00  0.00    -0.082 Cl
ATOM     12  C   UNL d   1      53.585  33.251  53.937  0.00  0.00     0.002 A 
ENDBRANCH   5   6
BRANCH   1  13
ATOM     13  C   UNL d   1      53.076  30.053  53.466  0.00  0.00     0.231 C 
ATOM     14  O   UNL d   1      53.815  29.784  53.738  0.00  0.00    -0.643 OA
ATOM     15  O   UNL d   1      52.420  29.538  53.434  0.00  0.00    -0.643 OA
ENDBRANCH   1  13
TORSDOF 2
ENDMDL
MODEL 5
REMARK VINA RESULT:      -8.5      3.039      3.852
REMARK  2 active torsions:
REMARK  status: ('A' for Active; 'I' for Inactive)
REMARK    1  A    between atoms: C_6  and  C_1 
REMARK    2  A    between atoms: C_7  and  C_5 
ROOT
ATOM      1  C   UNL d   1      53.047  34.590  54.148  0.00  0.00     0.169 A 
ATOM      2  C   UNL d   1      53.132  33.766  54.284  0.00  0.00     0.048 A 
ATOM      3  N   UNL d   1      52.870  33.939  52.973  0.00  0.00    -0.148 NA
ATOM      4  N   UNL d   1      52.888  34.687  53.349  0.00  0.00    -0.142 NA
ATOM      5  C   UNL d   1      53.026  33.371  53.572  0.00  0.00     0.105 A 
ENDROOT
BRANCH   5   6
ATOM      6  C   UNL d   1      53.062  32.557  53.453  0.00  0.00     0.019 A 
ATOM      7  C   UNL d   1      52.464  32.179  53.029  0.00  0.00     0.002 A 
ATOM      8  C   UNL d   1      52.496  31.365  52.908  0.00  0.00     0.011 A 
ATOM      9  C   UNL d   1      53.117  30.909  53.202  0.00  0.00     0.058 A 
ATOM     10  C   UNL d   1      53.710  31.294  53.624  0.00  0.00     0.011 A 
ATOM     11 CL   UNL d   1      53.146  30.114  53.082  0.00  0.00    -0.082 Cl
ATOM     12  C   UNL d   1      53.691  32.110  53.753  0.00  0.00     0.002 A 
ENDBRANCH   5   6
BRANCH   1  13
ATOM     13  C   UNL d   1      53.113  35.189  54.724  0.00  0.00     0.231 C 
ATOM     14  O   UNL d   1      53.351  35.014  55.502  0.00  0.00    -0.643 OA
ATOM     15  O   UNL d   1      52.933  35.974  54.500  0.00  0.00    -0.643 OA
ENDBRANCH   1  13
TORSDOF 2
ENDMDL
MODEL 6
REMARK VINA RESULT:      -8.2      2.578      2.888
REMARK  2 active torsions:
REMARK  status: ('A' for Active; 'I' for Inactive)
REMARK    1  A    between atoms: C_6  and  C_1 
REMARK    2  A    between atoms: C_7  and  C_5 
ROOT
ATOM      1  C   UNL d   1      51.571  33.702  52.800  0.00  0.00     0.169 A 
ATOM      2  C   UNL d   1      52.214  34.022  53.235  0.00  0.00     0.048 A 
ATOM      3  N   UNL d   1      52.311  32.679  53.290  0.00  0.00    -0.148 NA
ATOM      4  N   UNL d   1      51.637  32.885  52.838  0.00  0.00    -0.142 NA
ATOM      5  C   UNL d   1      52.663  33.402  53.532  0.00  0.00     0.105 A 
ENDROOT
BRANCH   5   6
ATOM      6  C   UNL d   1      53.344  33.467  53.989  0.00  0.00     0.019 A 
ATOM      7  C   UNL d   1      53.355  33.982  54.634  0.00  0.00     0.002 A 
ATOM      8  C   UNL d   1      54.034  34.051  55.095  0.00  0.00     0.011 A 
ATOM      9  C   UNL d   1      54.713  33.613  54.931  0.00  0.00     0.058 A 
ATOM     10  C   UNL d   1      54.694  33.101  54.286  0.00  0.00     0.011 A 
ATOM     11 CL   UNL d   1      55.375  33.682  55.383  0.00  0.00    -0.082 Cl
ATOM     12  C   UNL d   1      54.020  33.023  53.815  0.00  0.00     0.002 A 
ENDBRANCH   5   6
BRANCH   1  13
ATOM     13  C   UNL d   1      50.980  34.141  52.406  0.00  0.00     0.231 C 
ATOM     14  O   UNL d   1      50.299  34.400  52.806  0.00  0.00    -0.643 OA
ATOM     15  O   UNL d   1      51.091  34.314  51.597  0.00  0.00    -0.643 OA
ENDBRANCH   1  13
TORSDOF 2
ENDMDL
MODEL 7
REMARK VINA RESULT:      -6.4      3.821      4.444
REMARK  2 active torsions:
REMARK  status: ('A' for Active; 'I' for Inactive)
REMARK    1  A    between atoms: C_6  and  C_1 
REMARK    2  A    between atoms: C_7  and  C_5 
ROOT
ATOM      1  C   UNL d   1      53.163  33.864  54.093  0.00  0.00     0.169 A 
ATOM      2  C   UNL d   1      52.397  34.147  53.899  0.00  0.00     0.048 A 
ATOM      3  N   UNL d   1      52.851  33.442  52.844  0.00  0.00    -0.148 NA
ATOM      4  N   UNL d   1      53.433  33.437  53.447  0.00  0.00    -0.142 NA
ATOM      5  C   UNL d   1      52.208  33.891  53.142  0.00  0.00     0.105 A 
ENDROOT
BRANCH   5   6
ATOM      6  C   UNL d   1      51.509  34.044  52.735  0.00  0.00     0.019 A 
ATOM      7  C   UNL d   1      51.540  34.369  51.977  0.00  0.00     0.002 A 
ATOM      8  C   UNL d   1      50.844  34.523  51.566  0.00  0.00     0.011 A 
ATOM      9  C   UNL d   1      50.104  34.360  51.893  0.00  0.00     0.058 A 
ATOM     10  C   UNL d   1      50.081  34.036  52.649  0.00  0.00     0.011 A 
ATOM     11 CL   UNL d   1      49.425  34.512  51.488  0.00  0.00    -0.082 Cl
ATOM     12  C   UNL d   1      50.772  33.876  53.073  0.00  0.00     0.002 A 
ENDBRANCH   5   6
BRANCH   1  13
ATOM     13  C   UNL d   1      53.567  33.997  54.811  0.00  0.00     0.231 C 
ATOM     14  O   UNL d   1      53.530  34.735  55.193  0.00  0.00    -0.643 OA
ATOM     15  O   UNL d   1      54.009  33.369  55.138  0.00  0.00    -0.643 OA
ENDBRANCH   1  13
TORSDOF 2
ENDMDL
