MODEL 1
REMARK VINA RESULT:      56.9      0.000      0.000
REMARK  9 active torsions:
REMARK  status: ('A' for Active; 'I' for Inactive)
REMARK    1  A    between atoms: S_3  and  C_1 
REMARK    2  A    between atoms: C_7  and  S_3 
REMARK    3  A    between atoms: N_8  and  C_4 
REMARK    4  A    between atoms: C_19  and  N_8 
REMARK    5  A    between atoms: C_20  and  N_8 
REMARK    6  A    between atoms: O_17  and  C_22 
REMARK    7  A    between atoms: O_18  and  C_21 
REMARK    8  A    between atoms: C_21  and  C_19 
REMARK    9  A    between atoms: C_22  and  C_20 
ROOT
ATOM      1  C   UNL d   1      58.109  49.588  51.329  0.00  0.00     0.187 A 
ATOM      2  N   UNL d   1      58.919  49.516  51.339  0.00  0.00    -0.209 NA
ATOM      3  C   UNL d   1      59.174  49.505  50.551  0.00  0.00     0.181 A 
ATOM      4  S   UNL d   1      58.514  49.571  50.070  0.00  0.00    -0.036 SA
ATOM      5  C   UNL d   1      57.859  49.621  50.555  0.00  0.00     0.118 A 
ATOM      6 CL   UNL d   1      57.037  49.694  50.558  0.00  0.00    -0.073 Cl
ENDROOT
BRANCH   1   7
ATOM      7  S   UNL d   1      57.625  49.621  51.994  0.00  0.00     0.228 S 
ATOM      8  O   UNL d   1      57.952  49.575  52.742  0.00  0.00    -0.216 OA
ATOM      9  O   UNL d   1      56.810  49.701  51.904  0.00  0.00    -0.216 OA
BRANCH   7  10
ATOM     10  C   UNL d   1      57.244  49.643  52.731  0.00  0.00     0.089 A 
ATOM     11  C   UNL d   1      57.699  49.683  53.430  0.00  0.00     0.011 A 
ATOM     12  C   UNL d   1      57.316  49.705  54.164  0.00  0.00     0.001 A 
ATOM     13  C   UNL d   1      56.490  49.686  54.205  0.00  0.00     0.000 A 
ATOM     14  C   UNL d   1      56.034  49.645  53.503  0.00  0.00     0.001 A 
ATOM     15  C   UNL d   1      56.109  49.707  54.930  0.00  0.00     0.000 C 
ATOM     16  C   UNL d   1      56.417  49.624  52.773  0.00  0.00     0.011 A 
ENDBRANCH   7  10
ENDBRANCH   1   7
BRANCH   3  17
ATOM     17  N   UNL d   1      59.988  49.433  50.548  0.00  0.00    -0.280 N 
BRANCH  17  18
ATOM     18  C   UNL d   1      60.410  49.506  51.250  0.00  0.00     0.108 C 
BRANCH  18  19
ATOM     19  C   UNL d   1      61.215  49.687  51.232  0.00  0.00     0.135 C 
BRANCH  19  20
ATOM     20  O   UNL d   1      61.680  49.571  51.902  0.00  0.00    -0.325 OA
ATOM     21  C   UNL d   1      61.475  48.990  52.452  0.00  0.00     0.182 C 
ENDBRANCH  19  20
ENDBRANCH  18  19
ENDBRANCH  17  18
BRANCH  17  22
ATOM     22  C   UNL d   1      60.691  49.308  50.138  0.00  0.00     0.108 C 
BRANCH  22  23
ATOM     23  C   UNL d   1      61.124  48.628  50.266  0.00  0.00     0.135 C 
BRANCH  23  24
ATOM     24  O   UNL d   1      61.248  48.095  49.650  0.00  0.00    -0.325 OA
ATOM     25  C   UNL d   1      61.555  47.352  49.801  0.00  0.00     0.182 C 
ENDBRANCH  23  24
ENDBRANCH  22  23
ENDBRANCH  17  22
ENDBRANCH   3  17
TORSDOF 9
ENDMDL
