MODEL 1
REMARK VINA RESULT:       5.4      0.000      0.000
REMARK  3 active torsions:
REMARK  status: ('A' for Active; 'I' for Inactive)
REMARK       I    between atoms: C_4  and  N_1 
REMARK    1  A    between atoms: N_3  and  C_2 
REMARK    2  A    between atoms: C_9  and  C_4 
REMARK    3  A    between atoms: N_10  and  C_5 
ROOT
ATOM      1  C   UNL d   1     -42.584-122.187 -51.186  0.00  0.00     0.143 A 
ATOM      2  C   UNL d   1     -41.798-122.302 -50.888  0.00  0.00     0.086 A 
ATOM      3  C   UNL d   1     -42.667-121.793 -51.919  0.00  0.00     0.030 A 
ATOM      4  C   UNL d   1     -41.997-121.534 -52.322  0.00  0.00     0.058 A 
ATOM      5  C   UNL d   1     -41.156-122.033 -51.311  0.00  0.00     0.019 A 
ATOM      6  C   UNL d   1     -41.264-121.649 -52.029  0.00  0.00     0.006 A 
ENDROOT
BRANCH   4   7
ATOM      7  C   UNL d   1     -42.114-121.147 -53.045  0.00  0.00     0.265 C 
ATOM      8  N   UNL d   1     -41.942-121.569 -53.753  0.00  0.00    -0.275 N 
ATOM      9  C   UNL d   1     -42.024-121.278 -54.520  0.00  0.00     0.067 A 
ATOM     10  C   UNL d   1     -41.663-122.346 -53.795  0.00  0.00     0.067 A 
ATOM     11  C   UNL d   1     -41.802-121.856 -55.023  0.00  0.00     0.019 A 
ATOM     12  C   UNL d   1     -42.336-120.367 -54.981  0.00  0.00     0.019 C 
ATOM     13  C   UNL d   1     -41.574-122.529 -54.595  0.00  0.00     0.018 A 
ATOM     14  C   UNL d   1     -41.300-123.276 -54.813  0.00  0.00     0.002 A 
ATOM     15  C   UNL d   1     -41.123-123.817 -54.236  0.00  0.00     0.000 A 
ATOM     16  C   UNL d   1     -41.209-123.643 -53.446  0.00  0.00     0.002 A 
ATOM     17  C   UNL d   1     -41.482-122.899 -53.220  0.00  0.00     0.018 A 
ATOM     18  O   UNL d   1     -42.393-120.364 -53.090  0.00  0.00    -0.267 OA
ENDBRANCH   4   7
BRANCH   1  19
ATOM     19  N   UNL d   1     -43.244-122.459 -50.757  0.00  0.00    -0.112 N 
ATOM     20  O   UNL d   1     -43.421-123.288 -50.727  0.00  0.00    -0.532 OA
ATOM     21  O   UNL d   1     -43.737-121.928 -50.354  0.00  0.00    -0.532 OA
ENDBRANCH   1  19
BRANCH   2  22
ATOM     22  N   UNL d   1     -41.692-122.691 -50.160  0.00  0.00    -0.302 N 
ATOM     23  C   UNL d   1     -42.030-123.449 -50.006  0.00  0.00     0.080 A 
ATOM     24  C   UNL d   1     -41.913-123.817 -49.277  0.00  0.00     0.019 A 
ATOM     25  C   UNL d   1     -41.468-123.452 -48.695  0.00  0.00     0.003 A 
ATOM     26  C   UNL d   1     -41.123-122.705 -48.820  0.00  0.00     0.019 A 
ATOM     27  C   UNL d   1     -41.239-122.334 -49.548  0.00  0.00     0.080 A 
ENDBRANCH   2  22
TORSDOF 3
ENDMDL
MODEL 2
REMARK VINA RESULT:       7.0      1.486      4.467
REMARK  3 active torsions:
REMARK  status: ('A' for Active; 'I' for Inactive)
REMARK       I    between atoms: C_4  and  N_1 
REMARK    1  A    between atoms: N_3  and  C_2 
REMARK    2  A    between atoms: C_9  and  C_4 
REMARK    3  A    between atoms: N_10  and  C_5 
ROOT
ATOM      1  C   UNL d   1     -42.009-123.042 -52.867  0.00  0.00     0.143 A 
ATOM      2  C   UNL d   1     -41.884-122.211 -52.990  0.00  0.00     0.086 A 
ATOM      3  C   UNL d   1     -41.960-123.329 -52.082  0.00  0.00     0.030 A 
ATOM      4  C   UNL d   1     -41.796-122.809 -51.466  0.00  0.00     0.058 A 
ATOM      5  C   UNL d   1     -41.723-121.724 -52.357  0.00  0.00     0.019 A 
ATOM      6  C   UNL d   1     -41.681-122.030 -51.597  0.00  0.00     0.006 A 
ENDROOT
BRANCH   4   7
ATOM      7  C   UNL d   1     -41.754-123.126 -50.702  0.00  0.00     0.265 C 
ATOM      8  N   UNL d   1     -42.372-122.940 -50.161  0.00  0.00    -0.275 N 
ATOM      9  C   UNL d   1     -42.425-123.203 -49.382  0.00  0.00     0.067 A 
ATOM     10  C   UNL d   1     -43.027-122.463 -50.324  0.00  0.00     0.067 A 
ATOM     11  C   UNL d   1     -43.094-122.898 -49.070  0.00  0.00     0.019 A 
ATOM     12  C   UNL d   1     -41.852-123.817 -48.722  0.00  0.00     0.019 C 
ATOM     13  C   UNL d   1     -43.484-122.436 -49.636  0.00  0.00     0.018 A 
ATOM     14  C   UNL d   1     -44.181-121.996 -49.629  0.00  0.00     0.002 A 
ATOM     15  C   UNL d   1     -44.406-121.599 -50.299  0.00  0.00     0.000 A 
ATOM     16  C   UNL d   1     -43.961-121.622 -50.980  0.00  0.00     0.002 A 
ATOM     17  C   UNL d   1     -43.263-122.059 -50.995  0.00  0.00     0.018 A 
ATOM     18  O   UNL d   1     -41.127-123.616 -50.458  0.00  0.00    -0.267 OA
ENDBRANCH   4   7
BRANCH   1  19
ATOM     19  N   UNL d   1     -42.174-123.546 -53.510  0.00  0.00    -0.112 N 
ATOM     20  O   UNL d   1     -42.971-123.788 -53.668  0.00  0.00    -0.532 OA
ATOM     21  O   UNL d   1     -41.565-123.817 -54.003  0.00  0.00    -0.532 OA
ENDBRANCH   1  19
BRANCH   2  22
ATOM     22  N   UNL d   1     -41.928-121.904 -53.762  0.00  0.00    -0.302 N 
ATOM     23  C   UNL d   1     -42.661-121.664 -54.105  0.00  0.00     0.080 A 
ATOM     24  C   UNL d   1     -42.681-121.362 -54.873  0.00  0.00     0.019 A 
ATOM     25  C   UNL d   1     -41.993-121.291 -55.310  0.00  0.00     0.003 A 
ATOM     26  C   UNL d   1     -41.257-121.521 -54.995  0.00  0.00     0.019 A 
ATOM     27  C   UNL d   1     -41.233-121.823 -54.228  0.00  0.00     0.080 A 
ENDBRANCH   2  22
TORSDOF 3
ENDMDL
