MODEL 1
REMARK VINA RESULT:     109.3      0.000      0.000
REMARK  5 active torsions:
REMARK  status: ('A' for Active; 'I' for Inactive)
REMARK    1  A    between atoms: S_5  and  C_2 
REMARK    2  A    between atoms: C_12  and  S_5 
REMARK    3  A    between atoms: N_11  and  C_8 
REMARK    4  A    between atoms: C_19  and  N_11 
REMARK    5  A    between atoms: C_32  and  C_26 
ROOT
ATOM      1  C   UNL d   1     -58.454 -99.089 -43.957  0.00  0.00     0.197 A 
ATOM      2  C   UNL d   1     -59.177 -99.128 -43.565  0.00  0.00     0.227 A 
ATOM      3  N   UNL d   1     -58.605 -98.987 -44.764  0.00  0.00    -0.192 N 
ATOM      4  N   UNL d   1     -57.673 -99.132 -43.684  0.00  0.00    -0.206 NA
ATOM      5  N   UNL d   1     -59.784 -99.051 -44.132  0.00  0.00    -0.115 NA
ATOM      6  N   UNL d   1     -59.423 -98.964 -44.874  0.00  0.00    -0.058 NA
ATOM      7  C   UNL d   1     -57.037 -99.074 -44.217  0.00  0.00     0.166 A 
ATOM      8  C   UNL d   1     -57.197 -98.973 -45.022  0.00  0.00     0.054 A 
ATOM      9  C   UNL d   1     -57.972 -98.929 -45.302  0.00  0.00     0.089 A 
ATOM     10  C   UNL d   1     -58.128 -98.828 -46.106  0.00  0.00     0.020 A 
ATOM     11  C   UNL d   1     -56.569 -98.914 -45.562  0.00  0.00     0.016 A 
ATOM     12  C   UNL d   1     -56.723 -98.813 -46.366  0.00  0.00     0.058 A 
ATOM     13  C   UNL d   1     -57.501 -98.770 -46.638  0.00  0.00     0.013 A 
ATOM     14 CL   UNL d   1     -56.094 -98.756 -46.896  0.00  0.00    -0.082 Cl
ENDROOT
BRANCH   2  15
ATOM     15  S   UNL d   1     -59.293 -99.226 -42.755  0.00  0.00     0.231 S 
ATOM     16  O   UNL d   1     -58.628 -98.777 -42.574  0.00  0.00    -0.215 OA
ATOM     17  O   UNL d   1     -59.958 -99.676 -42.940  0.00  0.00    -0.215 OA
BRANCH  15  18
ATOM     18  C   UNL d   1     -59.462 -99.360 -41.960  0.00  0.00     0.090 A 
ATOM     19  C   UNL d   1     -59.766-100.075 -41.715  0.00  0.00     0.011 A 
ATOM     20  C   UNL d   1     -59.934-100.209 -40.924  0.00  0.00     0.001 A 
ATOM     21  C   UNL d   1     -59.792 -99.608 -40.368  0.00  0.00     0.000 A 
ATOM     22  C   UNL d   1     -59.484 -98.882 -40.619  0.00  0.00     0.001 A 
ATOM     23  C   UNL d   1     -59.318 -98.756 -41.409  0.00  0.00     0.011 A 
BRANCH  21  24
ATOM     24  C   UNL d   1     -59.959 -99.738 -39.579  0.00  0.00     0.000 C 
ATOM     25  C   UNL d   1     -59.928-100.503 -39.264  0.00  0.00     0.000 C 
ENDBRANCH  21  24
ENDBRANCH  15  18
ENDBRANCH   2  15
BRANCH   7  26
ATOM     26  N   UNL d   1     -56.259 -99.117 -43.946  0.00  0.00    -0.227 NA
BRANCH  26  27
ATOM     27  C   UNL d   1     -55.923 -99.853 -43.775  0.00  0.00     0.083 A 
ATOM     28  C   UNL d   1     -55.477 -99.954 -43.091  0.00  0.00     0.021 A 
ATOM     29  C   UNL d   1     -55.142-100.682 -42.918  0.00  0.00     0.031 A 
ATOM     30  C   UNL d   1     -55.254-101.320 -43.440  0.00  0.00     0.140 A 
ATOM     31  C   UNL d   1     -55.707-101.213 -44.133  0.00  0.00     0.031 A 
ATOM     32  F   UNL d   1     -54.919-102.047 -43.268  0.00  0.00    -0.204 F 
ATOM     33  C   UNL d   1     -56.035-100.478 -44.290  0.00  0.00     0.021 A 
ENDBRANCH  26  27
ENDBRANCH   7  26
TORSDOF 5
ENDMDL
