MODEL 1
REMARK VINA RESULT:      44.6      0.000      0.000
REMARK  4 active torsions:
REMARK  status: ('A' for Active; 'I' for Inactive)
REMARK    1  A    between atoms: C_9  and  N_1 
REMARK    2  A    between atoms: C_2  and  C_9 
REMARK    3  A    between atoms: S_13  and  C_5 
REMARK    4  A    between atoms: C_17  and  S_13 
ROOT
ATOM      1  N   UNL d   1     -55.579 -99.840 -44.087  0.00  0.00    -0.265 N 
ATOM      2  C   UNL d   1     -55.012 -99.733 -43.495  0.00  0.00     0.296 A 
ATOM      3  S   UNL d   1     -54.713-100.474 -43.301  0.00  0.00    -0.025 SA
ATOM      4  C   UNL d   1     -55.634-100.637 -44.261  0.00  0.00     0.074 A 
ATOM      5  C   UNL d   1     -55.101-101.037 -43.779  0.00  0.00     0.050 A 
ATOM      6  O   UNL d   1     -54.789 -99.015 -43.162  0.00  0.00    -0.259 OA
ATOM      7  C   UNL d   1     -56.101-101.064 -44.799  0.00  0.00     0.018 A 
ATOM      8  C   UNL d   1     -55.029-101.859 -43.828  0.00  0.00     0.008 A 
ATOM      9  C   UNL d   1     -56.032-101.885 -44.851  0.00  0.00     0.002 A 
ATOM     10  C   UNL d   1     -55.490-102.277 -44.358  0.00  0.00     0.001 A 
ENDROOT
BRANCH   1  11
ATOM     11  C   UNL d   1     -56.021 -99.244 -44.448  0.00  0.00     0.123 C 
BRANCH  11  12
ATOM     12  C   UNL d   1     -56.788 -99.096 -44.212  0.00  0.00     0.189 A 
ATOM     13  N   UNL d   1     -57.385 -99.048 -44.768  0.00  0.00    -0.265 N 
ATOM     14  C   UNL d   1     -58.090 -98.897 -44.371  0.00  0.00     0.201 A 
ATOM     15  C   UNL d   1     -57.311 -99.134 -45.584  0.00  0.00     0.103 C 
ATOM     16  N   UNL d   1     -57.925 -98.851 -43.567  0.00  0.00    -0.121 NA
ATOM     17  N   UNL d   1     -57.118 -98.975 -43.472  0.00  0.00    -0.126 NA
BRANCH  14  18
ATOM     18  S   UNL d   1     -58.832 -98.806 -44.716  0.00  0.00    -0.048 SA
BRANCH  18  19
ATOM     19  C   UNL d   1     -58.932 -98.898 -45.529  0.00  0.00     0.038 C 
ATOM     20  C   UNL d   1     -59.666 -98.756 -45.879  0.00  0.00     0.008 C 
ENDBRANCH  18  19
ENDBRANCH  14  18
ENDBRANCH  11  12
ENDBRANCH   1  11
TORSDOF 4
ENDMDL
