MODEL 1
REMARK VINA RESULT:      67.2      0.000      0.000
REMARK  5 active torsions:
REMARK  status: ('A' for Active; 'I' for Inactive)
REMARK    1  A    between atoms: N_6  and  C_1 
REMARK    2  A    between atoms: C_11  and  N_2 
REMARK    3  A    between atoms: S_3  and  C_10 
REMARK    4  A    between atoms: N_8  and  S_3 
REMARK       I    between atoms: C_9  and  N_6 
REMARK    5  A    between atoms: C_15  and  C_9 
ROOT
ATOM      1  N   UNL d   1      14.106  13.760  -3.409  0.00  0.00    -0.189 NA
ATOM      2  C   UNL d   1      13.543  14.252  -3.658  0.00  0.00     0.281 C 
ATOM      3  O   UNL d   1      12.776  14.003  -3.501  0.00  0.00    -0.265 OA
ENDROOT
BRANCH   2   4
ATOM      4  C   UNL d   1      13.689  14.972  -4.051  0.00  0.00     0.058 A 
ATOM      5  C   UNL d   1      14.278  15.385  -3.889  0.00  0.00     0.005 A 
ATOM      6  C   UNL d   1      14.423  16.064  -4.253  0.00  0.00     0.013 A 
ATOM      7  C   UNL d   1      13.888  16.316  -4.842  0.00  0.00     0.104 A 
ATOM      8  C   UNL d   1      13.292  15.836  -4.963  0.00  0.00     0.013 A 
ATOM      9  C   UNL d   1      13.161  15.159  -4.589  0.00  0.00     0.005 A 
BRANCH   7  10
ATOM     10  S   UNL d   1      14.039  17.044  -5.236  0.00  0.00     0.271 S 
ATOM     11  O   UNL d   1      14.422  17.332  -4.619  0.00  0.00    -0.200 OA
ATOM     12  O   UNL d   1      13.623  16.745  -5.921  0.00  0.00    -0.200 OA
BRANCH  10  13
ATOM     13  N   UNL d   1      14.218  17.770  -5.562  0.00  0.00    -0.229 N 
ATOM     14  C   UNL d   1      14.647  18.345  -5.186  0.00  0.00     0.092 A 
ATOM     15  C   UNL d   1      14.691  18.995  -5.734  0.00  0.00     0.021 A 
ATOM     16  C   UNL d   1      14.311  18.806  -6.386  0.00  0.00     0.021 A 
ATOM     17  C   UNL d   1      14.005  18.050  -6.309  0.00  0.00     0.092 A 
ENDBRANCH  10  13
ENDBRANCH   7  10
ENDBRANCH   2   4
BRANCH   1  18
ATOM     18  C   UNL d   1      14.060  13.040  -3.019  0.00  0.00     0.165 A 
ATOM     19  N   UNL d   1      13.838  12.301  -3.189  0.00  0.00    -0.238 N 
ATOM     20  N   UNL d   1      13.889  11.780  -2.630  0.00  0.00    -0.168 NA
ATOM     21  C   UNL d   1      14.182  12.189  -1.983  0.00  0.00     0.111 A 
ATOM     22  C   UNL d   1      14.294  12.967  -2.201  0.00  0.00     0.062 A 
ATOM     23  C   UNL d   1      14.420  12.142  -1.175  0.00  0.00     0.056 A 
ATOM     24  C   UNL d   1      14.598  13.408  -1.544  0.00  0.00     0.040 A 
ATOM     25  S   UNL d   1      14.673  12.877  -0.899  0.00  0.00    -0.084 SA
BRANCH  19  26
ATOM     26  C   UNL d   1      13.551  12.047  -3.932  0.00  0.00     0.088 C 
ATOM     27  C   UNL d   1      12.769  11.957  -3.618  0.00  0.00     0.025 C 
ATOM     28  C   UNL d   1      14.345  12.135  -4.262  0.00  0.00     0.025 C 
ATOM     29  C   UNL d   1      13.283  11.784  -4.721  0.00  0.00     0.025 C 
ENDBRANCH  19  26
ENDBRANCH   1  18
TORSDOF 5
ENDMDL
MODEL 2
REMARK VINA RESULT:      67.4      1.041      1.461
REMARK  5 active torsions:
REMARK  status: ('A' for Active; 'I' for Inactive)
REMARK    1  A    between atoms: N_6  and  C_1 
REMARK    2  A    between atoms: C_11  and  N_2 
REMARK    3  A    between atoms: S_3  and  C_10 
REMARK    4  A    between atoms: N_8  and  S_3 
REMARK       I    between atoms: C_9  and  N_6 
REMARK    5  A    between atoms: C_15  and  C_9 
ROOT
ATOM      1  N   UNL d   1      14.367  13.678  -2.497  0.00  0.00    -0.189 NA
ATOM      2  C   UNL d   1      14.379  14.433  -2.273  0.00  0.00     0.281 C 
ATOM      3  O   UNL d   1      14.287  14.554  -1.465  0.00  0.00    -0.265 OA
ENDROOT
BRANCH   2   4
ATOM      4  C   UNL d   1      14.475  15.076  -2.794  0.00  0.00     0.058 A 
ATOM      5  C   UNL d   1      14.230  15.046  -3.490  0.00  0.00     0.005 A 
ATOM      6  C   UNL d   1      14.316  15.645  -3.987  0.00  0.00     0.013 A 
ATOM      7  C   UNL d   1      14.699  16.334  -3.711  0.00  0.00     0.104 A 
ATOM      8  C   UNL d   1      14.931  16.299  -2.973  0.00  0.00     0.013 A 
ATOM      9  C   UNL d   1      14.837  15.690  -2.487  0.00  0.00     0.005 A 
BRANCH   7  10
ATOM     10  S   UNL d   1      14.794  16.980  -4.241  0.00  0.00     0.271 S 
ATOM     11  O   UNL d   1      14.945  17.475  -3.656  0.00  0.00    -0.200 OA
ATOM     12  O   UNL d   1      14.631  16.452  -4.894  0.00  0.00    -0.200 OA
BRANCH  10  13
ATOM     13  N   UNL d   1      14.899  17.646  -4.701  0.00  0.00    -0.229 N 
ATOM     14  C   UNL d   1      14.315  17.987  -5.147  0.00  0.00     0.092 A 
ATOM     15  C   UNL d   1      14.678  18.658  -5.526  0.00  0.00     0.021 A 
ATOM     16  C   UNL d   1      15.425  18.700  -5.311  0.00  0.00     0.021 A 
ATOM     17  C   UNL d   1      15.592  18.083  -4.798  0.00  0.00     0.092 A 
ENDBRANCH  10  13
ENDBRANCH   7  10
ENDBRANCH   2   4
BRANCH   1  18
ATOM     18  C   UNL d   1      14.278  12.988  -2.062  0.00  0.00     0.165 A 
ATOM     19  N   UNL d   1      13.944  12.279  -2.161  0.00  0.00    -0.238 N 
ATOM     20  N   UNL d   1      13.998  11.780  -1.583  0.00  0.00    -0.168 NA
ATOM     21  C   UNL d   1      14.419  12.173  -1.000  0.00  0.00     0.111 A 
ATOM     22  C   UNL d   1      14.601  12.919  -1.275  0.00  0.00     0.062 A 
ATOM     23  C   UNL d   1      14.747  12.129  -0.224  0.00  0.00     0.056 A 
ATOM     24  C   UNL d   1      15.038  13.343  -0.685  0.00  0.00     0.040 A 
ATOM     25  S   UNL d   1      15.125  12.834  -0.024  0.00  0.00    -0.084 SA
BRANCH  19  26
ATOM     26  C   UNL d   1      13.537  12.034  -2.849  0.00  0.00     0.088 C 
ATOM     27  C   UNL d   1      14.262  11.997  -3.285  0.00  0.00     0.025 C 
ATOM     28  C   UNL d   1      12.791  12.069  -2.413  0.00  0.00     0.025 C 
ATOM     29  C   UNL d   1      13.081  11.779  -3.550  0.00  0.00     0.025 C 
ENDBRANCH  19  26
ENDBRANCH   1  18
TORSDOF 5
ENDMDL
