MODEL 1
REMARK VINA RESULT:      28.5      0.000      0.000
REMARK  2 active torsions:
REMARK  status: ('A' for Active; 'I' for Inactive)
REMARK    1  A    between atoms: C_6  and  C_4 
REMARK    2  A    between atoms: C_7  and  C_5 
ROOT
ATOM      1  O   UNL d   1     -57.193-100.017 -44.065  0.00  0.00    -0.268 OA
ATOM      2  N   UNL d   1     -56.980 -98.760 -44.480  0.00  0.00    -0.121 NA
ATOM      3  N   UNL d   1     -56.258 -99.168 -44.529  0.00  0.00    -0.121 NA
ATOM      4  C   UNL d   1     -56.394 -99.942 -44.272  0.00  0.00     0.204 A 
ATOM      5  C   UNL d   1     -57.545 -99.278 -44.198  0.00  0.00     0.204 A 
ENDROOT
BRANCH   4   6
ATOM      6  C   UNL d   1     -55.827-100.548 -44.227  0.00  0.00     0.046 A 
ATOM      7  C   UNL d   1     -55.269-100.552 -43.624  0.00  0.00     0.024 A 
ATOM      8  C   UNL d   1     -54.716-101.148 -43.583  0.00  0.00     0.099 A 
ATOM      9  N   UNL d   1     -54.714-101.750 -44.147  0.00  0.00    -0.242 NA
ATOM     10  C   UNL d   1     -55.265-101.756 -44.753  0.00  0.00     0.099 A 
ATOM     11  C   UNL d   1     -55.825-101.150 -44.791  0.00  0.00     0.024 A 
ENDBRANCH   4   6
BRANCH   5  12
ATOM     12  C   UNL d   1     -58.347 -99.102 -44.063  0.00  0.00     0.043 A 
ATOM     13  C   UNL d   1     -58.610 -98.928 -43.303  0.00  0.00     0.004 A 
ATOM     14  C   UNL d   1     -59.400 -98.755 -43.172  0.00  0.00     0.000 A 
ATOM     15  C   UNL d   1     -59.930 -98.755 -43.805  0.00  0.00     0.000 A 
ATOM     16  C   UNL d   1     -59.668 -98.929 -44.566  0.00  0.00     0.000 A 
ATOM     17  C   UNL d   1     -58.872 -99.103 -44.696  0.00  0.00     0.004 A 
ENDBRANCH   5  12
TORSDOF 2
ENDMDL
