MODEL 1
REMARK VINA RESULT:      59.9      0.000      0.000
REMARK  5 active torsions:
REMARK  status: ('A' for Active; 'I' for Inactive)
REMARK    1  A    between atoms: C_2  and  C_1 
REMARK    2  A    between atoms: O_16  and  C_12 
REMARK    3  A    between atoms: C_21  and  C_14 
REMARK    4  A    between atoms: C_17  and  O_16 
REMARK    5  A    between atoms: C_24  and  C_21 
ROOT
ATOM      1  C   UNL d   1     -54.773-101.455 -41.451  0.00  0.00     0.086 A 
ATOM      2  C   UNL d   1     -54.750-100.682 -41.725  0.00  0.00     0.201 A 
ATOM      3  C   UNL d   1     -54.766-100.541 -42.557  0.00  0.00     0.062 A 
ATOM      4  C   UNL d   1     -54.811-102.086 -41.973  0.00  0.00     0.105 A 
ATOM      5  C   UNL d   1     -54.806-101.190 -43.094  0.00  0.00     0.105 A 
ATOM      6  O   UNL d   1     -54.828-101.962 -42.783  0.00  0.00    -0.307 OA
ATOM      7  C   UNL d   1     -54.743 -99.769 -42.830  0.00  0.00     0.007 A 
ATOM      8  C   UNL d   1     -54.821-101.049 -43.888  0.00  0.00     0.050 A 
ATOM      9  C   UNL d   1     -54.798-100.277 -44.162  0.00  0.00     0.105 A 
ATOM     10  C   UNL d   1     -54.759 -99.646 -43.641  0.00  0.00     0.023 A 
ATOM     11  O   UNL d   1     -54.711-100.070 -41.188  0.00  0.00    -0.286 OA
ATOM     12  C   UNL d   1     -54.835-102.872 -41.681  0.00  0.00     0.027 C 
ENDROOT
BRANCH   1  13
ATOM     13  C   UNL d   1     -54.758-101.615 -40.642  0.00  0.00     0.116 A 
ATOM     14  N   UNL d   1     -54.757-102.328 -40.208  0.00  0.00    -0.238 NA
ATOM     15  C   UNL d   1     -54.738-102.149 -39.411  0.00  0.00     0.088 A 
ATOM     16  C   UNL d   1     -54.731-102.688 -38.773  0.00  0.00     0.021 C 
ATOM     17  C   UNL d   1     -54.727-101.358 -39.330  0.00  0.00     0.056 A 
ATOM     18  S   UNL d   1     -54.739-101.006 -40.095  0.00  0.00    -0.066 SA
ENDBRANCH   1  13
BRANCH  10  19
ATOM     19  C   UNL d   1     -54.737 -98.862 -43.974  0.00  0.00     0.002 C 
BRANCH  19  20
ATOM     20  C   UNL d   1     -54.882 -98.757 -44.792  0.00  0.00     0.000 C 
ATOM     21  C   UNL d   1     -55.653 -98.774 -45.085  0.00  0.00     0.000 C 
ENDBRANCH  19  20
ENDBRANCH  10  19
BRANCH   9  22
ATOM     22  O   UNL d   1     -54.814-100.139 -44.990  0.00  0.00    -0.273 OA
BRANCH  22  23
ATOM     23  C   UNL d   1     -55.191-100.708 -45.487  0.00  0.00     0.300 C 
ATOM     24  O   UNL d   1     -55.909-100.516 -45.796  0.00  0.00    -0.259 OA
ATOM     25  C   UNL d   1     -54.800-101.449 -45.635  0.00  0.00     0.074 C 
ENDBRANCH  22  23
ENDBRANCH   9  22
TORSDOF 5
ENDMDL
MODEL 2
REMARK VINA RESULT:      61.9      1.839      4.487
REMARK  5 active torsions:
REMARK  status: ('A' for Active; 'I' for Inactive)
REMARK    1  A    between atoms: C_2  and  C_1 
REMARK    2  A    between atoms: O_16  and  C_12 
REMARK    3  A    between atoms: C_21  and  C_14 
REMARK    4  A    between atoms: C_17  and  O_16 
REMARK    5  A    between atoms: C_24  and  C_21 
ROOT
ATOM      1  C   UNL d   1     -55.193-100.875 -43.934  0.00  0.00     0.086 A 
ATOM      2  C   UNL d   1     -55.134-100.618 -43.158  0.00  0.00     0.201 A 
ATOM      3  C   UNL d   1     -55.028-101.189 -42.544  0.00  0.00     0.062 A 
ATOM      4  C   UNL d   1     -55.151-101.673 -44.119  0.00  0.00     0.105 A 
ATOM      5  C   UNL d   1     -54.986-102.009 -42.734  0.00  0.00     0.105 A 
ATOM      6  O   UNL d   1     -55.049-102.236 -43.533  0.00  0.00    -0.307 OA
ATOM      7  C   UNL d   1     -54.969-100.932 -41.768  0.00  0.00     0.007 A 
ATOM      8  C   UNL d   1     -54.885-102.550 -42.144  0.00  0.00     0.050 A 
ATOM      9  C   UNL d   1     -54.826-102.294 -41.367  0.00  0.00     0.105 A 
ATOM     10  C   UNL d   1     -54.867-101.496 -41.182  0.00  0.00     0.023 A 
ATOM     11  O   UNL d   1     -55.178 -99.821 -42.997  0.00  0.00    -0.286 OA
ATOM     12  C   UNL d   1     -55.213-101.924 -44.918  0.00  0.00     0.027 C 
ENDROOT
BRANCH   1  13
ATOM     13  C   UNL d   1     -55.296-100.335 -44.549  0.00  0.00     0.116 A 
ATOM     14  N   UNL d   1     -55.895 -99.779 -44.718  0.00  0.00    -0.238 NA
ATOM     15  C   UNL d   1     -55.704 -99.390 -45.410  0.00  0.00     0.088 A 
ATOM     16  C   UNL d   1     -56.144 -98.789 -45.789  0.00  0.00     0.021 C 
ATOM     17  C   UNL d   1     -55.014 -99.679 -45.680  0.00  0.00     0.056 A 
ATOM     18  S   UNL d   1     -54.743-100.274 -45.150  0.00  0.00    -0.066 SA
ENDBRANCH   1  13
BRANCH  10  19
ATOM     19  C   UNL d   1     -54.800-101.280 -40.361  0.00  0.00     0.002 C 
BRANCH  19  20
ATOM     20  C   UNL d   1     -54.843-100.474 -40.141  0.00  0.00     0.000 C 
ATOM     21  C   UNL d   1     -54.870-100.259 -39.345  0.00  0.00     0.000 C 
ENDBRANCH  19  20
ENDBRANCH  10  19
BRANCH   9  22
ATOM     22  O   UNL d   1     -54.721-102.863 -40.759  0.00  0.00    -0.273 OA
BRANCH  22  23
ATOM     23  C   UNL d   1     -55.164-102.776 -40.045  0.00  0.00     0.300 C 
ATOM     24  O   UNL d   1     -55.967-102.758 -40.105  0.00  0.00    -0.259 OA
ATOM     25  C   UNL d   1     -54.747-102.713 -39.306  0.00  0.00     0.074 C 
ENDBRANCH  22  23
ENDBRANCH   9  22
TORSDOF 5
ENDMDL
