MODEL 1
REMARK VINA RESULT:       0.1      0.000      0.000
REMARK  1 active torsions:
REMARK  status: ('A' for Active; 'I' for Inactive)
REMARK    1  A    between atoms: O_8  and  C_4 
ROOT
ATOM      1  C   UNL d   1      23.785  12.981  -0.675  0.00  0.00     0.021 A 
ATOM      2  C   UNL d   1      24.275  13.135  -1.320  0.00  0.00     0.024 A 
ATOM      3  C   UNL d   1      23.289  12.321  -0.669  0.00  0.00     0.103 A 
ATOM      4  C   UNL d   1      24.275  12.631  -1.965  0.00  0.00     0.094 A 
ATOM      5  C   UNL d   1      23.285  11.810  -1.318  0.00  0.00     0.023 A 
ATOM      6  C   UNL d   1      23.776  11.964  -1.963  0.00  0.00     0.026 A 
ATOM      7  N   UNL d   1      22.800  12.178  -0.015  0.00  0.00    -0.148 N 
ATOM      8  C   UNL d   1      23.786  13.489  -0.027  0.00  0.00     0.002 A 
ATOM      9  C   UNL d   1      24.765  13.796  -1.314  0.00  0.00     0.002 A 
ATOM     10  C   UNL d   1      24.278  14.153  -0.021  0.00  0.00     0.000 A 
ATOM     11  C   UNL d   1      24.768  14.307  -0.666  0.00  0.00     0.000 A 
ENDROOT
BRANCH   4  12
ATOM     12  O   UNL d   1      24.768  12.785  -2.613  0.00  0.00    -0.328 OA
ATOM     13  C   UNL d   1      24.768  12.281  -3.259  0.00  0.00     0.181 C 
ENDBRANCH   4  12
TORSDOF 1
ENDMDL
