MODEL 1
REMARK VINA RESULT:       2.9      0.000      0.000
REMARK  0 active torsions:
REMARK  status: ('A' for Active; 'I' for Inactive)
ROOT
ATOM      1  C   UNL d   1     -53.007  23.668  33.339  0.00  0.00     0.311 A 
ATOM      2  N   UNL d   1     -52.820  24.477  33.336  0.00  0.00    -0.202 NA
ATOM      3  S   UNL d   1     -52.306  23.237  33.331  0.00  0.00    -0.024 SA
ATOM      4  C   UNL d   1     -51.991  24.541  33.326  0.00  0.00     0.091 A 
ATOM      5  C   UNL d   1     -51.674  23.778  33.323  0.00  0.00     0.052 A 
ATOM      6  O   UNL d   1     -53.775  23.349  33.349  0.00  0.00    -0.258 OA
ATOM      7  C   UNL d   1     -51.490  25.196  33.319  0.00  0.00     0.020 A 
ATOM      8  C   UNL d   1     -50.856  23.670  33.313  0.00  0.00     0.008 A 
ATOM      9  C   UNL d   1     -50.354  24.326  33.306  0.00  0.00     0.001 A 
ATOM     10  C   UNL d   1     -50.671  25.089  33.309  0.00  0.00     0.002 A 
ENDROOT
TORSDOF 0
ENDMDL
MODEL 2
REMARK VINA RESULT:       3.7      1.721      2.474
REMARK  0 active torsions:
REMARK  status: ('A' for Active; 'I' for Inactive)
ROOT
ATOM      1  C   UNL d   1     -50.832  25.135  33.320  0.00  0.00     0.311 A 
ATOM      2  N   UNL d   1     -50.817  24.304  33.311  0.00  0.00    -0.202 NA
ATOM      3  S   UNL d   1     -51.617  25.381  33.332  0.00  0.00    -0.024 SA
ATOM      4  C   UNL d   1     -51.606  24.040  33.318  0.00  0.00     0.091 A 
ATOM      5  C   UNL d   1     -52.098  24.703  33.331  0.00  0.00     0.052 A 
ATOM      6  O   UNL d   1     -50.165  25.631  33.318  0.00  0.00    -0.258 OA
ATOM      7  C   UNL d   1     -51.933  23.283  33.313  0.00  0.00     0.020 A 
ATOM      8  C   UNL d   1     -52.918  24.609  33.340  0.00  0.00     0.008 A 
ATOM      9  C   UNL d   1     -53.245  23.851  33.335  0.00  0.00     0.001 A 
ATOM     10  C   UNL d   1     -52.753  23.188  33.322  0.00  0.00     0.002 A 
ENDROOT
TORSDOF 0
ENDMDL
