MODEL 1
REMARK VINA RESULT:      35.4      0.000      0.000
REMARK  4 active torsions:
REMARK  status: ('A' for Active; 'I' for Inactive)
REMARK    1  A    between atoms: N_4  and  C_1 
REMARK    2  A    between atoms: N_9  and  N_4 
REMARK    3  A    between atoms: C_8  and  C_7 
REMARK    4  A    between atoms: C_10  and  N_9 
ROOT
ATOM      1  N   UNL d   1     -57.158 -98.756 -43.869  0.00  0.00    -0.146 NA
ENDROOT
BRANCH   1   2
ATOM      2  C   UNL d   1     -57.980 -98.770 -43.931  0.00  0.00     0.122 A 
ATOM      3  C   UNL d   1     -58.440 -98.786 -44.626  0.00  0.00     0.101 A 
ATOM      4  N   UNL d   1     -59.217 -98.795 -44.441  0.00  0.00    -0.244 NA
ATOM      5  C   UNL d   1     -58.159 -98.791 -45.369  0.00  0.00     0.022 C 
ATOM      6  C   UNL d   1     -59.290 -98.786 -43.636  0.00  0.00     0.083 A 
ATOM      7  C   UNL d   1     -58.508 -98.769 -43.297  0.00  0.00     0.039 A 
ATOM      8  C   UNL d   1     -59.923 -98.789 -43.126  0.00  0.00     0.019 A 
ATOM      9  C   UNL d   1     -58.408 -98.757 -42.461  0.00  0.00     0.003 A 
ATOM     10  C   UNL d   1     -59.081 -98.760 -41.965  0.00  0.00     0.000 A 
ATOM     11  C   UNL d   1     -59.826 -98.777 -42.317  0.00  0.00     0.002 A 
ENDBRANCH   1   2
BRANCH   1  12
ATOM     12  N   UNL d   1     -56.731 -99.472 -43.828  0.00  0.00    -0.148 NA
BRANCH  12  13
ATOM     13  C   UNL d   1     -56.049 -99.621 -44.292  0.00  0.00     0.109 A 
ATOM     14  C   UNL d   1     -55.697-100.352 -44.300  0.00  0.00     0.084 A 
ATOM     15  C   UNL d   1     -55.026-100.484 -44.763  0.00  0.00     0.008 A 
ATOM     16  C   UNL d   1     -54.714 -99.842 -45.227  0.00  0.00     0.000 A 
ATOM     17  C   UNL d   1     -55.095 -99.092 -45.204  0.00  0.00     0.002 A 
ATOM     18  C   UNL d   1     -55.767 -99.009 -44.724  0.00  0.00     0.021 A 
BRANCH  14  19
ATOM     19  C   UNL d   1     -56.006-100.959 -43.850  0.00  0.00     0.212 C 
ATOM     20  O   UNL d   1     -55.639-101.209 -43.162  0.00  0.00    -0.644 OA
ATOM     21  O   UNL d   1     -56.704-101.351 -44.067  0.00  0.00    -0.644 OA
ENDBRANCH  14  19
ENDBRANCH  12  13
ENDBRANCH   1  12
TORSDOF 4
ENDMDL
