MODEL 1
REMARK VINA RESULT:      -4.8      0.000      0.000
REMARK  5 active torsions:
REMARK  status: ('A' for Active; 'I' for Inactive)
REMARK    1  A    between atoms: N_5  and  C_3 
REMARK    2  A    between atoms: O_13  and  C_4 
REMARK       I    between atoms: C_6  and  N_5 
REMARK    3  A    between atoms: C_9  and  C_6 
REMARK    4  A    between atoms: O_14  and  C_7 
REMARK    5  A    between atoms: O_18  and  C_15 
ROOT
ATOM      1  N   UNL d   1      57.979  -0.541  30.940  0.00  0.00    -0.189 NA
ATOM      2  C   UNL d   1      57.303  -0.055  30.986  0.00  0.00     0.281 C 
ATOM      3  O   UNL d   1      57.095   0.439  30.337  0.00  0.00    -0.265 OA
ENDROOT
BRANCH   1   4
ATOM      4  C   UNL d   1      58.442  -0.534  30.256  0.00  0.00     0.173 A 
ATOM      5  N   UNL d   1      58.360  -1.135  29.687  0.00  0.00    -0.186 NA
ATOM      6  C   UNL d   1      58.824  -1.121  29.009  0.00  0.00     0.273 A 
ATOM      7  N   UNL d   1      59.372  -0.499  28.907  0.00  0.00    -0.181 NA
ATOM      8  C   UNL d   1      59.451   0.074  29.451  0.00  0.00     0.185 A 
ATOM      9  C   UNL d   1      58.988   0.075  30.144  0.00  0.00     0.083 A 
BRANCH   6  10
ATOM     10  O   UNL d   1      58.744  -1.702  28.459  0.00  0.00    -0.297 OA
ATOM     11  C   UNL d   1      58.878  -2.479  28.651  0.00  0.00     0.185 C 
ENDBRANCH   6  10
BRANCH   8  12
ATOM     12  O   UNL d   1      60.007   0.682  29.321  0.00  0.00    -0.312 OA
ATOM     13  C   UNL d   1      60.804   0.541  29.529  0.00  0.00     0.183 C 
ENDBRANCH   8  12
ENDBRANCH   1   4
BRANCH   2  14
ATOM     14  C   UNL d   1      56.849  -0.072  31.674  0.00  0.00     0.058 A 
ATOM     15  C   UNL d   1      56.610   0.629  32.044  0.00  0.00     0.007 A 
ATOM     16  C   UNL d   1      56.173   0.614  32.706  0.00  0.00     0.024 A 
ATOM     17  C   UNL d   1      55.937  -0.110  33.054  0.00  0.00     0.094 A 
ATOM     18  C   UNL d   1      56.170  -0.814  32.693  0.00  0.00     0.024 A 
ATOM     19  C   UNL d   1      56.623  -0.776  32.007  0.00  0.00     0.007 A 
BRANCH  17  20
ATOM     20  O   UNL d   1      55.489  -0.135  33.734  0.00  0.00    -0.328 OA
ATOM     21  C   UNL d   1      54.858   0.362  33.824  0.00  0.00     0.181 C 
ENDBRANCH  17  20
ENDBRANCH   2  14
TORSDOF 5
ENDMDL
MODEL 2
REMARK VINA RESULT:      -4.7      0.386      1.557
REMARK  5 active torsions:
REMARK  status: ('A' for Active; 'I' for Inactive)
REMARK    1  A    between atoms: N_5  and  C_3 
REMARK    2  A    between atoms: O_13  and  C_4 
REMARK       I    between atoms: C_6  and  N_5 
REMARK    3  A    between atoms: C_9  and  C_6 
REMARK    4  A    between atoms: O_14  and  C_7 
REMARK    5  A    between atoms: O_18  and  C_15 
ROOT
ATOM      1  N   UNL d   1      58.083  -0.471  30.909  0.00  0.00    -0.189 NA
ATOM      2  C   UNL d   1      57.358  -0.059  30.933  0.00  0.00     0.281 C 
ATOM      3  O   UNL d   1      57.072   0.329  30.242  0.00  0.00    -0.265 OA
ENDROOT
BRANCH   1   4
ATOM      4  C   UNL d   1      58.517  -0.495  30.207  0.00  0.00     0.173 A 
ATOM      5  N   UNL d   1      59.047   0.118  30.019  0.00  0.00    -0.186 NA
ATOM      6  C   UNL d   1      59.475   0.088  29.319  0.00  0.00     0.273 A 
ATOM      7  N   UNL d   1      59.368  -0.564  28.808  0.00  0.00    -0.181 NA
ATOM      8  C   UNL d   1      58.862  -1.150  28.987  0.00  0.00     0.185 A 
ATOM      9  C   UNL d   1      58.420  -1.134  29.693  0.00  0.00     0.083 A 
BRANCH   6  10
ATOM     10  O   UNL d   1      59.988   0.680  29.138  0.00  0.00    -0.297 OA
ATOM     11  C   UNL d   1      60.751   0.669  29.414  0.00  0.00     0.185 C 
ENDBRANCH   6  10
BRANCH   8  12
ATOM     12  O   UNL d   1      58.776  -1.787  28.456  0.00  0.00    -0.312 OA
ATOM     13  C   UNL d   1      59.255  -2.462  28.568  0.00  0.00     0.183 C 
ENDBRANCH   8  12
ENDBRANCH   1   4
BRANCH   2  14
ATOM     14  C   UNL d   1      56.934  -0.043  31.640  0.00  0.00     0.058 A 
ATOM     15  C   UNL d   1      56.833   0.663  32.059  0.00  0.00     0.007 A 
ATOM     16  C   UNL d   1      56.426   0.680  32.740  0.00  0.00     0.024 A 
ATOM     17  C   UNL d   1      56.083  -0.016  33.058  0.00  0.00     0.094 A 
ATOM     18  C   UNL d   1      56.178  -0.724  32.647  0.00  0.00     0.024 A 
ATOM     19  C   UNL d   1      56.605  -0.719  31.943  0.00  0.00     0.007 A 
BRANCH  17  20
ATOM     20  O   UNL d   1      55.663  -0.007  33.756  0.00  0.00    -0.328 OA
ATOM     21  C   UNL d   1      54.890   0.227  33.763  0.00  0.00     0.181 C 
ENDBRANCH  17  20
ENDBRANCH   2  14
TORSDOF 5
ENDMDL
MODEL 3
REMARK VINA RESULT:      -2.7      1.564      4.722
REMARK  5 active torsions:
REMARK  status: ('A' for Active; 'I' for Inactive)
REMARK    1  A    between atoms: N_5  and  C_3 
REMARK    2  A    between atoms: O_13  and  C_4 
REMARK       I    between atoms: C_6  and  N_5 
REMARK    3  A    between atoms: C_9  and  C_6 
REMARK    4  A    between atoms: O_14  and  C_7 
REMARK    5  A    between atoms: O_18  and  C_15 
ROOT
ATOM      1  N   UNL d   1      57.178   0.467  31.775  0.00  0.00    -0.189 NA
ATOM      2  C   UNL d   1      57.331  -0.235  31.352  0.00  0.00     0.281 C 
ATOM      3  O   UNL d   1      57.080  -0.977  31.661  0.00  0.00    -0.265 OA
ENDROOT
BRANCH   1   4
ATOM      4  C   UNL d   1      56.780   0.429  32.498  0.00  0.00     0.173 A 
ATOM      5  N   UNL d   1      55.968   0.248  32.522  0.00  0.00    -0.186 NA
ATOM      6  C   UNL d   1      55.579   0.213  33.245  0.00  0.00     0.273 A 
ATOM      7  N   UNL d   1      56.012   0.361  33.944  0.00  0.00    -0.181 NA
ATOM      8  C   UNL d   1      56.786   0.534  33.921  0.00  0.00     0.185 A 
ATOM      9  C   UNL d   1      57.196   0.574  33.197  0.00  0.00     0.083 A 
BRANCH   6  10
ATOM     10  O   UNL d   1      54.795   0.038  33.268  0.00  0.00    -0.297 OA
ATOM     11  C   UNL d   1      54.312   0.364  33.833  0.00  0.00     0.185 C 
ENDBRANCH   6  10
BRANCH   8  12
ATOM     12  O   UNL d   1      57.191   0.676  34.637  0.00  0.00    -0.312 OA
ATOM     13  C   UNL d   1      58.018   0.561  34.654  0.00  0.00     0.183 C 
ENDBRANCH   8  12
ENDBRANCH   1   4
BRANCH   2  14
ATOM     14  C   UNL d   1      57.729  -0.184  30.631  0.00  0.00     0.058 A 
ATOM     15  C   UNL d   1      58.093  -0.848  30.298  0.00  0.00     0.007 A 
ATOM     16  C   UNL d   1      58.477  -0.800  29.605  0.00  0.00     0.024 A 
ATOM     17  C   UNL d   1      58.525  -0.076  29.185  0.00  0.00     0.094 A 
ATOM     18  C   UNL d   1      58.165   0.591  29.509  0.00  0.00     0.024 A 
ATOM     19  C   UNL d   1      57.773   0.519  30.229  0.00  0.00     0.007 A 
BRANCH  17  20
ATOM     20  O   UNL d   1      58.917  -0.018  28.473  0.00  0.00    -0.328 OA
ATOM     21  C   UNL d   1      59.721   0.059  28.455  0.00  0.00     0.181 C 
ENDBRANCH  17  20
ENDBRANCH   2  14
TORSDOF 5
ENDMDL
MODEL 4
REMARK VINA RESULT:      -1.8      1.641      4.946
REMARK  5 active torsions:
REMARK  status: ('A' for Active; 'I' for Inactive)
REMARK    1  A    between atoms: N_5  and  C_3 
REMARK    2  A    between atoms: O_13  and  C_4 
REMARK       I    between atoms: C_6  and  N_5 
REMARK    3  A    between atoms: C_9  and  C_6 
REMARK    4  A    between atoms: O_14  and  C_7 
REMARK    5  A    between atoms: O_18  and  C_15 
ROOT
ATOM      1  N   UNL d   1      57.058   0.669  31.881  0.00  0.00    -0.189 NA
ATOM      2  C   UNL d   1      57.394  -0.035  31.587  0.00  0.00     0.281 C 
ATOM      3  O   UNL d   1      57.343  -0.746  32.035  0.00  0.00    -0.265 OA
ENDROOT
BRANCH   1   4
ATOM      4  C   UNL d   1      56.675   0.664  32.613  0.00  0.00     0.173 A 
ATOM      5  N   UNL d   1      57.116   0.674  33.318  0.00  0.00    -0.186 NA
ATOM      6  C   UNL d   1      56.729   0.669  34.042  0.00  0.00     0.273 A 
ATOM      7  N   UNL d   1      55.893   0.653  34.054  0.00  0.00    -0.181 NA
ATOM      8  C   UNL d   1      55.472   0.643  33.381  0.00  0.00     0.185 A 
ATOM      9  C   UNL d   1      55.850   0.648  32.638  0.00  0.00     0.083 A 
BRANCH   6  10
ATOM     10  O   UNL d   1      57.155   0.679  34.724  0.00  0.00    -0.297 OA
ATOM     11  C   UNL d   1      57.957   0.553  34.715  0.00  0.00     0.185 C 
ENDBRANCH   6  10
BRANCH   8  12
ATOM     12  O   UNL d   1      54.639   0.627  33.424  0.00  0.00    -0.312 OA
ATOM     13  C   UNL d   1      54.283   0.619  34.179  0.00  0.00     0.183 C 
ENDBRANCH   8  12
ENDBRANCH   1   4
BRANCH   2  14
ATOM     14  C   UNL d   1      57.774  -0.017  30.855  0.00  0.00     0.058 A 
ATOM     15  C   UNL d   1      57.743  -0.666  30.343  0.00  0.00     0.007 A 
ATOM     16  C   UNL d   1      58.108  -0.649  29.638  0.00  0.00     0.024 A 
ATOM     17  C   UNL d   1      58.537   0.025  29.387  0.00  0.00     0.094 A 
ATOM     18  C   UNL d   1      58.574   0.677  29.891  0.00  0.00     0.024 A 
ATOM     19  C   UNL d   1      58.188   0.638  30.617  0.00  0.00     0.007 A 
BRANCH  17  20
ATOM     20  O   UNL d   1      58.915   0.051  28.666  0.00  0.00    -0.328 OA
ATOM     21  C   UNL d   1      59.584  -0.385  28.541  0.00  0.00     0.181 C 
ENDBRANCH  17  20
ENDBRANCH   2  14
TORSDOF 5
ENDMDL
