MODEL 1
REMARK VINA RESULT:      -4.2      0.000      0.000
REMARK  6 active torsions:
REMARK  status: ('A' for Active; 'I' for Inactive)
REMARK    1  A    between atoms: C_10  and  N_1 
REMARK    2  A    between atoms: S_8  and  C_2 
REMARK       I    between atoms: N_7  and  C_9 
REMARK    3  A    between atoms: C_13  and  S_8 
REMARK    4  A    between atoms: C_9  and  C_13 
REMARK    5  A    between atoms: C_21  and  N_11 
REMARK    6  A    between atoms: C_25  and  C_21 
ROOT
ATOM      1  N   UNL d   1      59.790  -1.405  29.114  0.00  0.00    -0.254 N 
ATOM      2  C   UNL d   1      58.989  -1.383  29.289  0.00  0.00     0.182 A 
ATOM      3  C   UNL d   1      60.136  -2.112  28.861  0.00  0.00     0.268 A 
ATOM      4  N   UNL d   1      58.535  -2.068  29.211  0.00  0.00    -0.222 NA
ATOM      5  C   UNL d   1      59.680  -2.796  28.783  0.00  0.00     0.074 A 
ATOM      6  C   UNL d   1      58.879  -2.774  28.958  0.00  0.00     0.088 A 
ATOM      7  O   UNL d   1      60.936  -2.133  28.687  0.00  0.00    -0.267 OA
ATOM      8  C   UNL d   1      60.027  -3.486  28.534  0.00  0.00     0.006 A 
ATOM      9  C   UNL d   1      58.426  -3.443  28.884  0.00  0.00     0.019 A 
ATOM     10  C   UNL d   1      59.571  -4.171  28.456  0.00  0.00     0.000 A 
ATOM     11  C   UNL d   1      58.771  -4.149  28.631  0.00  0.00     0.002 A 
ENDROOT
BRANCH   2  12
ATOM     12  S   UNL d   1      58.627  -0.677  29.546  0.00  0.00    -0.044 SA
BRANCH  12  13
ATOM     13  C   UNL d   1      57.967  -0.730  30.053  0.00  0.00     0.099 C 
BRANCH  13  14
ATOM     14  C   UNL d   1      57.616  -0.023  30.324  0.00  0.00     0.272 C 
ATOM     15  N   UNL d   1      57.214  -0.034  31.055  0.00  0.00    -0.269 N 
ATOM     16  C   UNL d   1      56.874   0.663  31.312  0.00  0.00     0.102 A 
ATOM     17  C   UNL d   1      57.163  -0.723  31.496  0.00  0.00     0.102 A 
ATOM     18  C   UNL d   1      56.471   0.652  32.043  0.00  0.00     0.100 A 
ATOM     19  N   UNL d   1      56.421  -0.038  32.484  0.00  0.00    -0.297 N 
ATOM     20  C   UNL d   1      56.773  -0.730  32.203  0.00  0.00     0.100 A 
ATOM     21  O   UNL d   1      57.667   0.666  29.884  0.00  0.00    -0.266 OA
BRANCH  19  22
ATOM     22  C   UNL d   1      56.008  -0.024  33.221  0.00  0.00     0.126 C 
BRANCH  22  23
ATOM     23  C   UNL d   1      55.294   0.348  33.283  0.00  0.00     0.253 C 
ATOM     24  O   UNL d   1      54.870   0.304  33.989  0.00  0.00    -0.281 OA
ENDBRANCH  22  23
ENDBRANCH  19  22
ENDBRANCH  13  14
ENDBRANCH  12  13
ENDBRANCH   2  12
BRANCH   1  25
ATOM     25  C   UNL d   1      60.232  -0.733  29.192  0.00  0.00     0.069 A 
ATOM     26  C   UNL d   1      60.606  -0.571  29.918  0.00  0.00     0.018 A 
ATOM     27  C   UNL d   1      61.058   0.115  30.002  0.00  0.00     0.002 A 
ATOM     28  C   UNL d   1      61.133   0.632  29.363  0.00  0.00     0.000 A 
ATOM     29  C   UNL d   1      60.766   0.473  28.648  0.00  0.00     0.002 A 
ATOM     30  C   UNL d   1      60.311  -0.214  28.561  0.00  0.00     0.018 A 
ENDBRANCH   1  25
TORSDOF 6
ENDMDL
