MODEL 1
REMARK VINA RESULT:      -3.6      0.000      0.000
REMARK  6 active torsions:
REMARK  status: ('A' for Active; 'I' for Inactive)
REMARK       I    between atoms: C_2  and  N_1 
REMARK    1  A    between atoms: C_3  and  N_1 
REMARK    2  A    between atoms: C_8  and  C_2 
REMARK    3  A    between atoms: C_4  and  C_9 
REMARK    4  A    between atoms: O_10  and  C_4 
REMARK    5  A    between atoms: O_11  and  C_5 
REMARK    6  A    between atoms: C_9  and  C_8 
ROOT
ATOM      1  N   UNL d   1      57.435   0.082  33.336  0.00  0.00    -0.320 N 
ATOM      2  C   UNL d   1      57.865   0.336  32.658  0.00  0.00     0.258 C 
ATOM      3  O   UNL d   1      58.605   0.682  32.745  0.00  0.00    -0.267 OA
ATOM      4  H   UNL d   1      57.753   0.178  34.086  0.00  0.00     0.169 HD
ENDROOT
BRANCH   1   5
ATOM      5  C   UNL d   1      56.677  -0.272  33.235  0.00  0.00     0.082 A 
ATOM      6  C   UNL d   1      56.024   0.030  33.663  0.00  0.00     0.110 A 
ATOM      7  C   UNL d   1      55.274  -0.315  33.567  0.00  0.00     0.026 A 
ATOM      8  C   UNL d   1      55.177  -0.944  33.057  0.00  0.00     0.002 A 
ATOM      9  C   UNL d   1      55.821  -1.241  32.634  0.00  0.00     0.002 A 
ATOM     10  C   UNL d   1      56.561  -0.909  32.722  0.00  0.00     0.019 A 
BRANCH   6  11
ATOM     11  O   UNL d   1      56.132   0.671  34.181  0.00  0.00    -0.327 OA
ATOM     12  C   UNL d   1      55.737   0.682  34.905  0.00  0.00     0.181 C 
ENDBRANCH   6  11
ENDBRANCH   1   5
BRANCH   2  13
ATOM     13  C   UNL d   1      57.542   0.237  31.904  0.00  0.00     0.067 C 
BRANCH  13  14
ATOM     14  C   UNL d   1      57.892   0.608  31.255  0.00  0.00     0.072 C 
BRANCH  14  15
ATOM     15  C   UNL d   1      57.772   0.312  30.497  0.00  0.00     0.178 C 
ATOM     16  O   UNL d   1      57.191   0.641  30.012  0.00  0.00    -0.646 OA
BRANCH  15  17
ATOM     17  O   UNL d   1      58.229  -0.313  30.219  0.00  0.00    -0.773 OA
ATOM     18  H   UNL d   1      58.978  -0.446  30.540  0.00  0.00     0.167 HD
ENDBRANCH  15  17
ENDBRANCH  14  15
ENDBRANCH  13  14
ENDBRANCH   2  13
TORSDOF 6
ENDMDL
MODEL 2
REMARK VINA RESULT:      -3.4      9.237     10.097
REMARK  6 active torsions:
REMARK  status: ('A' for Active; 'I' for Inactive)
REMARK       I    between atoms: C_2  and  N_1 
REMARK    1  A    between atoms: C_3  and  N_1 
REMARK    2  A    between atoms: C_8  and  C_2 
REMARK    3  A    between atoms: C_4  and  C_9 
REMARK    4  A    between atoms: O_10  and  C_4 
REMARK    5  A    between atoms: O_11  and  C_5 
REMARK    6  A    between atoms: C_9  and  C_8 
ROOT
ATOM      1  N   UNL d   1      59.283  -9.813  34.616  0.00  0.00    -0.320 N 
ATOM      2  C   UNL d   1      59.260  -9.254  35.246  0.00  0.00     0.258 C 
ATOM      3  O   UNL d   1      58.742  -9.362  35.875  0.00  0.00    -0.267 OA
ATOM      4  H   UNL d   1      58.788 -10.468  34.628  0.00  0.00     0.169 HD
ENDROOT
BRANCH   1   5
ATOM      5  C   UNL d   1      59.817  -9.692  33.978  0.00  0.00     0.082 A 
ATOM      6  C   UNL d   1      59.523  -9.678  33.194  0.00  0.00     0.110 A 
ATOM      7  C   UNL d   1      60.047  -9.559  32.560  0.00  0.00     0.026 A 
ATOM      8  C   UNL d   1      60.843  -9.456  32.703  0.00  0.00     0.002 A 
ATOM      9  C   UNL d   1      61.133  -9.469  33.475  0.00  0.00     0.002 A 
ATOM     10  C   UNL d   1      60.627  -9.585  34.104  0.00  0.00     0.019 A 
BRANCH   6  11
ATOM     11  O   UNL d   1      58.710  -9.784  33.057  0.00  0.00    -0.327 OA
ATOM     12  C   UNL d   1      58.423  -9.791  32.284  0.00  0.00     0.181 C 
ENDBRANCH   6  11
ENDBRANCH   1   5
BRANCH   2  13
ATOM     13  C   UNL d   1      59.759  -8.595  35.232  0.00  0.00     0.067 C 
BRANCH  13  14
ATOM     14  C   UNL d   1      59.809  -8.102  35.892  0.00  0.00     0.072 C 
BRANCH  14  15
ATOM     15  C   UNL d   1      60.026  -7.315  35.802  0.00  0.00     0.178 C 
ATOM     16  O   UNL d   1      60.708  -7.030  36.167  0.00  0.00    -0.646 OA
BRANCH  15  17
ATOM     17  O   UNL d   1      59.564  -6.806  35.348  0.00  0.00    -0.773 OA
ATOM     18  H   UNL d   1      59.302  -7.048  34.604  0.00  0.00     0.167 HD
ENDBRANCH  15  17
ENDBRANCH  14  15
ENDBRANCH  13  14
ENDBRANCH   2  13
TORSDOF 6
ENDMDL
MODEL 3
REMARK VINA RESULT:      -3.3      1.340      3.644
REMARK  6 active torsions:
REMARK  status: ('A' for Active; 'I' for Inactive)
REMARK       I    between atoms: C_2  and  N_1 
REMARK    1  A    between atoms: C_3  and  N_1 
REMARK    2  A    between atoms: C_8  and  C_2 
REMARK    3  A    between atoms: C_4  and  C_9 
REMARK    4  A    between atoms: O_10  and  C_4 
REMARK    5  A    between atoms: O_11  and  C_5 
REMARK    6  A    between atoms: C_9  and  C_8 
ROOT
ATOM      1  N   UNL d   1      56.684  -1.405  31.893  0.00  0.00    -0.320 N 
ATOM      2  C   UNL d   1      56.183  -1.300  32.561  0.00  0.00     0.258 C 
ATOM      3  O   UNL d   1      55.851  -1.952  32.935  0.00  0.00    -0.267 OA
ATOM      4  H   UNL d   1      56.844  -2.159  31.612  0.00  0.00     0.169 HD
ENDROOT
BRANCH   1   5
ATOM      5  C   UNL d   1      57.018  -0.729  31.518  0.00  0.00     0.082 A 
ATOM      6  C   UNL d   1      57.516  -0.833  30.854  0.00  0.00     0.110 A 
ATOM      7  C   UNL d   1      57.849  -0.169  30.480  0.00  0.00     0.026 A 
ATOM      8  C   UNL d   1      57.689   0.579  30.761  0.00  0.00     0.002 A 
ATOM      9  C   UNL d   1      57.198   0.682  31.416  0.00  0.00     0.002 A 
ATOM     10  C   UNL d   1      56.867   0.036  31.790  0.00  0.00     0.019 A 
BRANCH   6  11
ATOM     11  O   UNL d   1      57.674  -1.600  30.573  0.00  0.00    -0.327 OA
ATOM     12  C   UNL d   1      58.193  -1.705  29.940  0.00  0.00     0.181 C 
ENDBRANCH   6  11
ENDBRANCH   1   5
BRANCH   2  13
ATOM     13  C   UNL d   1      56.023  -0.539  32.842  0.00  0.00     0.067 C 
BRANCH  13  14
ATOM     14  C   UNL d   1      55.350  -0.401  33.299  0.00  0.00     0.072 C 
BRANCH  14  15
ATOM     15  C   UNL d   1      55.366   0.162  33.897  0.00  0.00     0.178 C 
ATOM     16  O   UNL d   1      54.730   0.678  33.997  0.00  0.00    -0.646 OA
BRANCH  15  17
ATOM     17  O   UNL d   1      56.016   0.216  34.400  0.00  0.00    -0.773 OA
ATOM     18  H   UNL d   1      56.381  -0.473  34.670  0.00  0.00     0.167 HD
ENDBRANCH  15  17
ENDBRANCH  14  15
ENDBRANCH  13  14
ENDBRANCH   2  13
TORSDOF 6
ENDMDL
MODEL 4
REMARK VINA RESULT:      -2.9      2.720      4.862
REMARK  6 active torsions:
REMARK  status: ('A' for Active; 'I' for Inactive)
REMARK       I    between atoms: C_2  and  N_1 
REMARK    1  A    between atoms: C_3  and  N_1 
REMARK    2  A    between atoms: C_8  and  C_2 
REMARK    3  A    between atoms: C_4  and  C_9 
REMARK    4  A    between atoms: O_10  and  C_4 
REMARK    5  A    between atoms: O_11  and  C_5 
REMARK    6  A    between atoms: C_9  and  C_8 
ROOT
ATOM      1  N   UNL d   1      58.654  -0.437  28.597  0.00  0.00    -0.320 N 
ATOM      2  C   UNL d   1      58.176  -0.028  29.157  0.00  0.00     0.258 C 
ATOM      3  O   UNL d   1      57.817   0.682  28.952  0.00  0.00    -0.267 OA
ATOM      4  H   UNL d   1      58.763  -0.128  27.844  0.00  0.00     0.169 HD
ENDROOT
BRANCH   1   5
ATOM      5  C   UNL d   1      59.017  -1.163  28.819  0.00  0.00     0.082 A 
ATOM      6  C   UNL d   1      59.852  -1.222  28.814  0.00  0.00     0.110 A 
ATOM      7  C   UNL d   1      60.216  -1.937  29.032  0.00  0.00     0.026 A 
ATOM      8  C   UNL d   1      59.759  -2.577  29.249  0.00  0.00     0.002 A 
ATOM      9  C   UNL d   1      58.937  -2.519  29.254  0.00  0.00     0.002 A 
ATOM     10  C   UNL d   1      58.570  -1.821  29.041  0.00  0.00     0.019 A 
BRANCH   6  11
ATOM     11  O   UNL d   1      60.310  -0.565  28.591  0.00  0.00    -0.327 OA
ATOM     12  C   UNL d   1      61.133  -0.622  28.590  0.00  0.00     0.181 C 
ENDBRANCH   6  11
ENDBRANCH   1   5
BRANCH   2  13
ATOM     13  C   UNL d   1      58.068  -0.340  29.914  0.00  0.00     0.067 C 
BRANCH  13  14
ATOM     14  C   UNL d   1      57.622   0.074  30.471  0.00  0.00     0.072 C 
BRANCH  14  15
ATOM     15  C   UNL d   1      57.577  -0.195  31.246  0.00  0.00     0.178 C 
ATOM     16  O   UNL d   1      56.969  -0.703  31.473  0.00  0.00    -0.646 OA
BRANCH  15  17
ATOM     17  O   UNL d   1      58.139   0.041  31.800  0.00  0.00    -0.773 OA
ATOM     18  H   UNL d   1      58.611   0.700  31.648  0.00  0.00     0.167 HD
ENDBRANCH  15  17
ENDBRANCH  14  15
ENDBRANCH  13  14
ENDBRANCH   2  13
TORSDOF 6
ENDMDL
MODEL 5
REMARK VINA RESULT:      -2.6      1.830      2.496
REMARK  6 active torsions:
REMARK  status: ('A' for Active; 'I' for Inactive)
REMARK       I    between atoms: C_2  and  N_1 
REMARK    1  A    between atoms: C_3  and  N_1 
REMARK    2  A    between atoms: C_8  and  C_2 
REMARK    3  A    between atoms: C_4  and  C_9 
REMARK    4  A    between atoms: O_10  and  C_4 
REMARK    5  A    between atoms: O_11  and  C_5 
REMARK    6  A    between atoms: C_9  and  C_8 
ROOT
ATOM      1  N   UNL d   1      57.315  -1.430  30.893  0.00  0.00    -0.320 N 
ATOM      2  C   UNL d   1      57.941  -1.383  30.332  0.00  0.00     0.258 C 
ATOM      3  O   UNL d   1      58.169  -2.050  29.911  0.00  0.00    -0.267 OA
ATOM      4  H   UNL d   1      56.929  -2.143  31.021  0.00  0.00     0.169 HD
ENDROOT
BRANCH   1   5
ATOM      5  C   UNL d   1      57.091  -0.739  31.319  0.00  0.00     0.082 A 
ATOM      6  C   UNL d   1      56.664  -0.819  32.034  0.00  0.00     0.110 A 
ATOM      7  C   UNL d   1      56.441  -0.140  32.459  0.00  0.00     0.026 A 
ATOM      8  C   UNL d   1      56.638   0.600  32.177  0.00  0.00     0.002 A 
ATOM      9  C   UNL d   1      57.058   0.679  31.472  0.00  0.00     0.002 A 
ATOM     10  C   UNL d   1      57.282   0.018  31.048  0.00  0.00     0.019 A 
BRANCH   6  11
ATOM     11  O   UNL d   1      56.468  -1.577  32.314  0.00  0.00    -0.327 OA
ATOM     12  C   UNL d   1      55.933  -1.656  32.938  0.00  0.00     0.181 C 
ENDBRANCH   6  11
ENDBRANCH   1   5
BRANCH   2  13
ATOM     13  C   UNL d   1      58.329  -0.664  30.205  0.00  0.00     0.067 C 
BRANCH  13  14
ATOM     14  C   UNL d   1      58.858  -0.587  29.576  0.00  0.00     0.072 C 
BRANCH  14  15
ATOM     15  C   UNL d   1      59.481  -0.054  29.625  0.00  0.00     0.178 C 
ATOM     16  O   UNL d   1      59.472   0.635  29.171  0.00  0.00    -0.646 OA
BRANCH  15  17
ATOM     17  O   UNL d   1      60.117  -0.203  30.127  0.00  0.00    -0.773 OA
ATOM     18  H   UNL d   1      60.239   0.281  30.784  0.00  0.00     0.167 HD
ENDBRANCH  15  17
ENDBRANCH  14  15
ENDBRANCH  13  14
ENDBRANCH   2  13
TORSDOF 6
ENDMDL
MODEL 6
REMARK VINA RESULT:      -2.6      3.396      5.225
REMARK  6 active torsions:
REMARK  status: ('A' for Active; 'I' for Inactive)
REMARK       I    between atoms: C_2  and  N_1 
REMARK    1  A    between atoms: C_3  and  N_1 
REMARK    2  A    between atoms: C_8  and  C_2 
REMARK    3  A    between atoms: C_4  and  C_9 
REMARK    4  A    between atoms: O_10  and  C_4 
REMARK    5  A    between atoms: O_11  and  C_5 
REMARK    6  A    between atoms: C_9  and  C_8 
ROOT
ATOM      1  N   UNL d   1      58.657  -1.409  29.169  0.00  0.00    -0.320 N 
ATOM      2  C   UNL d   1      58.875  -2.222  29.198  0.00  0.00     0.258 C 
ATOM      3  O   UNL d   1      58.297  -2.802  29.272  0.00  0.00    -0.267 OA
ATOM      4  H   UNL d   1      57.867  -1.192  29.214  0.00  0.00     0.169 HD
ENDROOT
BRANCH   1   5
ATOM      5  C   UNL d   1      59.258  -0.824  29.093  0.00  0.00     0.082 A 
ATOM      6  C   UNL d   1      59.259  -0.169  29.613  0.00  0.00     0.110 A 
ATOM      7  C   UNL d   1      59.850   0.412  29.543  0.00  0.00     0.026 A 
ATOM      8  C   UNL d   1      60.425   0.341  28.968  0.00  0.00     0.002 A 
ATOM      9  C   UNL d   1      60.423  -0.305  28.455  0.00  0.00     0.002 A 
ATOM     10  C   UNL d   1      59.847  -0.880  28.517  0.00  0.00     0.019 A 
BRANCH   6  11
ATOM     11  O   UNL d   1      58.670  -0.104  30.196  0.00  0.00    -0.327 OA
ATOM     12  C   UNL d   1      58.534   0.623  30.561  0.00  0.00     0.181 C 
ENDBRANCH   6  11
ENDBRANCH   1   5
BRANCH   2  13
ATOM     13  C   UNL d   1      59.671  -2.438  29.152  0.00  0.00     0.067 C 
BRANCH  13  14
ATOM     14  C   UNL d   1      59.884  -3.235  29.179  0.00  0.00     0.072 C 
BRANCH  14  15
ATOM     15  C   UNL d   1      60.668  -3.447  29.304  0.00  0.00     0.178 C 
ATOM     16  O   UNL d   1      61.133  -3.702  28.673  0.00  0.00    -0.646 OA
BRANCH  15  17
ATOM     17  O   UNL d   1      60.994  -3.408  30.060  0.00  0.00    -0.773 OA
ATOM     18  H   UNL d   1      61.576  -3.949  30.282  0.00  0.00     0.167 HD
ENDBRANCH  15  17
ENDBRANCH  14  15
ENDBRANCH  13  14
ENDBRANCH   2  13
TORSDOF 6
ENDMDL
MODEL 7
REMARK VINA RESULT:      -2.5      1.892      4.131
REMARK  6 active torsions:
REMARK  status: ('A' for Active; 'I' for Inactive)
REMARK       I    between atoms: C_2  and  N_1 
REMARK    1  A    between atoms: C_3  and  N_1 
REMARK    2  A    between atoms: C_8  and  C_2 
REMARK    3  A    between atoms: C_4  and  C_9 
REMARK    4  A    between atoms: O_10  and  C_4 
REMARK    5  A    between atoms: O_11  and  C_5 
REMARK    6  A    between atoms: C_9  and  C_8 
ROOT
ATOM      1  N   UNL d   1      59.075   0.656  30.821  0.00  0.00    -0.320 N 
ATOM      2  C   UNL d   1      58.522   0.495  31.435  0.00  0.00     0.258 C 
ATOM      3  O   UNL d   1      58.706   0.678  32.215  0.00  0.00    -0.267 OA
ATOM      4  H   UNL d   1      59.801   0.996  30.998  0.00  0.00     0.169 HD
ENDROOT
BRANCH   1   5
ATOM      5  C   UNL d   1      58.875   0.464  30.026  0.00  0.00     0.082 A 
ATOM      6  C   UNL d   1      59.425   0.043  29.555  0.00  0.00     0.110 A 
ATOM      7  C   UNL d   1      59.232  -0.149  28.770  0.00  0.00     0.026 A 
ATOM      8  C   UNL d   1      58.511   0.072  28.461  0.00  0.00     0.002 A 
ATOM      9  C   UNL d   1      57.969   0.487  28.925  0.00  0.00     0.002 A 
ATOM     10  C   UNL d   1      58.149   0.680  29.698  0.00  0.00     0.019 A 
BRANCH   6  11
ATOM     11  O   UNL d   1      60.158  -0.179  29.878  0.00  0.00    -0.327 OA
ATOM     12  C   UNL d   1      60.766  -0.426  29.378  0.00  0.00     0.181 C 
ENDBRANCH   6  11
ENDBRANCH   1   5
BRANCH   2  13
ATOM     13  C   UNL d   1      57.792   0.152  31.255  0.00  0.00     0.067 C 
BRANCH  13  14
ATOM     14  C   UNL d   1      57.221   0.064  31.843  0.00  0.00     0.072 C 
BRANCH  14  15
ATOM     15  C   UNL d   1      56.747  -0.606  31.861  0.00  0.00     0.178 C 
ATOM     16  O   UNL d   1      55.998  -0.575  32.205  0.00  0.00    -0.646 OA
BRANCH  15  17
ATOM     17  O   UNL d   1      57.015  -1.314  31.535  0.00  0.00    -0.773 OA
ATOM     18  H   UNL d   1      57.063  -1.393  30.715  0.00  0.00     0.167 HD
ENDBRANCH  15  17
ENDBRANCH  14  15
ENDBRANCH  13  14
ENDBRANCH   2  13
TORSDOF 6
ENDMDL
MODEL 8
REMARK VINA RESULT:      -1.5      1.338      2.284
REMARK  6 active torsions:
REMARK  status: ('A' for Active; 'I' for Inactive)
REMARK       I    between atoms: C_2  and  N_1 
REMARK    1  A    between atoms: C_3  and  N_1 
REMARK    2  A    between atoms: C_8  and  C_2 
REMARK    3  A    between atoms: C_4  and  C_9 
REMARK    4  A    between atoms: O_10  and  C_4 
REMARK    5  A    between atoms: O_11  and  C_5 
REMARK    6  A    between atoms: C_9  and  C_8 
ROOT
ATOM      1  N   UNL d   1      57.032   0.259  31.094  0.00  0.00    -0.320 N 
ATOM      2  C   UNL d   1      57.607   0.263  30.479  0.00  0.00     0.258 C 
ATOM      3  O   UNL d   1      57.372   0.210  29.694  0.00  0.00    -0.267 OA
ATOM      4  H   UNL d   1      56.233   0.202  30.912  0.00  0.00     0.169 HD
ENDROOT
BRANCH   1   5
ATOM      5  C   UNL d   1      57.285   0.314  31.895  0.00  0.00     0.082 A 
ATOM      6  C   UNL d   1      56.779   0.040  32.504  0.00  0.00     0.110 A 
ATOM      7  C   UNL d   1      57.024   0.092  33.297  0.00  0.00     0.026 A 
ATOM      8  C   UNL d   1      57.754   0.408  33.478  0.00  0.00     0.002 A 
ATOM      9  C   UNL d   1      58.252   0.677  32.878  0.00  0.00     0.002 A 
ATOM     10  C   UNL d   1      58.020   0.631  32.097  0.00  0.00     0.019 A 
BRANCH   6  11
ATOM     11  O   UNL d   1      56.037  -0.280  32.311  0.00  0.00    -0.327 OA
ATOM     12  C   UNL d   1      55.499  -0.457  32.910  0.00  0.00     0.181 C 
ENDBRANCH   6  11
ENDBRANCH   1   5
BRANCH   2  13
ATOM     13  C   UNL d   1      58.410   0.321  30.665  0.00  0.00     0.067 C 
BRANCH  13  14
ATOM     14  C   UNL d   1      58.962   0.466  30.069  0.00  0.00     0.072 C 
BRANCH  14  15
ATOM     15  C   UNL d   1      59.724   0.167  30.132  0.00  0.00     0.178 C 
ATOM     16  O   UNL d   1      60.365   0.681  30.208  0.00  0.00    -0.646 OA
BRANCH  15  17
ATOM     17  O   UNL d   1      59.854  -0.646  30.119  0.00  0.00    -0.773 OA
ATOM     18  H   UNL d   1      59.432  -1.134  30.634  0.00  0.00     0.167 HD
ENDBRANCH  15  17
ENDBRANCH  14  15
ENDBRANCH  13  14
ENDBRANCH   2  13
TORSDOF 6
ENDMDL
