MODEL 1
REMARK VINA RESULT:      -1.0      0.000      0.000
REMARK  6 active torsions:
REMARK  status: ('A' for Active; 'I' for Inactive)
REMARK    1  A    between atoms: C_9  and  C_2 
REMARK    2  A    between atoms: N_3  and  C_7 
REMARK       I    between atoms: C_8  and  N_14 
REMARK    3  A    between atoms: C_10  and  C_8 
REMARK    4  A    between atoms: C_13  and  C_10 
REMARK    5  A    between atoms: C_19  and  C_13 
REMARK    6  A    between atoms: N_14  and  C_20 
ROOT
ATOM      1  C   UNL d   1     -41.677-122.534 -53.330  0.00  0.00     0.041 A 
ATOM      2  C   UNL d   1     -41.365-123.285 -53.237  0.00  0.00     0.005 A 
ATOM      3  C   UNL d   1     -41.868-122.055 -52.698  0.00  0.00     0.005 A 
ATOM      4  C   UNL d   1     -41.431-123.084 -51.838  0.00  0.00     0.085 A 
ATOM      5  C   UNL d   1     -41.247-123.546 -52.455  0.00  0.00     0.019 A 
ATOM      6  C   UNL d   1     -41.744-122.333 -51.935  0.00  0.00     0.019 A 
ENDROOT
BRANCH   4   7
ATOM      7  N   UNL d   1     -41.296-123.386 -51.083  0.00  0.00    -0.208 NA
ATOM      8  C   UNL d   1     -41.309-122.877 -50.428  0.00  0.00     0.279 C 
ATOM      9  O   UNL d   1     -41.456-122.082 -50.552  0.00  0.00    -0.265 OA
BRANCH   8  10
ATOM     10  C   UNL d   1     -41.174-123.175 -49.669  0.00  0.00     0.062 C 
BRANCH  10  11
ATOM     11  C   UNL d   1     -41.314-122.722 -49.004  0.00  0.00     0.005 C 
BRANCH  11  12
ATOM     12  C   UNL d   1     -41.643-123.056 -48.301  0.00  0.00     0.002 A 
ATOM     13  C   UNL d   1     -42.456-123.191 -48.251  0.00  0.00     0.024 A 
ATOM     14  C   UNL d   1     -42.780-123.525 -47.545  0.00  0.00     0.127 A 
ATOM     15  C   UNL d   1     -42.272-123.709 -46.916  0.00  0.00     0.024 A 
ATOM     16  C   UNL d   1     -41.463-123.566 -46.988  0.00  0.00     0.002 A 
ATOM     17  C   UNL d   1     -41.140-123.239 -47.677  0.00  0.00     0.000 A 
BRANCH  14  18
ATOM     18  N   UNL d   1     -43.585-123.665 -47.478  0.00  0.00    -0.114 N 
ATOM     19  O   UNL d   1     -44.026-123.680 -46.762  0.00  0.00    -0.532 OA
ATOM     20  O   UNL d   1     -44.076-123.815 -48.126  0.00  0.00    -0.532 OA
ENDBRANCH  14  18
ENDBRANCH  11  12
ENDBRANCH  10  11
ENDBRANCH   8  10
ENDBRANCH   4   7
BRANCH   1  21
ATOM     21  C   UNL d   1     -41.799-122.264 -54.106  0.00  0.00     0.182 A 
ATOM     22  N   UNL d   1     -41.333-121.844 -54.651  0.00  0.00    -0.220 NA
ATOM     23  C   UNL d   1     -41.768-121.743 -55.336  0.00  0.00     0.106 A 
ATOM     24  C   UNL d   1     -42.501-122.098 -55.218  0.00  0.00     0.119 A 
ATOM     25  C   UNL d   1     -41.591-121.371 -56.057  0.00  0.00     0.021 A 
ATOM     26  C   UNL d   1     -43.059-122.083 -55.819  0.00  0.00     0.026 A 
ATOM     27  O   UNL d   1     -42.512-122.406 -54.482  0.00  0.00    -0.288 OA
ATOM     28  C   UNL d   1     -42.905-121.724 -56.530  0.00  0.00     0.002 A 
ATOM     29  C   UNL d   1     -42.163-121.359 -56.664  0.00  0.00     0.002 A 
ENDBRANCH   1  21
TORSDOF 6
ENDMDL
