MODEL 1
REMARK VINA RESULT:      41.6      0.000      0.000
REMARK  5 active torsions:
REMARK  status: ('A' for Active; 'I' for Inactive)
REMARK    1  A    between atoms: C_7  and  N_2 
REMARK    2  A    between atoms: C_14  and  C_7 
REMARK    3  A    between atoms: C_8  and  O_16 
REMARK    4  A    between atoms: C_18  and  C_14 
REMARK    5  A    between atoms: O_16  and  C_18 
ROOT
ATOM      1  C   UNL d   1     -49.800  26.218  33.319  0.00  0.00     0.086 C 
ENDROOT
BRANCH   1   2
ATOM      2  N   UNL d   1     -50.596  26.011  33.316  0.00  0.00    -0.268 N 
ATOM      3  C   UNL d   1     -51.230  26.539  33.316  0.00  0.00     0.296 A 
ATOM      4  S   UNL d   1     -51.932  26.089  33.313  0.00  0.00    -0.025 SA
ATOM      5  O   UNL d   1     -51.188  27.361  33.319  0.00  0.00    -0.259 OA
ATOM      6  C   UNL d   1     -51.716  25.292  33.311  0.00  0.00     0.050 A 
ATOM      7  C   UNL d   1     -52.174  24.591  33.307  0.00  0.00     0.008 A 
ATOM      8  C   UNL d   1     -50.898  25.240  33.313  0.00  0.00     0.073 A 
ATOM      9  C   UNL d   1     -51.799  23.859  33.306  0.00  0.00     0.001 A 
ATOM     10  C   UNL d   1     -50.971  23.817  33.308  0.00  0.00     0.002 A 
ATOM     11  C   UNL d   1     -50.518  24.507  33.311  0.00  0.00     0.018 A 
ENDBRANCH   1   2
BRANCH   1  12
ATOM     12  C   UNL d   1     -49.547  26.909  33.705  0.00  0.00     0.046 C 
BRANCH  12  13
ATOM     13  C   UNL d   1     -48.752  27.018  33.894  0.00  0.00     0.124 C 
BRANCH  13  14
ATOM     14  O   UNL d   1     -48.519  27.673  34.328  0.00  0.00    -0.305 OA
BRANCH  14  15
ATOM     15  C   UNL d   1     -48.280  28.335  34.764  0.00  0.00     0.100 A 
ATOM     16  C   UNL d   1     -48.260  29.061  34.401  0.00  0.00     0.025 A 
ATOM     17  C   UNL d   1     -48.022  29.731  34.831  0.00  0.00     0.002 A 
ATOM     18  C   UNL d   1     -47.807  29.651  35.626  0.00  0.00     0.000 A 
ATOM     19  C   UNL d   1     -47.831  28.908  35.984  0.00  0.00     0.002 A 
ATOM     20  C   UNL d   1     -47.571  30.308  36.055  0.00  0.00     0.000 C 
ATOM     21  C   UNL d   1     -48.066  28.252  35.555  0.00  0.00     0.025 A 
ENDBRANCH  14  15
ENDBRANCH  13  14
ENDBRANCH  12  13
ENDBRANCH   1  12
TORSDOF 5
ENDMDL
