MODEL 1
REMARK VINA RESULT:      51.1      0.000      0.000
REMARK  6 active torsions:
REMARK  status: ('A' for Active; 'I' for Inactive)
REMARK    1  A    between atoms: C_10  and  C_2 
REMARK    2  A    between atoms: C_14  and  N_3 
REMARK    3  A    between atoms: C_15  and  C_4 
REMARK    4  A    between atoms: N_5  and  C_9 
REMARK       I    between atoms: C_7  and  N_8 
REMARK    5  A    between atoms: C_13  and  C_7 
REMARK    6  A    between atoms: N_8  and  C_10 
ROOT
ATOM      1  N   UNL d   1      45.308 -17.425  44.829  0.00  0.00    -0.165 NA
ATOM      2  C   UNL d   1      46.174 -17.663  43.710  0.00  0.00     0.071 A 
ATOM      3  N   UNL d   1      45.637 -16.355  43.993  0.00  0.00    -0.228 N 
ATOM      4  C   UNL d   1      45.775 -17.934  44.361  0.00  0.00     0.105 A 
ATOM      5  C   UNL d   1      46.103 -16.864  43.525  0.00  0.00     0.105 A 
ENDROOT
BRANCH   2   6
ATOM      6  C   UNL d   1      46.647 -18.179  43.235  0.00  0.00     0.168 C 
BRANCH   6   7
ATOM      7  N   UNL d   1      46.327 -18.581  42.587  0.00  0.00    -0.362 NA
ATOM      8  C   UNL d   1      46.010 -18.983  41.946  0.00  0.00     0.328 C 
ATOM      9  O   UNL d   1      45.905 -19.802  41.973  0.00  0.00    -0.251 OA
BRANCH   8  10
ATOM     10  C   UNL d   1      45.794 -18.565  41.270  0.00  0.00     0.070 A 
ATOM     11  C   UNL d   1      46.329 -18.491  40.644  0.00  0.00     0.008 A 
ATOM     12  C   UNL d   1      46.116 -18.070  39.960  0.00  0.00     0.024 A 
ATOM     13  C   UNL d   1      45.373 -17.728  39.909  0.00  0.00     0.127 A 
ATOM     14  C   UNL d   1      44.833 -17.797  40.530  0.00  0.00     0.024 A 
ATOM     15  C   UNL d   1      45.052 -18.223  41.219  0.00  0.00     0.008 A 
BRANCH  13  16
ATOM     16  N   UNL d   1      45.157 -17.307  39.230  0.00  0.00    -0.114 N 
ATOM     17  O   UNL d   1      44.357 -17.222  39.049  0.00  0.00    -0.532 OA
ATOM     18  O   UNL d   1      45.733 -16.979  38.742  0.00  0.00    -0.532 OA
ENDBRANCH  13  16
ENDBRANCH   8  10
ENDBRANCH   6   7
ENDBRANCH   2   6
BRANCH   4  19
ATOM     19  C   UNL d   1      45.843 -18.741  44.552  0.00  0.00     0.019 A 
ATOM     20  C   UNL d   1      45.157 -19.142  44.761  0.00  0.00     0.002 A 
ATOM     21  C   UNL d   1      45.216 -19.942  44.952  0.00  0.00     0.000 A 
ATOM     22  C   UNL d   1      45.972 -20.329  44.929  0.00  0.00     0.000 A 
ATOM     23  C   UNL d   1      46.644 -19.916  44.719  0.00  0.00     0.000 A 
ATOM     24  C   UNL d   1      46.595 -19.127  44.529  0.00  0.00     0.002 A 
ENDBRANCH   4  19
BRANCH   3  25
ATOM     25  C   UNL d   1      45.443 -15.546  43.976  0.00  0.00     0.083 A 
ATOM     26  C   UNL d   1      44.636 -15.297  43.980  0.00  0.00     0.019 A 
ATOM     27  C   UNL d   1      44.439 -14.495  43.963  0.00  0.00     0.002 A 
ATOM     28  C   UNL d   1      45.044 -13.943  43.941  0.00  0.00     0.000 A 
ATOM     29  C   UNL d   1      45.846 -14.202  43.937  0.00  0.00     0.002 A 
ATOM     30  C   UNL d   1      46.045 -15.000  43.954  0.00  0.00     0.019 A 
ENDBRANCH   3  25
TORSDOF 6
ENDMDL
