MODEL 1
REMARK VINA RESULT:      53.6      0.000      0.000
REMARK  6 active torsions:
REMARK  status: ('A' for Active; 'I' for Inactive)
REMARK    1  A    between atoms: C_7  and  N_1 
REMARK    2  A    between atoms: C_9  and  C_7 
REMARK    3  A    between atoms: C_10  and  C_9 
REMARK       I    between atoms: N_13  and  C_10 
REMARK    4  A    between atoms: C_15  and  N_13 
REMARK    5  A    between atoms: C_18  and  C_15 
REMARK    6  A    between atoms: C_17  and  C_18 
ROOT
ATOM      1  C   UNL d   1      59.869  49.655  50.384  0.00  0.00     0.090 C 
ENDROOT
BRANCH   1   2
ATOM      2  N   UNL d   1      59.039  49.669  50.429  0.00  0.00    -0.249 N 
ATOM      3  C   UNL d   1      58.670  49.685  51.158  0.00  0.00     0.208 A 
ATOM      4  N   UNL d   1      57.847  49.698  51.214  0.00  0.00    -0.218 NA
ATOM      5  S   UNL d   1      59.120  49.688  51.852  0.00  0.00    -0.038 SA
ATOM      6  C   UNL d   1      57.399  49.694  50.517  0.00  0.00     0.088 A 
ATOM      7  C   UNL d   1      57.770  49.678  49.782  0.00  0.00     0.074 A 
ATOM      8  C   UNL d   1      56.575  49.707  50.563  0.00  0.00     0.019 A 
ATOM      9  C   UNL d   1      58.594  49.665  49.738  0.00  0.00     0.268 A 
ATOM     10  C   UNL d   1      57.320  49.675  49.091  0.00  0.00     0.006 A 
ATOM     11  O   UNL d   1      58.967  49.649  49.003  0.00  0.00    -0.267 OA
ATOM     12  C   UNL d   1      56.496  49.688  49.136  0.00  0.00     0.000 A 
ATOM     13  C   UNL d   1      56.123  49.704  49.865  0.00  0.00     0.002 A 
ENDBRANCH   1   2
BRANCH   1  14
ATOM     14  C   UNL d   1      60.307  49.421  51.038  0.00  0.00     0.082 C 
BRANCH  14  15
ATOM     15  C   UNL d   1      60.839  48.789  50.978  0.00  0.00     0.281 C 
ATOM     16  O   UNL d   1      61.394  48.672  51.573  0.00  0.00    -0.265 OA
ATOM     17  N   UNL d   1      60.805  48.291  50.327  0.00  0.00    -0.206 NA
BRANCH  17  18
ATOM     18  C   UNL d   1      61.342  47.652  50.266  0.00  0.00     0.102 C 
BRANCH  18  19
ATOM     19  C   UNL d   1      61.373  47.195  49.588  0.00  0.00     0.021 C 
BRANCH  19  20
ATOM     20  C   UNL d   1      61.647  46.438  49.615  0.00  0.00     0.002 A 
ATOM     21  C   UNL d   1      61.380  45.906  50.195  0.00  0.00     0.000 A 
ATOM     22  C   UNL d   1      61.661  45.129  50.222  0.00  0.00     0.000 A 
ATOM     23  C   UNL d   1      62.213  44.854  49.677  0.00  0.00     0.000 A 
ATOM     24  C   UNL d   1      62.480  45.388  49.097  0.00  0.00     0.000 A 
ATOM     25  C   UNL d   1      62.205  46.170  49.060  0.00  0.00     0.000 A 
ENDBRANCH  19  20
ENDBRANCH  18  19
ENDBRANCH  17  18
ENDBRANCH  14  15
ENDBRANCH   1  14
TORSDOF 6
ENDMDL
