MODEL 1
REMARK VINA RESULT:      42.4      0.000      0.000
REMARK  2 active torsions:
REMARK  status: ('A' for Active; 'I' for Inactive)
REMARK    1  A    between atoms: N_9  and  C_3 
REMARK    2  A    between atoms: C_11  and  C_4 
ROOT
ATOM      1  N   UNL d   1      45.922 -17.375  43.622  0.00  0.00    -0.196 N 
ATOM      2  C   UNL d   1      45.888 -16.547  43.626  0.00  0.00     0.167 A 
ATOM      3  C   UNL d   1      46.202 -17.770  42.948  0.00  0.00     0.153 A 
ATOM      4  C   UNL d   1      45.614 -16.147  44.284  0.00  0.00     0.057 A 
ATOM      5  N   UNL d   1      45.402 -17.409  44.953  0.00  0.00    -0.161 NA
ATOM      6  N   UNL d   1      46.130 -16.122  42.963  0.00  0.00    -0.227 NA
ATOM      7  C   UNL d   1      46.440 -17.341  42.296  0.00  0.00     0.057 A 
ATOM      8  C   UNL d   1      45.370 -16.581  44.952  0.00  0.00     0.124 A 
ATOM      9  C   UNL d   1      46.404 -16.513  42.304  0.00  0.00     0.086 A 
ATOM     10  C   UNL d   1      46.647 -16.088  41.640  0.00  0.00     0.021 C 
ENDROOT
BRANCH   4  11
ATOM     11  C   UNL d   1      45.578 -15.323  44.291  0.00  0.00     0.004 A 
ATOM     12  C   UNL d   1      46.264 -14.882  44.433  0.00  0.00     0.000 A 
ATOM     13  C   UNL d   1      46.228 -14.058  44.440  0.00  0.00     0.000 A 
ATOM     14  C   UNL d   1      45.494 -13.675  44.303  0.00  0.00     0.000 A 
ATOM     15  C   UNL d   1      44.823 -14.129  44.164  0.00  0.00     0.000 A 
ATOM     16  C   UNL d   1      45.459 -12.851  44.311  0.00  0.00     0.000 C 
ATOM     17  C   UNL d   1      44.859 -14.949  44.157  0.00  0.00     0.000 A 
ENDBRANCH   4  11
BRANCH   3  18
ATOM     18  N   UNL d   1      46.238 -18.625  42.941  0.00  0.00    -0.285 N 
ATOM     19  C   UNL d   1      45.963 -19.052  42.255  0.00  0.00     0.108 A 
ATOM     20  C   UNL d   1      46.002 -19.898  42.252  0.00  0.00     0.142 A 
ATOM     21  O   UNL d   1      46.317 -20.330  42.938  0.00  0.00    -0.300 OA
ATOM     22  C   UNL d   1      46.583 -19.885  43.603  0.00  0.00     0.142 A 
ATOM     23  C   UNL d   1      46.546 -19.039  43.611  0.00  0.00     0.108 A 
ENDBRANCH   3  18
TORSDOF 2
ENDMDL
