MODEL 1
REMARK VINA RESULT:      -5.9      0.000      0.000
REMARK  7 active torsions:
REMARK  status: ('A' for Active; 'I' for Inactive)
REMARK    1  A    between atoms: N_8  and  C_1 
REMARK    2  A    between atoms: C_14  and  C_2 
REMARK    3  A    between atoms: S_3  and  C_16 
REMARK    4  A    between atoms: N_7  and  S_3 
REMARK       I    between atoms: C_12  and  N_8 
REMARK       I    between atoms: C_13  and  N_11 
REMARK    5  A    between atoms: C_22  and  C_12 
REMARK    6  A    between atoms: O_33  and  C_13 
REMARK    7  A    between atoms: C_38  and  O_33 
ROOT
ATOM      1  C   UNL d   1      49.238  34.892  52.282  0.00  0.00     0.104 A 
ATOM      2  C   UNL d   1      50.756  34.418  52.690  0.00  0.00     0.056 A 
ATOM      3  C   UNL d   1      49.551  35.102  53.018  0.00  0.00     0.013 A 
ATOM      4  C   UNL d   1      49.680  34.445  51.749  0.00  0.00     0.013 A 
ATOM      5  C   UNL d   1      50.312  34.865  53.223  0.00  0.00     0.005 A 
ATOM      6  C   UNL d   1      50.446  34.208  51.958  0.00  0.00     0.005 A 
ENDROOT
BRANCH   2   7
ATOM      7  C   UNL d   1      51.520  34.177  52.891  0.00  0.00     0.258 C 
ATOM      8  N   UNL d   1      51.856  34.417  53.613  0.00  0.00    -0.316 N 
ATOM      9  H   UNL d   1      51.278  34.708  53.660  0.00  0.00     0.169 HD
ATOM     10  O   UNL d   1      51.962  33.698  52.381  0.00  0.00    -0.267 OA
BRANCH   8  11
ATOM     11  C   UNL d   1      52.621  34.177  53.816  0.00  0.00     0.094 A 
ATOM     12  C   UNL d   1      53.149  34.599  54.281  0.00  0.00     0.081 A 
ATOM     13  C   UNL d   1      53.850  34.163  54.347  0.00  0.00     0.008 A 
ATOM     14  C   UNL d   1      54.557  34.313  54.740  0.00  0.00    -0.004 A 
ATOM     15  C   UNL d   1      53.756  33.469  53.920  0.00  0.00     0.028 A 
ATOM     16  C   UNL d   1      55.168  33.765  54.704  0.00  0.00     0.099 A 
ATOM     17  C   UNL d   1      55.667  34.229  55.180  0.00  0.00     0.029 C 
ATOM     18  C   UNL d   1      55.874  33.339  54.777  0.00  0.00     0.029 C 
ATOM     19  N   UNL d   1      55.085  33.067  54.280  0.00  0.00    -0.294 NA
ATOM     20  C   UNL d   1      54.370  32.919  53.884  0.00  0.00     0.104 A 
ATOM     21  C   UNL d   1      53.874  32.453  53.408  0.00  0.00     0.029 C 
ATOM     22  C   UNL d   1      54.973  32.339  53.827  0.00  0.00     0.029 C 
ATOM     23  S   UNL d   1      52.994  33.470  53.586  0.00  0.00    -0.072 SA
BRANCH  12  24
ATOM     24  C   UNL d   1      53.014  35.331  54.628  0.00  0.00     0.299 C 
ATOM     25  O   UNL d   1      53.287  36.006  54.265  0.00  0.00    -0.264 OA
ATOM     26  N   UNL d   1      52.609  35.375  55.329  0.00  0.00    -0.102 N 
ENDBRANCH  12  24
ENDBRANCH   8  11
ENDBRANCH   2   7
BRANCH   1  27
ATOM     27  S   UNL d   1      48.464  35.134  52.077  0.00  0.00     0.271 S 
ATOM     28  O   UNL d   1      48.510  35.688  52.694  0.00  0.00    -0.200 OA
ATOM     29  O   UNL d   1      48.429  34.581  51.466  0.00  0.00    -0.200 OA
BRANCH  27  30
ATOM     30  N   UNL d   1      47.708  35.371  51.876  0.00  0.00    -0.226 N 
ATOM     31  C   UNL d   1      47.308  35.012  51.252  0.00  0.00     0.111 A 
ATOM     32  C   UNL d   1      46.547  35.262  51.061  0.00  0.00     0.105 A 
ATOM     33  N   UNL d   1      46.182  35.867  51.489  0.00  0.00    -0.248 N 
ATOM     34  C   UNL d   1      46.587  36.222  52.112  0.00  0.00     0.105 A 
ATOM     35  C   UNL d   1      45.427  36.110  51.295  0.00  0.00     0.378 C 
ATOM     36  C   UNL d   1      47.344  35.973  52.301  0.00  0.00     0.111 A 
ATOM     37  O   UNL d   1      45.027  35.751  50.672  0.00  0.00    -0.237 OA
BRANCH  35  38
ATOM     38  O   UNL d   1      45.069  36.708  51.720  0.00  0.00    -0.257 OA
BRANCH  38  39
ATOM     39  C   UNL d   1      44.352  36.570  52.087  0.00  0.00     0.128 C 
ATOM     40  C   UNL d   1      44.315  36.526  52.913  0.00  0.00     0.029 C 
ENDBRANCH  38  39
ENDBRANCH  35  38
ENDBRANCH  27  30
ENDBRANCH   1  27
TORSDOF 7
ENDMDL
MODEL 2
REMARK VINA RESULT:      -4.1     12.131     13.240
REMARK  7 active torsions:
REMARK  status: ('A' for Active; 'I' for Inactive)
REMARK    1  A    between atoms: N_8  and  C_1 
REMARK    2  A    between atoms: C_14  and  C_2 
REMARK    3  A    between atoms: S_3  and  C_16 
REMARK    4  A    between atoms: N_7  and  S_3 
REMARK       I    between atoms: C_12  and  N_8 
REMARK       I    between atoms: C_13  and  N_11 
REMARK    5  A    between atoms: C_22  and  C_12 
REMARK    6  A    between atoms: O_33  and  C_13 
REMARK    7  A    between atoms: C_38  and  O_33 
ROOT
ATOM      1  C   UNL d   1      44.427  28.740  62.782  0.00  0.00     0.104 A 
ATOM      2  C   UNL d   1      44.464  28.321  61.195  0.00  0.00     0.056 A 
ATOM      3  C   UNL d   1      44.534  29.322  62.205  0.00  0.00     0.013 A 
ATOM      4  C   UNL d   1      44.338  27.949  62.569  0.00  0.00     0.013 A 
ATOM      5  C   UNL d   1      44.553  29.113  61.409  0.00  0.00     0.005 A 
ATOM      6  C   UNL d   1      44.358  27.740  61.767  0.00  0.00     0.005 A 
ENDROOT
BRANCH   2   7
ATOM      7  C   UNL d   1      44.482  28.106  60.397  0.00  0.00     0.258 C 
ATOM      8  N   UNL d   1      44.598  28.686  59.811  0.00  0.00    -0.316 N 
ATOM      9  H   UNL d   1      44.618  29.060  60.341  0.00  0.00     0.169 HD
ATOM     10  O   UNL d   1      44.386  27.317  60.168  0.00  0.00    -0.267 OA
BRANCH   8  11
ATOM     11  C   UNL d   1      44.616  28.472  59.013  0.00  0.00     0.094 A 
ATOM     12  C   UNL d   1      44.776  28.975  58.385  0.00  0.00     0.081 A 
ATOM     13  C   UNL d   1      44.739  28.540  57.681  0.00  0.00     0.008 A 
ATOM     14  C   UNL d   1      44.849  28.754  56.895  0.00  0.00    -0.004 A 
ATOM     15  C   UNL d   1      44.556  27.764  57.875  0.00  0.00     0.028 A 
ATOM     16  C   UNL d   1      44.774  28.188  56.304  0.00  0.00     0.099 A 
ATOM     17  C   UNL d   1      44.941  28.736  55.702  0.00  0.00     0.029 C 
ATOM     18  C   UNL d   1      44.740  27.764  55.594  0.00  0.00     0.029 C 
ATOM     19  N   UNL d   1      44.592  27.409  56.485  0.00  0.00    -0.294 NA
ATOM     20  C   UNL d   1      44.481  27.196  57.281  0.00  0.00     0.104 A 
ATOM     21  C   UNL d   1      44.314  26.645  57.880  0.00  0.00     0.029 C 
ATOM     22  C   UNL d   1      44.399  26.595  56.703  0.00  0.00     0.029 C 
ATOM     23  S   UNL d   1      44.478  27.713  58.702  0.00  0.00    -0.072 SA
BRANCH  12  24
ATOM     24  C   UNL d   1      44.945  29.778  58.436  0.00  0.00     0.299 C 
ATOM     25  O   UNL d   1      44.341  30.310  58.557  0.00  0.00    -0.264 OA
ATOM     26  N   UNL d   1      45.711  30.032  58.365  0.00  0.00    -0.102 N 
ENDBRANCH  12  24
ENDBRANCH   8  11
ENDBRANCH   2   7
BRANCH   1  27
ATOM     27  S   UNL d   1      44.408  28.956  63.589  0.00  0.00     0.271 S 
ATOM     28  O   UNL d   1      44.320  28.149  63.768  0.00  0.00    -0.200 OA
ATOM     29  O   UNL d   1      44.496  29.754  63.402  0.00  0.00    -0.200 OA
BRANCH  27  30
ATOM     30  N   UNL d   1      44.390  29.167  64.379  0.00  0.00    -0.226 N 
ATOM     31  C   UNL d   1      44.390  28.592  64.967  0.00  0.00     0.111 A 
ATOM     32  C   UNL d   1      44.372  28.820  65.758  0.00  0.00     0.105 A 
ATOM     33  N   UNL d   1      44.353  29.619  65.966  0.00  0.00    -0.248 N 
ATOM     34  C   UNL d   1      44.352  30.191  65.372  0.00  0.00     0.105 A 
ATOM     35  C   UNL d   1      44.334  29.840  66.752  0.00  0.00     0.378 C 
ATOM     36  C   UNL d   1      44.371  29.962  64.586  0.00  0.00     0.111 A 
ATOM     37  O   UNL d   1      44.335  29.264  67.340  0.00  0.00    -0.237 OA
BRANCH  35  38
ATOM     38  O   UNL d   1      44.316  30.630  66.953  0.00  0.00    -0.257 OA
BRANCH  38  39
ATOM     39  C   UNL d   1      44.418  30.851  67.734  0.00  0.00     0.128 C 
ATOM     40  C   UNL d   1      44.554  31.646  67.921  0.00  0.00     0.029 C 
ENDBRANCH  38  39
ENDBRANCH  35  38
ENDBRANCH  27  30
ENDBRANCH   1  27
TORSDOF 7
ENDMDL
MODEL 3
REMARK VINA RESULT:      -4.0      1.245      7.635
REMARK  7 active torsions:
REMARK  status: ('A' for Active; 'I' for Inactive)
REMARK    1  A    between atoms: N_8  and  C_1 
REMARK    2  A    between atoms: C_14  and  C_2 
REMARK    3  A    between atoms: S_3  and  C_16 
REMARK    4  A    between atoms: N_7  and  S_3 
REMARK       I    between atoms: C_12  and  N_8 
REMARK       I    between atoms: C_13  and  N_11 
REMARK    5  A    between atoms: C_22  and  C_12 
REMARK    6  A    between atoms: O_33  and  C_13 
REMARK    7  A    between atoms: C_38  and  O_33 
ROOT
ATOM      1  C   UNL d   1      51.070  34.194  52.938  0.00  0.00     0.104 A 
ATOM      2  C   UNL d   1      49.529  34.616  52.564  0.00  0.00     0.056 A 
ATOM      3  C   UNL d   1      50.741  33.954  52.219  0.00  0.00     0.013 A 
ATOM      4  C   UNL d   1      50.632  34.645  53.472  0.00  0.00     0.013 A 
ATOM      5  C   UNL d   1      49.968  34.166  52.030  0.00  0.00     0.005 A 
ATOM      6  C   UNL d   1      49.854  34.856  53.280  0.00  0.00     0.005 A 
ENDROOT
BRANCH   2   7
ATOM      7  C   UNL d   1      48.753  34.831  52.379  0.00  0.00     0.258 C 
ATOM      8  N   UNL d   1      48.424  35.525  52.700  0.00  0.00    -0.316 N 
ATOM      9  H   UNL d   1      49.015  35.551  52.967  0.00  0.00     0.169 HD
ATOM     10  O   UNL d   1      48.292  34.364  51.875  0.00  0.00    -0.267 OA
BRANCH   8  11
ATOM     11  C   UNL d   1      47.648  35.741  52.516  0.00  0.00     0.094 A 
ATOM     12  C   UNL d   1      47.068  35.953  53.056  0.00  0.00     0.081 A 
ATOM     13  C   UNL d   1      46.371  36.128  52.643  0.00  0.00     0.008 A 
ATOM     14  C   UNL d   1      45.627  36.367  52.895  0.00  0.00    -0.004 A 
ATOM     15  C   UNL d   1      46.521  36.022  51.843  0.00  0.00     0.028 A 
ATOM     16  C   UNL d   1      45.032  36.501  52.343  0.00  0.00     0.099 A 
ATOM     17  C   UNL d   1      44.480  36.709  52.927  0.00  0.00     0.029 C 
ATOM     18  C   UNL d   1      44.331  36.677  51.940  0.00  0.00     0.029 C 
ATOM     19  N   UNL d   1      45.170  36.398  51.540  0.00  0.00    -0.294 NA
ATOM     20  C   UNL d   1      45.925  36.156  51.289  0.00  0.00     0.104 A 
ATOM     21  C   UNL d   1      46.475  35.949  50.702  0.00  0.00     0.029 C 
ATOM     22  C   UNL d   1      45.341  36.284  50.700  0.00  0.00     0.029 C 
ATOM     23  S   UNL d   1      47.313  35.781  51.756  0.00  0.00    -0.072 SA
BRANCH  12  24
ATOM     24  C   UNL d   1      47.154  35.990  53.872  0.00  0.00     0.299 C 
ATOM     25  O   UNL d   1      47.522  36.632  54.210  0.00  0.00    -0.264 OA
ATOM     26  N   UNL d   1      46.871  35.387  54.334  0.00  0.00    -0.102 N 
ENDBRANCH  12  24
ENDBRANCH   8  11
ENDBRANCH   2   7
BRANCH   1  27
ATOM     27  S   UNL d   1      51.856  33.978  53.127  0.00  0.00     0.271 S 
ATOM     28  O   UNL d   1      51.613  33.185  53.081  0.00  0.00    -0.200 OA
ATOM     29  O   UNL d   1      52.087  34.768  53.171  0.00  0.00    -0.200 OA
BRANCH  27  30
ATOM     30  N   UNL d   1      52.624  33.767  53.312  0.00  0.00    -0.226 N 
ATOM     31  C   UNL d   1      52.972  33.107  52.966  0.00  0.00     0.111 A 
ATOM     32  C   UNL d   1      53.747  32.907  53.162  0.00  0.00     0.105 A 
ATOM     33  N   UNL d   1      54.175  33.363  53.702  0.00  0.00    -0.248 N 
ATOM     34  C   UNL d   1      53.821  34.023  54.045  0.00  0.00     0.105 A 
ATOM     35  C   UNL d   1      54.943  33.160  53.892  0.00  0.00     0.378 C 
ATOM     36  C   UNL d   1      53.051  34.220  53.849  0.00  0.00     0.111 A 
ATOM     37  O   UNL d   1      55.291  32.500  53.546  0.00  0.00    -0.237 OA
BRANCH  35  38
ATOM     38  O   UNL d   1      55.364  33.612  54.425  0.00  0.00    -0.257 OA
BRANCH  38  39
ATOM     39  C   UNL d   1      55.407  33.379  55.208  0.00  0.00     0.128 C 
ATOM     40  C   UNL d   1      55.752  33.882  55.768  0.00  0.00     0.029 C 
ENDBRANCH  38  39
ENDBRANCH  35  38
ENDBRANCH  27  30
ENDBRANCH   1  27
TORSDOF 7
ENDMDL
MODEL 4
REMARK VINA RESULT:      -3.0      8.118      9.354
REMARK  7 active torsions:
REMARK  status: ('A' for Active; 'I' for Inactive)
REMARK    1  A    between atoms: N_8  and  C_1 
REMARK    2  A    between atoms: C_14  and  C_2 
REMARK    3  A    between atoms: S_3  and  C_16 
REMARK    4  A    between atoms: N_7  and  S_3 
REMARK       I    between atoms: C_12  and  N_8 
REMARK       I    between atoms: C_13  and  N_11 
REMARK    5  A    between atoms: C_22  and  C_12 
REMARK    6  A    between atoms: O_33  and  C_13 
REMARK    7  A    between atoms: C_38  and  O_33 
ROOT
ATOM      1  C   UNL d   1      44.424  32.692  56.739  0.00  0.00     0.104 A 
ATOM      2  C   UNL d   1      44.433  31.409  57.763  0.00  0.00     0.056 A 
ATOM      3  C   UNL d   1      44.322  32.812  57.550  0.00  0.00     0.013 A 
ATOM      4  C   UNL d   1      44.531  31.932  56.437  0.00  0.00     0.013 A 
ATOM      5  C   UNL d   1      44.326  32.169  58.065  0.00  0.00     0.005 A 
ATOM      6  C   UNL d   1      44.536  31.287  56.956  0.00  0.00     0.005 A 
ENDROOT
BRANCH   2   7
ATOM      7  C   UNL d   1      44.439  30.760  58.275  0.00  0.00     0.258 C 
ATOM      8  N   UNL d   1      44.521  30.877  59.095  0.00  0.00    -0.316 N 
ATOM      9  H   UNL d   1      44.543  31.494  58.894  0.00  0.00     0.169 HD
ATOM     10  O   UNL d   1      44.363  29.989  57.984  0.00  0.00    -0.267 OA
BRANCH   8  11
ATOM     11  C   UNL d   1      44.527  30.229  59.608  0.00  0.00     0.094 A 
ATOM     12  C   UNL d   1      44.624  30.262  60.422  0.00  0.00     0.081 A 
ATOM     13  C   UNL d   1      44.595  29.491  60.724  0.00  0.00     0.008 A 
ATOM     14  C   UNL d   1      44.659  29.197  61.489  0.00  0.00    -0.004 A 
ATOM     15  C   UNL d   1      44.479  28.979  60.094  0.00  0.00     0.028 A 
ATOM     16  C   UNL d   1      44.607  28.387  61.620  0.00  0.00     0.099 A 
ATOM     17  C   UNL d   1      44.709  28.472  62.441  0.00  0.00     0.029 C 
ATOM     18  C   UNL d   1      44.579  27.621  61.934  0.00  0.00     0.029 C 
ATOM     19  N   UNL d   1      44.491  27.865  60.998  0.00  0.00    -0.294 NA
ATOM     20  C   UNL d   1      44.427  28.166  60.226  0.00  0.00     0.104 A 
ATOM     21  C   UNL d   1      44.324  28.077  59.406  0.00  0.00     0.029 C 
ATOM     22  C   UNL d   1      44.369  27.335  60.325  0.00  0.00     0.029 C 
ATOM     23  S   UNL d   1      44.436  29.430  59.396  0.00  0.00    -0.072 SA
BRANCH  12  24
ATOM     24  C   UNL d   1      44.733  30.941  60.871  0.00  0.00     0.299 C 
ATOM     25  O   UNL d   1      44.328  31.621  60.680  0.00  0.00    -0.264 OA
ATOM     26  N   UNL d   1      45.243  30.929  61.501  0.00  0.00    -0.102 N 
ENDBRANCH  12  24
ENDBRANCH   8  11
ENDBRANCH   2   7
BRANCH   1  27
ATOM     27  S   UNL d   1      44.419  33.347  56.219  0.00  0.00     0.271 S 
ATOM     28  O   UNL d   1      44.498  33.834  56.887  0.00  0.00    -0.200 OA
ATOM     29  O   UNL d   1      44.341  32.854  55.563  0.00  0.00    -0.200 OA
BRANCH  27  30
ATOM     30  N   UNL d   1      44.414  33.987  55.710  0.00  0.00    -0.226 N 
ATOM     31  C   UNL d   1      44.390  34.755  56.003  0.00  0.00     0.111 A 
ATOM     32  C   UNL d   1      44.385  35.390  55.479  0.00  0.00     0.105 A 
ATOM     33  N   UNL d   1      44.405  35.262  54.663  0.00  0.00    -0.248 N 
ATOM     34  C   UNL d   1      44.429  34.490  54.375  0.00  0.00     0.105 A 
ATOM     35  C   UNL d   1      44.400  35.895  54.147  0.00  0.00     0.378 C 
ATOM     36  C   UNL d   1      44.433  33.860  54.898  0.00  0.00     0.111 A 
ATOM     37  O   UNL d   1      44.376  36.663  54.440  0.00  0.00    -0.237 OA
BRANCH  35  38
ATOM     38  O   UNL d   1      44.419  35.765  53.342  0.00  0.00    -0.257 OA
BRANCH  38  39
ATOM     39  C   UNL d   1      44.643  36.370  52.840  0.00  0.00     0.128 C 
ATOM     40  C   UNL d   1      45.064  36.197  52.149  0.00  0.00     0.029 C 
ENDBRANCH  38  39
ENDBRANCH  35  38
ENDBRANCH  27  30
ENDBRANCH   1  27
TORSDOF 7
ENDMDL
