MODEL 1
REMARK VINA RESULT:      -4.7      0.000      0.000
REMARK  4 active torsions:
REMARK  status: ('A' for Active; 'I' for Inactive)
REMARK    1  A    between atoms: C_6  and  C_1 
REMARK    2  A    between atoms: C_7  and  C_4 
REMARK    3  A    between atoms: O_10  and  C_6 
REMARK    4  A    between atoms: C_13  and  O_10 
ROOT
ATOM      1  C   UNL d   1      57.894  -0.213  30.695  0.00  0.00     0.112 A 
ATOM      2  S   UNL d   1      57.190  -0.418  31.102  0.00  0.00    -0.080 SA
ATOM      3  C   UNL d   1      58.303   0.327  31.166  0.00  0.00     0.115 A 
ATOM      4  C   UNL d   1      57.187   0.006  31.816  0.00  0.00     0.031 A 
ATOM      5  C   UNL d   1      57.872   0.456  31.842  0.00  0.00     0.028 A 
ATOM      6  N   UNL d   1      59.041   0.682  30.976  0.00  0.00    -0.147 N 
ENDROOT
BRANCH   4   7
ATOM      7  C   UNL d   1      56.549  -0.091  32.333  0.00  0.00     0.006 A 
ATOM      8  C   UNL d   1      56.144   0.584  32.601  0.00  0.00     0.001 A 
ATOM      9  C   UNL d   1      55.509   0.485  33.116  0.00  0.00     0.000 A 
ATOM     10  C   UNL d   1      55.277  -0.264  33.361  0.00  0.00     0.000 A 
ATOM     11  C   UNL d   1      55.679  -0.926  33.094  0.00  0.00     0.000 A 
ATOM     12  C   UNL d   1      56.318  -0.841  32.578  0.00  0.00     0.001 A 
ENDBRANCH   4   7
BRANCH   1  13
ATOM     13  C   UNL d   1      58.141  -0.502  29.948  0.00  0.00     0.308 C 
ATOM     14  O   UNL d   1      58.082  -0.038  29.254  0.00  0.00    -0.258 OA
BRANCH  13  15
ATOM     15  O   UNL d   1      58.452  -1.275  29.900  0.00  0.00    -0.271 OA
BRANCH  15  16
ATOM     16  C   UNL d   1      58.632  -1.610  29.153  0.00  0.00     0.126 C 
ATOM     17  C   UNL d   1      58.885  -2.394  29.120  0.00  0.00     0.029 C 
ENDBRANCH  15  16
ENDBRANCH  13  15
ENDBRANCH   1  13
TORSDOF 4
ENDMDL
MODEL 2
REMARK VINA RESULT:      -4.3      2.393      4.191
REMARK  4 active torsions:
REMARK  status: ('A' for Active; 'I' for Inactive)
REMARK    1  A    between atoms: C_6  and  C_1 
REMARK    2  A    between atoms: C_7  and  C_4 
REMARK    3  A    between atoms: O_10  and  C_6 
REMARK    4  A    between atoms: C_13  and  O_10 
ROOT
ATOM      1  C   UNL d   1      56.017  -0.129  32.911  0.00  0.00     0.112 A 
ATOM      2  S   UNL d   1      56.577   0.306  32.464  0.00  0.00    -0.080 SA
ATOM      3  C   UNL d   1      56.065  -0.916  32.667  0.00  0.00     0.115 A 
ATOM      4  C   UNL d   1      56.956  -0.229  31.955  0.00  0.00     0.031 A 
ATOM      5  C   UNL d   1      56.634  -0.971  32.090  0.00  0.00     0.028 A 
ATOM      6  N   UNL d   1      55.603  -1.550  32.966  0.00  0.00    -0.147 N 
ENDROOT
BRANCH   4   7
ATOM      7  C   UNL d   1      57.542   0.053  31.445  0.00  0.00     0.006 A 
ATOM      8  C   UNL d   1      57.430  -0.022  30.625  0.00  0.00     0.001 A 
ATOM      9  C   UNL d   1      58.015   0.260  30.118  0.00  0.00     0.000 A 
ATOM     10  C   UNL d   1      58.697   0.610  30.415  0.00  0.00     0.000 A 
ATOM     11  C   UNL d   1      58.803   0.682  31.224  0.00  0.00     0.000 A 
ATOM     12  C   UNL d   1      58.224   0.403  31.742  0.00  0.00     0.001 A 
ENDBRANCH   4   7
BRANCH   1  13
ATOM     13  C   UNL d   1      55.501   0.176  33.497  0.00  0.00     0.308 C 
ATOM     14  O   UNL d   1      54.688   0.304  33.346  0.00  0.00    -0.258 OA
BRANCH  13  15
ATOM     15  O   UNL d   1      55.812   0.353  34.250  0.00  0.00    -0.271 OA
BRANCH  15  16
ATOM     16  C   UNL d   1      55.313   0.660  34.849  0.00  0.00     0.126 C 
ATOM     17  C   UNL d   1      55.590   0.682  35.626  0.00  0.00     0.029 C 
ENDBRANCH  15  16
ENDBRANCH  13  15
ENDBRANCH   1  13
TORSDOF 4
ENDMDL
MODEL 3
REMARK VINA RESULT:      -4.1      1.488      1.801
REMARK  4 active torsions:
REMARK  status: ('A' for Active; 'I' for Inactive)
REMARK    1  A    between atoms: C_6  and  C_1 
REMARK    2  A    between atoms: C_7  and  C_4 
REMARK    3  A    between atoms: O_10  and  C_6 
REMARK    4  A    between atoms: C_13  and  O_10 
ROOT
ATOM      1  C   UNL d   1      57.318  -0.048  31.421  0.00  0.00     0.112 A 
ATOM      2  S   UNL d   1      56.935   0.386  32.028  0.00  0.00    -0.080 SA
ATOM      3  C   UNL d   1      57.113  -0.841  31.519  0.00  0.00     0.115 A 
ATOM      4  C   UNL d   1      56.503  -0.157  32.484  0.00  0.00     0.031 A 
ATOM      5  C   UNL d   1      56.620  -0.902  32.162  0.00  0.00     0.028 A 
ATOM      6  N   UNL d   1      57.371  -1.477  31.034  0.00  0.00    -0.147 N 
ENDROOT
BRANCH   4   7
ATOM      7  C   UNL d   1      56.066   0.123  33.128  0.00  0.00     0.006 A 
ATOM      8  C   UNL d   1      56.470   0.342  33.820  0.00  0.00     0.001 A 
ATOM      9  C   UNL d   1      56.034   0.621  34.461  0.00  0.00     0.000 A 
ATOM     10  C   UNL d   1      55.215   0.682  34.419  0.00  0.00     0.000 A 
ATOM     11  C   UNL d   1      54.822   0.464  33.735  0.00  0.00     0.000 A 
ATOM     12  C   UNL d   1      55.248   0.184  33.085  0.00  0.00     0.001 A 
ENDBRANCH   4   7
BRANCH   1  13
ATOM     13  C   UNL d   1      57.817   0.263  30.825  0.00  0.00     0.308 C 
ATOM     14  O   UNL d   1      57.518   0.503  30.080  0.00  0.00    -0.258 OA
BRANCH  13  15
ATOM     15  O   UNL d   1      58.633   0.334  30.982  0.00  0.00    -0.271 OA
BRANCH  15  16
ATOM     16  C   UNL d   1      59.142   0.682  30.414  0.00  0.00     0.126 C 
ATOM     17  C   UNL d   1      59.957   0.597  30.506  0.00  0.00     0.029 C 
ENDBRANCH  15  16
ENDBRANCH  13  15
ENDBRANCH   1  13
TORSDOF 4
ENDMDL
MODEL 4
REMARK VINA RESULT:      -4.1      0.896      1.233
REMARK  4 active torsions:
REMARK  status: ('A' for Active; 'I' for Inactive)
REMARK    1  A    between atoms: C_6  and  C_1 
REMARK    2  A    between atoms: C_7  and  C_4 
REMARK    3  A    between atoms: O_10  and  C_6 
REMARK    4  A    between atoms: C_13  and  O_10 
ROOT
ATOM      1  C   UNL d   1      58.256  -0.568  30.099  0.00  0.00     0.112 A 
ATOM      2  S   UNL d   1      57.852  -0.819  30.790  0.00  0.00    -0.080 SA
ATOM      3  C   UNL d   1      58.024   0.208  29.945  0.00  0.00     0.115 A 
ATOM      4  C   UNL d   1      57.378  -0.185  31.041  0.00  0.00     0.031 A 
ATOM      5  C   UNL d   1      57.493   0.435  30.517  0.00  0.00     0.028 A 
ATOM      6  N   UNL d   1      58.291   0.682  29.304  0.00  0.00    -0.147 N 
ENDROOT
BRANCH   4   7
ATOM      7  C   UNL d   1      56.913  -0.279  31.718  0.00  0.00     0.006 A 
ATOM      8  C   UNL d   1      56.606  -1.032  31.891  0.00  0.00     0.001 A 
ATOM      9  C   UNL d   1      56.143  -1.125  32.566  0.00  0.00     0.000 A 
ATOM     10  C   UNL d   1      55.987  -0.487  33.060  0.00  0.00     0.000 A 
ATOM     11  C   UNL d   1      56.292   0.252  32.886  0.00  0.00     0.000 A 
ATOM     12  C   UNL d   1      56.757   0.358  32.213  0.00  0.00     0.001 A 
ENDBRANCH   4   7
BRANCH   1  13
ATOM     13  C   UNL d   1      58.798  -1.020  29.647  0.00  0.00     0.308 C 
ATOM     14  O   UNL d   1      59.602  -0.800  29.573  0.00  0.00    -0.258 OA
BRANCH  13  15
ATOM     15  O   UNL d   1      58.524  -1.708  29.263  0.00  0.00    -0.271 OA
BRANCH  15  16
ATOM     16  C   UNL d   1      59.051  -2.175  28.809  0.00  0.00     0.126 C 
ATOM     17  C   UNL d   1      58.789  -2.900  28.517  0.00  0.00     0.029 C 
ENDBRANCH  15  16
ENDBRANCH  13  15
ENDBRANCH   1  13
TORSDOF 4
ENDMDL
MODEL 5
REMARK VINA RESULT:      -3.3      1.362      4.327
REMARK  4 active torsions:
REMARK  status: ('A' for Active; 'I' for Inactive)
REMARK    1  A    between atoms: C_6  and  C_1 
REMARK    2  A    between atoms: C_7  and  C_4 
REMARK    3  A    between atoms: O_10  and  C_6 
REMARK    4  A    between atoms: C_13  and  O_10 
ROOT
ATOM      1  C   UNL d   1      58.444  -0.496  29.688  0.00  0.00     0.112 A 
ATOM      2  S   UNL d   1      58.727  -1.283  29.735  0.00  0.00    -0.080 SA
ATOM      3  C   UNL d   1      58.515  -0.255  28.902  0.00  0.00     0.115 A 
ATOM      4  C   UNL d   1      58.967  -1.505  28.972  0.00  0.00     0.031 A 
ATOM      5  C   UNL d   1      58.832  -0.868  28.474  0.00  0.00     0.028 A 
ATOM      6  N   UNL d   1      58.297   0.498  28.599  0.00  0.00    -0.147 N 
ENDROOT
BRANCH   4   7
ATOM      7  C   UNL d   1      59.274  -2.264  28.856  0.00  0.00     0.006 A 
ATOM      8  C   UNL d   1      58.748  -2.889  28.698  0.00  0.00     0.001 A 
ATOM      9  C   UNL d   1      59.056  -3.645  28.583  0.00  0.00     0.000 A 
ATOM     10  C   UNL d   1      59.865  -3.780  28.622  0.00  0.00     0.000 A 
ATOM     11  C   UNL d   1      60.379  -3.162  28.778  0.00  0.00     0.000 A 
ATOM     12  C   UNL d   1      60.084  -2.400  28.895  0.00  0.00     0.001 A 
ENDBRANCH   4   7
BRANCH   1  13
ATOM     13  C   UNL d   1      58.142  -0.036  30.320  0.00  0.00     0.308 C 
ATOM     14  O   UNL d   1      58.505   0.681  30.555  0.00  0.00    -0.258 OA
BRANCH  13  15
ATOM     15  O   UNL d   1      57.462  -0.304  30.722  0.00  0.00    -0.271 OA
BRANCH  15  16
ATOM     16  C   UNL d   1      57.234   0.052  31.446  0.00  0.00     0.126 C 
ATOM     17  C   UNL d   1      56.641  -0.305  31.894  0.00  0.00     0.029 C 
ENDBRANCH  15  16
ENDBRANCH  13  15
ENDBRANCH   1  13
TORSDOF 4
ENDMDL
MODEL 6
REMARK VINA RESULT:      -2.8      8.779     10.264
REMARK  4 active torsions:
REMARK  status: ('A' for Active; 'I' for Inactive)
REMARK    1  A    between atoms: C_6  and  C_1 
REMARK    2  A    between atoms: C_7  and  C_4 
REMARK    3  A    between atoms: O_10  and  C_6 
REMARK    4  A    between atoms: C_13  and  O_10 
ROOT
ATOM      1  C   UNL d   1      60.035  -9.069  34.815  0.00  0.00     0.112 A 
ATOM      2  S   UNL d   1      59.809  -9.067  34.008  0.00  0.00    -0.080 SA
ATOM      3  C   UNL d   1      60.713  -9.535  34.880  0.00  0.00     0.115 A 
ATOM      4  C   UNL d   1      60.358  -9.534  33.597  0.00  0.00     0.031 A 
ATOM      5  C   UNL d   1      60.903  -9.813  34.142  0.00  0.00     0.028 A 
ATOM      6  N   UNL d   1      61.132  -9.693  35.591  0.00  0.00    -0.147 N 
ENDROOT
BRANCH   4   7
ATOM      7  C   UNL d   1      60.268  -9.629  32.781  0.00  0.00     0.006 A 
ATOM      8  C   UNL d   1      59.500  -9.668  32.465  0.00  0.00     0.001 A 
ATOM      9  C   UNL d   1      59.412  -9.763  31.651  0.00  0.00     0.000 A 
ATOM     10  C   UNL d   1      60.068  -9.818  31.160  0.00  0.00     0.000 A 
ATOM     11  C   UNL d   1      60.823  -9.779  31.476  0.00  0.00     0.000 A 
ATOM     12  C   UNL d   1      60.925  -9.685  32.290  0.00  0.00     0.001 A 
ENDBRANCH   4   7
BRANCH   1  13
ATOM     13  C   UNL d   1      59.646  -8.673  35.443  0.00  0.00     0.308 C 
ATOM     14  O   UNL d   1      59.217  -9.089  36.029  0.00  0.00    -0.258 OA
BRANCH  13  15
ATOM     15  O   UNL d   1      59.691  -7.841  35.481  0.00  0.00    -0.271 OA
BRANCH  15  16
ATOM     16  C   UNL d   1      59.436  -7.437  36.169  0.00  0.00     0.126 C 
ATOM     17  C   UNL d   1      59.572  -6.625  36.227  0.00  0.00     0.029 C 
ENDBRANCH  15  16
ENDBRANCH  13  15
ENDBRANCH   1  13
TORSDOF 4
ENDMDL
MODEL 7
REMARK VINA RESULT:      -2.1      1.906      4.007
REMARK  4 active torsions:
REMARK  status: ('A' for Active; 'I' for Inactive)
REMARK    1  A    between atoms: C_6  and  C_1 
REMARK    2  A    between atoms: C_7  and  C_4 
REMARK    3  A    between atoms: O_10  and  C_6 
REMARK    4  A    between atoms: C_13  and  O_10 
ROOT
ATOM      1  C   UNL d   1      57.261  -0.015  31.855  0.00  0.00     0.112 A 
ATOM      2  S   UNL d   1      57.813   0.379  31.363  0.00  0.00    -0.080 SA
ATOM      3  C   UNL d   1      57.043  -0.713  31.472  0.00  0.00     0.115 A 
ATOM      4  C   UNL d   1      57.921  -0.091  30.687  0.00  0.00     0.031 A 
ATOM      5  C   UNL d   1      57.445  -0.754  30.768  0.00  0.00     0.028 A 
ATOM      6  N   UNL d   1      56.499  -1.282  31.764  0.00  0.00    -0.147 N 
ENDROOT
BRANCH   4   7
ATOM      7  C   UNL d   1      58.444   0.168  30.101  0.00  0.00     0.006 A 
ATOM      8  C   UNL d   1      58.157   0.277  29.329  0.00  0.00     0.001 A 
ATOM      9  C   UNL d   1      58.679   0.535  28.746  0.00  0.00     0.000 A 
ATOM     10  C   UNL d   1      59.468   0.682  28.923  0.00  0.00     0.000 A 
ATOM     11  C   UNL d   1      59.746   0.572  29.685  0.00  0.00     0.000 A 
ATOM     12  C   UNL d   1      59.233   0.314  30.278  0.00  0.00     0.001 A 
ENDBRANCH   4   7
BRANCH   1  13
ATOM     13  C   UNL d   1      56.978   0.249  32.599  0.00  0.00     0.308 C 
ATOM     14  O   UNL d   1      57.471   0.269  33.275  0.00  0.00    -0.258 OA
BRANCH  13  15
ATOM     15  O   UNL d   1      56.184   0.497  32.661  0.00  0.00    -0.271 OA
BRANCH  15  16
ATOM     16  C   UNL d   1      55.857   0.675  33.412  0.00  0.00     0.126 C 
ATOM     17  C   UNL d   1      55.050   0.557  33.532  0.00  0.00     0.029 C 
ENDBRANCH  15  16
ENDBRANCH  13  15
ENDBRANCH   1  13
TORSDOF 4
ENDMDL
