MODEL 1
REMARK VINA RESULT:       2.3      0.000      0.000
REMARK  1 active torsions:
REMARK  status: ('A' for Active; 'I' for Inactive)
REMARK    1  A    between atoms: O_8  and  C_4 
ROOT
ATOM      1  C   UNL d   1     -52.696  24.569  33.308  0.00  0.00     0.065 A 
ATOM      2  C   UNL d   1     -52.816  23.751  33.311  0.00  0.00     0.186 A 
ATOM      3  N   UNL d   1     -52.169  23.240  33.317  0.00  0.00    -0.224 NA
ATOM      4  C   UNL d   1     -51.929  24.872  33.310  0.00  0.00     0.099 A 
ATOM      5  N   UNL d   1     -53.579  23.447  33.309  0.00  0.00    -0.127 N 
ATOM      6  C   UNL d   1     -51.406  23.544  33.318  0.00  0.00     0.103 A 
ATOM      7  C   UNL d   1     -51.285  24.362  33.315  0.00  0.00     0.045 A 
ENDROOT
BRANCH   4   8
ATOM      8  O   UNL d   1     -51.810  25.682  33.306  0.00  0.00    -0.328 OA
ATOM      9  C   UNL d   1     -51.047  25.987  33.319  0.00  0.00     0.181 C 
ENDBRANCH   4   8
TORSDOF 1
ENDMDL
MODEL 2
REMARK VINA RESULT:       2.6      1.492      2.107
REMARK  1 active torsions:
REMARK  status: ('A' for Active; 'I' for Inactive)
REMARK    1  A    between atoms: O_8  and  C_4 
ROOT
ATOM      1  C   UNL d   1     -52.386  24.590  33.324  0.00  0.00     0.065 A 
ATOM      2  C   UNL d   1     -51.628  24.920  33.321  0.00  0.00     0.186 A 
ATOM      3  N   UNL d   1     -50.965  24.429  33.316  0.00  0.00    -0.224 NA
ATOM      4  C   UNL d   1     -52.478  23.770  33.323  0.00  0.00     0.099 A 
ATOM      5  N   UNL d   1     -51.533  25.736  33.322  0.00  0.00    -0.127 N 
ATOM      6  C   UNL d   1     -51.059  23.613  33.315  0.00  0.00     0.103 A 
ATOM      7  C   UNL d   1     -51.817  23.283  33.319  0.00  0.00     0.045 A 
ENDROOT
BRANCH   4   8
ATOM      8  O   UNL d   1     -53.228  23.444  33.327  0.00  0.00    -0.328 OA
ATOM      9  C   UNL d   1     -53.564  23.190  34.032  0.00  0.00     0.181 C 
ENDBRANCH   4   8
TORSDOF 1
ENDMDL
MODEL 3
REMARK VINA RESULT:       3.7      1.730      2.228
REMARK  1 active torsions:
REMARK  status: ('A' for Active; 'I' for Inactive)
REMARK    1  A    between atoms: O_8  and  C_4 
ROOT
ATOM      1  C   UNL d   1     -51.815  25.035  33.306  0.00  0.00     0.065 A 
ATOM      2  C   UNL d   1     -51.308  25.688  33.307  0.00  0.00     0.186 A 
ATOM      3  N   UNL d   1     -50.490  25.575  33.310  0.00  0.00    -0.224 NA
ATOM      4  C   UNL d   1     -51.503  24.272  33.307  0.00  0.00     0.099 A 
ATOM      5  N   UNL d   1     -51.616  26.449  33.306  0.00  0.00    -0.127 N 
ATOM      6  C   UNL d   1     -50.182  24.814  33.311  0.00  0.00     0.103 A 
ATOM      7  C   UNL d   1     -50.689  24.160  33.310  0.00  0.00     0.045 A 
ENDROOT
BRANCH   4   8
ATOM      8  O   UNL d   1     -52.005  23.625  33.306  0.00  0.00    -0.328 OA
ATOM      9  C   UNL d   1     -52.816  23.734  33.375  0.00  0.00     0.181 C 
ENDBRANCH   4   8
TORSDOF 1
ENDMDL
MODEL 4
REMARK VINA RESULT:       4.1      0.898      1.605
REMARK  1 active torsions:
REMARK  status: ('A' for Active; 'I' for Inactive)
REMARK    1  A    between atoms: O_8  and  C_4 
ROOT
ATOM      1  C   UNL d   1     -50.728  24.790  33.313  0.00  0.00     0.065 A 
ATOM      2  C   UNL d   1     -51.114  24.058  33.316  0.00  0.00     0.186 A 
ATOM      3  N   UNL d   1     -51.939  24.028  33.313  0.00  0.00    -0.224 NA
ATOM      4  C   UNL d   1     -51.169  25.487  33.308  0.00  0.00     0.099 A 
ATOM      5  N   UNL d   1     -50.679  23.363  33.321  0.00  0.00    -0.127 N 
ATOM      6  C   UNL d   1     -52.375  24.724  33.308  0.00  0.00     0.103 A 
ATOM      7  C   UNL d   1     -51.989  25.455  33.306  0.00  0.00     0.045 A 
ENDROOT
BRANCH   4   8
ATOM      8  O   UNL d   1     -50.786  26.211  33.306  0.00  0.00    -0.328 OA
ATOM      9  C   UNL d   1     -51.223  26.907  33.320  0.00  0.00     0.181 C 
ENDBRANCH   4   8
TORSDOF 1
ENDMDL
