MODEL 1
REMARK VINA RESULT:      -7.6      0.000      0.000
REMARK  3 active torsions:
REMARK  status: ('A' for Active; 'I' for Inactive)
REMARK    1  A    between atoms: C_6  and  N_1 
REMARK    2  A    between atoms: C_2  and  C_8 
REMARK    3  A    between atoms: N_3  and  C_2 
REMARK       I    between atoms: C_5  and  N_4 
ROOT
ATOM      1  C   UNL d   1     -48.785  12.578  22.787  0.00  0.00     0.120 C 
ATOM      2  S   UNL d   1     -49.108  11.818  22.774  0.00  0.00    -0.059 SA
ENDROOT
BRANCH   1   3
ATOM      3  C   UNL d   1     -47.970  12.680  22.757  0.00  0.00     0.027 A 
ATOM      4  C   UNL d   1     -47.513  12.561  23.434  0.00  0.00     0.004 A 
ATOM      5  C   UNL d   1     -46.693  12.664  23.402  0.00  0.00     0.024 A 
ATOM      6  C   UNL d   1     -46.333  12.886  22.695  0.00  0.00     0.127 A 
ATOM      7  C   UNL d   1     -46.789  13.005  22.018  0.00  0.00     0.024 A 
ATOM      8  C   UNL d   1     -47.606  12.902  22.049  0.00  0.00     0.004 A 
BRANCH   6   9
ATOM      9  N   UNL d   1     -45.516  12.988  22.665  0.00  0.00    -0.114 N 
ATOM     10  O   UNL d   1     -45.058  12.354  22.933  0.00  0.00    -0.532 OA
ATOM     11  O   UNL d   1     -45.145  13.675  22.388  0.00  0.00    -0.532 OA
ENDBRANCH   6   9
ENDBRANCH   1   3
BRANCH   1  12
ATOM     12  N   UNL d   1     -49.280  13.235  22.831  0.00  0.00    -0.293 N 
ATOM     13  C   UNL d   1     -49.486  13.556  23.569  0.00  0.00     0.100 A 
ATOM     14  C   UNL d   1     -49.980  14.212  23.612  0.00  0.00     0.102 A 
ATOM     15  N   UNL d   1     -50.274  14.554  22.921  0.00  0.00    -0.269 N 
ATOM     16  C   UNL d   1     -50.069  14.234  22.183  0.00  0.00     0.102 A 
ATOM     17  C   UNL d   1     -50.769  15.211  22.964  0.00  0.00     0.265 C 
ATOM     18  C   UNL d   1     -49.574  13.577  22.140  0.00  0.00     0.100 A 
ATOM     19  O   UNL d   1     -51.063  15.553  22.273  0.00  0.00    -0.267 OA
ATOM     20  C   UNL d   1     -50.973  15.530  23.698  0.00  0.00     0.066 C 
ENDBRANCH   1  12
TORSDOF 3
ENDMDL
MODEL 2
REMARK VINA RESULT:      -7.1      1.684      1.972
REMARK  3 active torsions:
REMARK  status: ('A' for Active; 'I' for Inactive)
REMARK    1  A    between atoms: C_6  and  N_1 
REMARK    2  A    between atoms: C_2  and  C_8 
REMARK    3  A    between atoms: N_3  and  C_2 
REMARK       I    between atoms: C_5  and  N_4 
ROOT
ATOM      1  C   UNL d   1     -47.378  13.713  22.820  0.00  0.00     0.120 C 
ATOM      2  S   UNL d   1     -47.167  14.503  22.938  0.00  0.00    -0.059 SA
ENDROOT
BRANCH   1   3
ATOM      3  C   UNL d   1     -46.825  13.117  22.941  0.00  0.00     0.027 A 
ATOM      4  C   UNL d   1     -46.146  13.081  22.473  0.00  0.00     0.004 A 
ATOM      5  C   UNL d   1     -45.591  12.480  22.597  0.00  0.00     0.024 A 
ATOM      6  C   UNL d   1     -45.716  11.919  23.187  0.00  0.00     0.127 A 
ATOM      7  C   UNL d   1     -46.394  11.955  23.655  0.00  0.00     0.024 A 
ATOM      8  C   UNL d   1     -46.948  12.552  23.533  0.00  0.00     0.004 A 
BRANCH   6   9
ATOM      9  N   UNL d   1     -45.162  11.321  23.309  0.00  0.00    -0.114 N 
ATOM     10  O   UNL d   1     -45.433  10.644  23.698  0.00  0.00    -0.532 OA
ATOM     11  O   UNL d   1     -44.370  11.368  23.066  0.00  0.00    -0.532 OA
ENDBRANCH   6   9
ENDBRANCH   1   3
BRANCH   1  12
ATOM     12  N   UNL d   1     -48.142  13.522  22.580  0.00  0.00    -0.293 N 
ATOM     13  C   UNL d   1     -48.762  13.507  23.132  0.00  0.00     0.100 A 
ATOM     14  C   UNL d   1     -49.526  13.316  22.893  0.00  0.00     0.102 A 
ATOM     15  N   UNL d   1     -49.678  13.138  22.102  0.00  0.00    -0.269 N 
ATOM     16  C   UNL d   1     -49.059  13.153  21.549  0.00  0.00     0.102 A 
ATOM     17  C   UNL d   1     -50.442  12.947  21.861  0.00  0.00     0.265 C 
ATOM     18  C   UNL d   1     -48.295  13.344  21.789  0.00  0.00     0.100 A 
ATOM     19  O   UNL d   1     -50.595  12.769  21.070  0.00  0.00    -0.267 OA
ATOM     20  C   UNL d   1     -51.059  12.932  22.410  0.00  0.00     0.066 C 
ENDBRANCH   1  12
TORSDOF 3
ENDMDL
MODEL 3
REMARK VINA RESULT:      -6.2      1.564      4.443
REMARK  3 active torsions:
REMARK  status: ('A' for Active; 'I' for Inactive)
REMARK    1  A    between atoms: C_6  and  N_1 
REMARK    2  A    between atoms: C_2  and  C_8 
REMARK    3  A    between atoms: N_3  and  C_2 
REMARK       I    between atoms: C_5  and  N_4 
ROOT
ATOM      1  C   UNL d   1     -47.435  13.887  22.765  0.00  0.00     0.120 C 
ATOM      2  S   UNL d   1     -47.213  14.663  22.942  0.00  0.00    -0.059 SA
ENDROOT
BRANCH   1   3
ATOM      3  C   UNL d   1     -48.186  13.731  22.467  0.00  0.00     0.027 A 
ATOM      4  C   UNL d   1     -48.277  13.479  21.687  0.00  0.00     0.004 A 
ATOM      5  C   UNL d   1     -49.033  13.323  21.389  0.00  0.00     0.024 A 
ATOM      6  C   UNL d   1     -49.694  13.419  21.871  0.00  0.00     0.127 A 
ATOM      7  C   UNL d   1     -49.603  13.672  22.652  0.00  0.00     0.024 A 
ATOM      8  C   UNL d   1     -48.851  13.828  22.949  0.00  0.00     0.004 A 
BRANCH   6   9
ATOM      9  N   UNL d   1     -50.446  13.263  21.573  0.00  0.00    -0.114 N 
ATOM     10  O   UNL d   1     -50.631  12.468  21.446  0.00  0.00    -0.532 OA
ATOM     11  O   UNL d   1     -51.006  13.849  21.400  0.00  0.00    -0.532 OA
ENDBRANCH   6   9
ENDBRANCH   1   3
BRANCH   1  12
ATOM     12  N   UNL d   1     -46.905  13.269  22.887  0.00  0.00    -0.293 N 
ATOM     13  C   UNL d   1     -47.131  12.607  23.334  0.00  0.00     0.100 A 
ATOM     14  C   UNL d   1     -46.601  11.989  23.455  0.00  0.00     0.102 A 
ATOM     15  N   UNL d   1     -45.843  12.026  23.132  0.00  0.00    -0.269 N 
ATOM     16  C   UNL d   1     -45.616  12.687  22.685  0.00  0.00     0.102 A 
ATOM     17  C   UNL d   1     -45.312  11.408  23.253  0.00  0.00     0.265 C 
ATOM     18  C   UNL d   1     -46.147  13.306  22.564  0.00  0.00     0.100 A 
ATOM     19  O   UNL d   1     -44.554  11.444  22.931  0.00  0.00    -0.267 OA
ATOM     20  C   UNL d   1     -45.536  10.749  23.698  0.00  0.00     0.066 C 
ENDBRANCH   1  12
TORSDOF 3
ENDMDL
MODEL 4
REMARK VINA RESULT:      -5.5      8.808      9.694
REMARK  3 active torsions:
REMARK  status: ('A' for Active; 'I' for Inactive)
REMARK    1  A    between atoms: C_6  and  N_1 
REMARK    2  A    between atoms: C_2  and  C_8 
REMARK    3  A    between atoms: N_3  and  C_2 
REMARK       I    between atoms: C_5  and  N_4 
ROOT
ATOM      1  C   UNL d   1     -40.675  15.471  20.444  0.00  0.00     0.120 C 
ATOM      2  S   UNL d   1     -41.320  15.919  20.700  0.00  0.00    -0.059 SA
ENDROOT
BRANCH   1   3
ATOM      3  C   UNL d   1     -40.568  15.326  19.641  0.00  0.00     0.027 A 
ATOM      4  C   UNL d   1     -40.786  14.598  19.320  0.00  0.00     0.004 A 
ATOM      5  C   UNL d   1     -40.677  14.453  18.513  0.00  0.00     0.024 A 
ATOM      6  C   UNL d   1     -40.352  15.036  18.030  0.00  0.00     0.127 A 
ATOM      7  C   UNL d   1     -40.134  15.764  18.351  0.00  0.00     0.024 A 
ATOM      8  C   UNL d   1     -40.241  15.909  19.154  0.00  0.00     0.004 A 
BRANCH   6   9
ATOM      9  N   UNL d   1     -40.245  14.890  17.226  0.00  0.00    -0.114 N 
ATOM     10  O   UNL d   1     -40.932  14.827  16.771  0.00  0.00    -0.532 OA
ATOM     11  O   UNL d   1     -39.503  14.806  16.866  0.00  0.00    -0.532 OA
ENDBRANCH   6   9
ENDBRANCH   1   3
BRANCH   1  12
ATOM     12  N   UNL d   1     -40.138  15.170  20.991  0.00  0.00    -0.293 N 
ATOM     13  C   UNL d   1     -40.176  14.372  21.218  0.00  0.00     0.100 A 
ATOM     14  C   UNL d   1     -39.640  14.072  21.765  0.00  0.00     0.102 A 
ATOM     15  N   UNL d   1     -39.062  14.563  22.089  0.00  0.00    -0.269 N 
ATOM     16  C   UNL d   1     -39.023  15.361  21.863  0.00  0.00     0.102 A 
ATOM     17  C   UNL d   1     -38.524  14.263  22.637  0.00  0.00     0.265 C 
ATOM     18  C   UNL d   1     -39.560  15.661  21.315  0.00  0.00     0.100 A 
ATOM     19  O   UNL d   1     -37.946  14.754  22.962  0.00  0.00    -0.267 OA
ATOM     20  C   UNL d   1     -38.562  13.470  22.863  0.00  0.00     0.066 C 
ENDBRANCH   1  12
TORSDOF 3
ENDMDL
MODEL 5
REMARK VINA RESULT:      -5.3      8.854      9.590
REMARK  3 active torsions:
REMARK  status: ('A' for Active; 'I' for Inactive)
REMARK    1  A    between atoms: C_6  and  N_1 
REMARK    2  A    between atoms: C_2  and  C_8 
REMARK    3  A    between atoms: N_3  and  C_2 
REMARK       I    between atoms: C_5  and  N_4 
ROOT
ATOM      1  C   UNL d   1     -40.460  15.437  20.525  0.00  0.00     0.120 C 
ATOM      2  S   UNL d   1     -41.064  15.914  20.826  0.00  0.00    -0.059 SA
ENDROOT
BRANCH   1   3
ATOM      3  C   UNL d   1     -40.019  14.962  21.031  0.00  0.00     0.027 A 
ATOM      4  C   UNL d   1     -39.349  15.266  21.404  0.00  0.00     0.004 A 
ATOM      5  C   UNL d   1     -38.907  14.786  21.913  0.00  0.00     0.024 A 
ATOM      6  C   UNL d   1     -39.136  14.006  22.046  0.00  0.00     0.127 A 
ATOM      7  C   UNL d   1     -39.806  13.702  21.673  0.00  0.00     0.024 A 
ATOM      8  C   UNL d   1     -40.247  14.178  21.166  0.00  0.00     0.004 A 
BRANCH   6   9
ATOM      9  N   UNL d   1     -38.694  13.530  22.553  0.00  0.00    -0.114 N 
ATOM     10  O   UNL d   1     -38.159  13.011  22.195  0.00  0.00    -0.532 OA
ATOM     11  O   UNL d   1     -38.760  13.547  23.379  0.00  0.00    -0.532 OA
ENDBRANCH   6   9
ENDBRANCH   1   3
BRANCH   1  12
ATOM     12  N   UNL d   1     -40.299  15.438  19.717  0.00  0.00    -0.293 N 
ATOM     13  C   UNL d   1     -39.697  15.921  19.412  0.00  0.00     0.100 A 
ATOM     14  C   UNL d   1     -39.536  15.922  18.605  0.00  0.00     0.102 A 
ATOM     15  N   UNL d   1     -39.973  15.441  18.096  0.00  0.00    -0.269 N 
ATOM     16  C   UNL d   1     -40.576  14.958  18.400  0.00  0.00     0.102 A 
ATOM     17  C   UNL d   1     -39.813  15.442  17.288  0.00  0.00     0.265 C 
ATOM     18  C   UNL d   1     -40.736  14.958  19.209  0.00  0.00     0.100 A 
ATOM     19  O   UNL d   1     -40.250  14.961  16.779  0.00  0.00    -0.267 OA
ATOM     20  C   UNL d   1     -39.214  15.922  16.984  0.00  0.00     0.066 C 
ENDBRANCH   1  12
TORSDOF 3
ENDMDL
MODEL 6
REMARK VINA RESULT:      -5.1      9.060     10.308
REMARK  3 active torsions:
REMARK  status: ('A' for Active; 'I' for Inactive)
REMARK    1  A    between atoms: C_6  and  N_1 
REMARK    2  A    between atoms: C_2  and  C_8 
REMARK    3  A    between atoms: N_3  and  C_2 
REMARK       I    between atoms: C_5  and  N_4 
ROOT
ATOM      1  C   UNL d   1     -40.247  15.331  18.446  0.00  0.00     0.120 C 
ATOM      2  S   UNL d   1     -40.922  15.733  18.192  0.00  0.00    -0.059 SA
ENDROOT
BRANCH   1   3
ATOM      3  C   UNL d   1     -39.778  14.929  17.903  0.00  0.00     0.027 A 
ATOM      4  C   UNL d   1     -39.263  15.346  17.412  0.00  0.00     0.004 A 
ATOM      5  C   UNL d   1     -38.792  14.939  16.866  0.00  0.00     0.024 A 
ATOM      6  C   UNL d   1     -38.839  14.118  16.813  0.00  0.00     0.127 A 
ATOM      7  C   UNL d   1     -39.355  13.701  17.304  0.00  0.00     0.024 A 
ATOM      8  C   UNL d   1     -39.824  14.105  17.848  0.00  0.00     0.004 A 
BRANCH   6   9
ATOM      9  N   UNL d   1     -38.370  13.715  16.269  0.00  0.00    -0.114 N 
ATOM     10  O   UNL d   1     -38.340  14.032  15.506  0.00  0.00    -0.532 OA
ATOM     11  O   UNL d   1     -37.941  13.029  16.447  0.00  0.00    -0.532 OA
ENDBRANCH   6   9
ENDBRANCH   1   3
BRANCH   1  12
ATOM     12  N   UNL d   1     -40.041  15.334  19.244  0.00  0.00    -0.293 N 
ATOM     13  C   UNL d   1     -39.532  15.917  19.542  0.00  0.00     0.100 A 
ATOM     14  C   UNL d   1     -39.327  15.919  20.339  0.00  0.00     0.102 A 
ATOM     15  N   UNL d   1     -39.628  15.341  20.844  0.00  0.00    -0.269 N 
ATOM     16  C   UNL d   1     -40.137  14.757  20.547  0.00  0.00     0.102 A 
ATOM     17  C   UNL d   1     -39.423  15.342  21.642  0.00  0.00     0.265 C 
ATOM     18  C   UNL d   1     -40.342  14.755  19.749  0.00  0.00     0.100 A 
ATOM     19  O   UNL d   1     -39.723  14.764  22.148  0.00  0.00    -0.267 OA
ATOM     20  C   UNL d   1     -38.916  15.922  21.940  0.00  0.00     0.066 C 
ENDBRANCH   1  12
TORSDOF 3
ENDMDL
MODEL 7
REMARK VINA RESULT:      -5.0      8.985     10.477
REMARK  3 active torsions:
REMARK  status: ('A' for Active; 'I' for Inactive)
REMARK    1  A    between atoms: C_6  and  N_1 
REMARK    2  A    between atoms: C_2  and  C_8 
REMARK    3  A    between atoms: N_3  and  C_2 
REMARK       I    between atoms: C_5  and  N_4 
ROOT
ATOM      1  C   UNL d   1     -40.345  15.520  18.626  0.00  0.00     0.120 C 
ATOM      2  S   UNL d   1     -41.052  15.922  18.482  0.00  0.00    -0.059 SA
ENDROOT
BRANCH   1   3
ATOM      3  C   UNL d   1     -40.128  15.331  19.396  0.00  0.00     0.027 A 
ATOM      4  C   UNL d   1     -40.459  14.674  19.770  0.00  0.00     0.004 A 
ATOM      5  C   UNL d   1     -40.240  14.485  20.545  0.00  0.00     0.024 A 
ATOM      6  C   UNL d   1     -39.691  14.953  20.943  0.00  0.00     0.127 A 
ATOM      7  C   UNL d   1     -39.360  15.610  20.570  0.00  0.00     0.024 A 
ATOM      8  C   UNL d   1     -39.577  15.799  19.798  0.00  0.00     0.004 A 
BRANCH   6   9
ATOM      9  N   UNL d   1     -39.474  14.764  21.715  0.00  0.00    -0.114 N 
ATOM     10  O   UNL d   1     -39.242  13.981  21.848  0.00  0.00    -0.532 OA
ATOM     11  O   UNL d   1     -39.477  15.305  22.343  0.00  0.00    -0.532 OA
ENDBRANCH   6   9
ENDBRANCH   1   3
BRANCH   1  12
ATOM     12  N   UNL d   1     -39.857  15.308  17.998  0.00  0.00    -0.293 N 
ATOM     13  C   UNL d   1     -39.813  14.516  17.751  0.00  0.00     0.100 A 
ATOM     14  C   UNL d   1     -39.324  14.305  17.124  0.00  0.00     0.102 A 
ATOM     15  N   UNL d   1     -38.877  14.880  16.737  0.00  0.00    -0.269 N 
ATOM     16  C   UNL d   1     -38.920  15.671  16.982  0.00  0.00     0.102 A 
ATOM     17  C   UNL d   1     -38.388  14.668  16.108  0.00  0.00     0.265 C 
ATOM     18  C   UNL d   1     -39.409  15.883  17.611  0.00  0.00     0.100 A 
ATOM     19  O   UNL d   1     -37.940  15.243  15.721  0.00  0.00    -0.267 OA
ATOM     20  C   UNL d   1     -38.343  13.881  15.863  0.00  0.00     0.066 C 
ENDBRANCH   1  12
TORSDOF 3
ENDMDL
