MODEL 1
REMARK VINA RESULT:      -7.5      0.000      0.000
REMARK  5 active torsions:
REMARK  status: ('A' for Active; 'I' for Inactive)
REMARK    1  A    between atoms: C_13  and  C_4 
REMARK    2  A    between atoms: S_11  and  C_5 
REMARK    3  A    between atoms: C_10  and  C_12 
REMARK    4  A    between atoms: C_15  and  S_11 
REMARK    5  A    between atoms: C_12  and  C_15 
ROOT
ATOM      1  N   UNL d   1      51.868  33.612  53.076  0.00  0.00    -0.206 N 
ATOM      2  C   UNL d   1      52.546  33.706  53.543  0.00  0.00     0.166 A 
ATOM      3  N   UNL d   1      52.285  32.323  52.730  0.00  0.00    -0.163 NA
ATOM      4  C   UNL d   1      53.091  33.108  53.601  0.00  0.00     0.055 A 
ATOM      5  C   UNL d   1      51.328  34.231  53.031  0.00  0.00     0.116 A 
ATOM      6  C   UNL d   1      52.959  32.417  53.194  0.00  0.00     0.104 A 
ATOM      7  N   UNL d   1      52.667  34.417  53.952  0.00  0.00    -0.227 NA
ATOM      8  C   UNL d   1      51.443  34.925  53.429  0.00  0.00     0.045 A 
ATOM      9  C   UNL d   1      52.122  35.019  53.896  0.00  0.00     0.085 A 
ATOM     10  C   UNL d   1      53.503  31.810  53.247  0.00  0.00     0.023 C 
ATOM     11  C   UNL d   1      52.251  35.748  54.319  0.00  0.00     0.021 C 
ENDROOT
BRANCH   5  12
ATOM     12  S   UNL d   1      50.627  34.138  52.551  0.00  0.00    -0.064 SA
BRANCH  12  13
ATOM     13  C   UNL d   1      49.822  34.154  52.300  0.00  0.00     0.079 C 
BRANCH  13  14
ATOM     14  C   UNL d   1      49.620  34.401  51.523  0.00  0.00     0.208 C 
ATOM     15  O   UNL d   1      50.184  34.330  50.901  0.00  0.00    -0.285 OA
BRANCH  14  16
ATOM     16  C   UNL d   1      48.857  34.716  51.372  0.00  0.00     0.069 A 
ATOM     17  S   UNL d   1      48.381  34.584  50.681  0.00  0.00    -0.083 SA
ATOM     18  C   UNL d   1      47.655  35.016  50.776  0.00  0.00     0.035 A 
ATOM     19  C   UNL d   1      47.682  35.411  51.517  0.00  0.00     0.008 A 
ATOM     20  C   UNL d   1      48.421  35.229  51.887  0.00  0.00     0.010 A 
ENDBRANCH  14  16
ENDBRANCH  13  14
ENDBRANCH  12  13
ENDBRANCH   5  12
BRANCH   4  21
ATOM     21  C   UNL d   1      53.762  33.201  54.062  0.00  0.00     0.004 A 
ATOM     22  C   UNL d   1      53.730  33.000  54.861  0.00  0.00     0.001 A 
ATOM     23  C   UNL d   1      54.398  33.093  55.321  0.00  0.00     0.011 A 
ATOM     24  C   UNL d   1      55.087  33.385  54.973  0.00  0.00     0.058 A 
ATOM     25  C   UNL d   1      55.118  33.581  54.198  0.00  0.00     0.011 A 
ATOM     26 CL   UNL d   1      55.787  33.482  55.454  0.00  0.00    -0.082 Cl
ATOM     27  C   UNL d   1      54.439  33.486  53.732  0.00  0.00     0.001 A 
ENDBRANCH   4  21
TORSDOF 5
ENDMDL
MODEL 2
REMARK VINA RESULT:      -7.4      0.829      1.721
REMARK  5 active torsions:
REMARK  status: ('A' for Active; 'I' for Inactive)
REMARK    1  A    between atoms: C_13  and  C_4 
REMARK    2  A    between atoms: S_11  and  C_5 
REMARK    3  A    between atoms: C_10  and  C_12 
REMARK    4  A    between atoms: C_15  and  S_11 
REMARK    5  A    between atoms: C_12  and  C_15 
ROOT
ATOM      1  N   UNL d   1      51.580  34.370  53.385  0.00  0.00    -0.206 N 
ATOM      2  C   UNL d   1      52.297  34.062  53.664  0.00  0.00     0.166 A 
ATOM      3  N   UNL d   1      51.905  35.616  53.930  0.00  0.00    -0.163 NA
ATOM      4  C   UNL d   1      52.814  34.532  54.074  0.00  0.00     0.055 A 
ATOM      5  C   UNL d   1      51.069  33.876  52.971  0.00  0.00     0.116 A 
ATOM      6  C   UNL d   1      52.617  35.309  54.207  0.00  0.00     0.104 A 
ATOM      7  N   UNL d   1      52.484  33.266  53.521  0.00  0.00    -0.227 NA
ATOM      8  C   UNL d   1      51.249  33.101  52.830  0.00  0.00     0.045 A 
ATOM      9  C   UNL d   1      51.966  32.792  53.108  0.00  0.00     0.085 A 
ATOM     10  C   UNL d   1      53.133  35.789  54.620  0.00  0.00     0.023 C 
ATOM     11  C   UNL d   1      52.163  31.975  52.964  0.00  0.00     0.021 C 
ENDROOT
BRANCH   5  12
ATOM     12  S   UNL d   1      50.328  34.191  52.682  0.00  0.00    -0.064 SA
BRANCH  12  13
ATOM     13  C   UNL d   1      49.547  34.509  52.664  0.00  0.00     0.079 C 
BRANCH  13  14
ATOM     14  C   UNL d   1      49.192  34.733  51.938  0.00  0.00     0.208 C 
ATOM     15  O   UNL d   1      49.552  34.512  51.209  0.00  0.00    -0.285 OA
BRANCH  14  16
ATOM     16  C   UNL d   1      48.479  35.177  51.942  0.00  0.00     0.069 A 
ATOM     17  S   UNL d   1      47.867  35.160  51.354  0.00  0.00    -0.083 SA
ATOM     18  C   UNL d   1      47.256  35.700  51.595  0.00  0.00     0.035 A 
ATOM     19  C   UNL d   1      47.488  36.046  52.325  0.00  0.00     0.008 A 
ATOM     20  C   UNL d   1      48.242  35.726  52.542  0.00  0.00     0.010 A 
ENDBRANCH  14  16
ENDBRANCH  13  14
ENDBRANCH  12  13
ENDBRANCH   5  12
BRANCH   4  21
ATOM     21  C   UNL d   1      53.523  34.226  54.350  0.00  0.00     0.004 A 
ATOM     22  C   UNL d   1      53.559  33.927  55.118  0.00  0.00     0.001 A 
ATOM     23  C   UNL d   1      54.265  33.622  55.392  0.00  0.00     0.011 A 
ATOM     24  C   UNL d   1      54.923  33.623  54.894  0.00  0.00     0.058 A 
ATOM     25  C   UNL d   1      54.888  33.913  54.150  0.00  0.00     0.011 A 
ATOM     26 CL   UNL d   1      55.662  33.304  55.181  0.00  0.00    -0.082 Cl
ATOM     27  C   UNL d   1      54.171  34.222  53.871  0.00  0.00     0.001 A 
ENDBRANCH   4  21
TORSDOF 5
ENDMDL
MODEL 3
REMARK VINA RESULT:      -6.9      2.854      6.161
REMARK  5 active torsions:
REMARK  status: ('A' for Active; 'I' for Inactive)
REMARK    1  A    between atoms: C_13  and  C_4 
REMARK    2  A    between atoms: S_11  and  C_5 
REMARK    3  A    between atoms: C_10  and  C_12 
REMARK    4  A    between atoms: C_15  and  S_11 
REMARK    5  A    between atoms: C_12  and  C_15 
ROOT
ATOM      1  N   UNL d   1      49.437  35.069  52.931  0.00  0.00    -0.206 N 
ATOM      2  C   UNL d   1      48.704  35.252  52.589  0.00  0.00     0.166 A 
ATOM      3  N   UNL d   1      49.103  35.832  54.054  0.00  0.00    -0.163 NA
ATOM      4  C   UNL d   1      48.175  35.724  52.982  0.00  0.00     0.055 A 
ATOM      5  C   UNL d   1      49.959  34.588  52.516  0.00  0.00     0.116 A 
ATOM      6  C   UNL d   1      48.375  36.014  53.714  0.00  0.00     0.104 A 
ATOM      7  N   UNL d   1      48.513  34.949  51.841  0.00  0.00    -0.227 NA
ATOM      8  C   UNL d   1      49.776  34.291  51.787  0.00  0.00     0.045 A 
ATOM      9  C   UNL d   1      49.044  34.474  51.445  0.00  0.00     0.085 A 
ATOM     10  C   UNL d   1      47.847  36.490  54.115  0.00  0.00     0.023 C 
ATOM     11  C   UNL d   1      48.842  34.165  50.676  0.00  0.00     0.021 C 
ENDROOT
BRANCH   5  12
ATOM     12  S   UNL d   1      50.716  34.397  52.865  0.00  0.00    -0.064 SA
BRANCH  12  13
ATOM     13  C   UNL d   1      51.332  33.975  53.256  0.00  0.00     0.079 C 
BRANCH  13  14
ATOM     14  C   UNL d   1      52.123  34.254  53.238  0.00  0.00     0.208 C 
ATOM     15  O   UNL d   1      52.306  34.966  52.826  0.00  0.00    -0.285 OA
BRANCH  14  16
ATOM     16  C   UNL d   1      52.727  33.823  53.632  0.00  0.00     0.069 A 
ATOM     17  S   UNL d   1      53.115  34.039  54.355  0.00  0.00    -0.083 SA
ATOM     18  C   UNL d   1      53.684  33.435  54.538  0.00  0.00     0.035 A 
ATOM     19  C   UNL d   1      53.648  32.852  53.934  0.00  0.00     0.008 A 
ATOM     20  C   UNL d   1      53.059  33.088  53.373  0.00  0.00     0.010 A 
ENDBRANCH  14  16
ENDBRANCH  13  14
ENDBRANCH  12  13
ENDBRANCH   5  12
BRANCH   4  21
ATOM     21  C   UNL d   1      47.450  35.905  52.644  0.00  0.00     0.004 A 
ATOM     22  C   UNL d   1      46.792  35.447  52.836  0.00  0.00     0.001 A 
ATOM     23  C   UNL d   1      46.071  35.627  52.500  0.00  0.00     0.011 A 
ATOM     24  C   UNL d   1      46.020  36.262  51.976  0.00  0.00     0.058 A 
ATOM     25  C   UNL d   1      46.658  36.707  51.789  0.00  0.00     0.011 A 
ATOM     26 CL   UNL d   1      45.264  36.451  51.624  0.00  0.00    -0.082 Cl
ATOM     27  C   UNL d   1      47.390  36.524  52.131  0.00  0.00     0.001 A 
ENDBRANCH   4  21
TORSDOF 5
ENDMDL
MODEL 4
REMARK VINA RESULT:      -5.7      2.677      4.811
REMARK  5 active torsions:
REMARK  status: ('A' for Active; 'I' for Inactive)
REMARK    1  A    between atoms: C_13  and  C_4 
REMARK    2  A    between atoms: S_11  and  C_5 
REMARK    3  A    between atoms: C_10  and  C_12 
REMARK    4  A    between atoms: C_15  and  S_11 
REMARK    5  A    between atoms: C_12  and  C_15 
ROOT
ATOM      1  N   UNL d   1      53.280  32.236  53.740  0.00  0.00    -0.206 N 
ATOM      2  C   UNL d   1      53.133  33.045  53.846  0.00  0.00     0.166 A 
ATOM      3  N   UNL d   1      54.405  32.333  54.564  0.00  0.00    -0.163 NA
ATOM      4  C   UNL d   1      53.622  33.493  54.310  0.00  0.00     0.055 A 
ATOM      5  C   UNL d   1      52.771  31.798  53.264  0.00  0.00     0.116 A 
ATOM      6  C   UNL d   1      54.259  33.137  54.669  0.00  0.00     0.104 A 
ATOM      7  N   UNL d   1      52.480  33.395  53.473  0.00  0.00    -0.227 NA
ATOM      8  C   UNL d   1      52.134  32.137  52.899  0.00  0.00     0.045 A 
ATOM      9  C   UNL d   1      51.986  32.946  53.005  0.00  0.00     0.085 A 
ATOM     10  C   UNL d   1      54.756  33.582  55.139  0.00  0.00     0.023 C 
ATOM     11  C   UNL d   1      51.316  33.311  52.625  0.00  0.00     0.021 C 
ENDROOT
BRANCH   5  12
ATOM     12  S   UNL d   1      52.920  30.964  53.152  0.00  0.00    -0.064 SA
BRANCH  12  13
ATOM     13  C   UNL d   1      53.298  30.210  53.168  0.00  0.00     0.079 C 
BRANCH  13  14
ATOM     14  C   UNL d   1      52.889  29.531  53.442  0.00  0.00     0.208 C 
ATOM     15  O   UNL d   1      52.182  29.283  53.056  0.00  0.00    -0.285 OA
BRANCH  14  16
ATOM     16  C   UNL d   1      53.187  29.102  54.099  0.00  0.00     0.069 A 
ATOM     17  S   UNL d   1      52.824  29.025  54.862  0.00  0.00    -0.083 SA
ATOM     18  C   UNL d   1      53.328  28.540  55.346  0.00  0.00     0.035 A 
ATOM     19  C   UNL d   1      53.996  28.320  54.886  0.00  0.00     0.008 A 
ATOM     20  C   UNL d   1      53.913  28.664  54.116  0.00  0.00     0.010 A 
ENDBRANCH  14  16
ENDBRANCH  13  14
ENDBRANCH  12  13
ENDBRANCH   5  12
BRANCH   4  21
ATOM     21  C   UNL d   1      53.476  34.293  54.415  0.00  0.00     0.004 A 
ATOM     22  C   UNL d   1      53.070  34.542  55.089  0.00  0.00     0.001 A 
ATOM     23  C   UNL d   1      52.924  35.338  55.193  0.00  0.00     0.011 A 
ATOM     24  C   UNL d   1      53.188  35.872  54.622  0.00  0.00     0.058 A 
ATOM     25  C   UNL d   1      53.582  35.632  53.969  0.00  0.00     0.011 A 
ATOM     26 CL   UNL d   1      53.036  36.706  54.731  0.00  0.00    -0.082 Cl
ATOM     27  C   UNL d   1      53.730  34.823  53.863  0.00  0.00     0.001 A 
ENDBRANCH   4  21
TORSDOF 5
ENDMDL
MODEL 5
REMARK VINA RESULT:      -5.3      2.085      3.247
REMARK  5 active torsions:
REMARK  status: ('A' for Active; 'I' for Inactive)
REMARK    1  A    between atoms: C_13  and  C_4 
REMARK    2  A    between atoms: S_11  and  C_5 
REMARK    3  A    between atoms: C_10  and  C_12 
REMARK    4  A    between atoms: C_15  and  S_11 
REMARK    5  A    between atoms: C_12  and  C_15 
ROOT
ATOM      1  N   UNL d   1      53.000  32.187  53.393  0.00  0.00    -0.206 N 
ATOM      2  C   UNL d   1      53.226  31.506  53.809  0.00  0.00     0.166 A 
ATOM      3  N   UNL d   1      52.433  31.390  52.395  0.00  0.00    -0.163 NA
ATOM      4  C   UNL d   1      53.054  30.771  53.515  0.00  0.00     0.055 A 
ATOM      5  C   UNL d   1      53.184  32.925  53.709  0.00  0.00     0.116 A 
ATOM      6  C   UNL d   1      52.658  30.713  52.808  0.00  0.00     0.104 A 
ATOM      7  N   UNL d   1      53.630  31.581  54.529  0.00  0.00    -0.227 NA
ATOM      8  C   UNL d   1      53.577  33.000  54.411  0.00  0.00     0.045 A 
ATOM      9  C   UNL d   1      53.803  32.319  54.827  0.00  0.00     0.085 A 
ATOM     10  C   UNL d   1      52.482  29.976  52.505  0.00  0.00     0.023 C 
ATOM     11  C   UNL d   1      54.219  32.390  55.568  0.00  0.00     0.021 C 
ENDROOT
BRANCH   5  12
ATOM     12  S   UNL d   1      52.952  33.629  53.284  0.00  0.00    -0.064 SA
BRANCH  12  13
ATOM     13  C   UNL d   1      52.567  34.142  52.737  0.00  0.00     0.079 C 
BRANCH  13  14
ATOM     14  C   UNL d   1      51.930  34.631  52.981  0.00  0.00     0.208 C 
ATOM     15  O   UNL d   1      52.055  35.214  53.576  0.00  0.00    -0.285 OA
BRANCH  14  16
ATOM     16  C   UNL d   1      51.173  34.535  52.632  0.00  0.00     0.069 A 
ATOM     17  S   UNL d   1      50.425  34.547  53.032  0.00  0.00    -0.083 SA
ATOM     18  C   UNL d   1      49.815  34.427  52.452  0.00  0.00     0.035 A 
ATOM     19  C   UNL d   1      50.183  34.341  51.701  0.00  0.00     0.008 A 
ATOM     20  C   UNL d   1      51.020  34.407  51.808  0.00  0.00     0.010 A 
ENDBRANCH  14  16
ENDBRANCH  13  14
ENDBRANCH  12  13
ENDBRANCH   5  12
BRANCH   4  21
ATOM     21  C   UNL d   1      53.278  30.097  53.926  0.00  0.00     0.004 A 
ATOM     22  C   UNL d   1      53.987  29.725  53.729  0.00  0.00     0.001 A 
ATOM     23  C   UNL d   1      54.210  29.055  54.138  0.00  0.00     0.011 A 
ATOM     24  C   UNL d   1      53.719  28.769  54.736  0.00  0.00     0.058 A 
ATOM     25  C   UNL d   1      53.032  29.129  54.927  0.00  0.00     0.011 A 
ATOM     26 CL   UNL d   1      53.953  28.066  55.165  0.00  0.00    -0.082 Cl
ATOM     27  C   UNL d   1      52.806  29.810  54.512  0.00  0.00     0.001 A 
ENDBRANCH   4  21
TORSDOF 5
ENDMDL
MODEL 6
REMARK VINA RESULT:      -4.8     10.570     11.383
REMARK  5 active torsions:
REMARK  status: ('A' for Active; 'I' for Inactive)
REMARK    1  A    between atoms: C_13  and  C_4 
REMARK    2  A    between atoms: S_11  and  C_5 
REMARK    3  A    between atoms: C_10  and  C_12 
REMARK    4  A    between atoms: C_15  and  S_11 
REMARK    5  A    between atoms: C_12  and  C_15 
ROOT
ATOM      1  N   UNL d   1      44.731  27.237  57.218  0.00  0.00    -0.206 N 
ATOM      2  C   UNL d   1      44.779  27.858  57.764  0.00  0.00     0.166 A 
ATOM      3  N   UNL d   1      44.917  28.144  56.170  0.00  0.00    -0.163 NA
ATOM      4  C   UNL d   1      44.897  28.619  57.511  0.00  0.00     0.055 A 
ATOM      5  C   UNL d   1      44.611  26.472  57.496  0.00  0.00     0.116 A 
ATOM      6  C   UNL d   1      44.966  28.761  56.714  0.00  0.00     0.104 A 
ATOM      7  N   UNL d   1      44.707  27.698  58.575  0.00  0.00    -0.227 NA
ATOM      8  C   UNL d   1      44.540  26.313  58.285  0.00  0.00     0.045 A 
ATOM      9  C   UNL d   1      44.589  26.934  58.832  0.00  0.00     0.085 A 
ATOM     10  C   UNL d   1      45.084  29.525  56.451  0.00  0.00     0.023 C 
ATOM     11  C   UNL d   1      44.515  26.775  59.666  0.00  0.00     0.021 C 
ENDROOT
BRANCH   5  12
ATOM     12  S   UNL d   1      44.560  25.828  56.935  0.00  0.00    -0.064 SA
BRANCH  12  13
ATOM     13  C   UNL d   1      44.354  25.092  56.580  0.00  0.00     0.079 C 
BRANCH  13  14
ATOM     14  C   UNL d   1      44.727  24.837  55.873  0.00  0.00     0.208 C 
ATOM     15  O   UNL d   1      45.130  25.395  55.387  0.00  0.00    -0.285 OA
BRANCH  14  16
ATOM     16  C   UNL d   1      44.697  24.027  55.655  0.00  0.00     0.069 A 
ATOM     17  S   UNL d   1      44.347  23.704  54.952  0.00  0.00    -0.083 SA
ATOM     18  C   UNL d   1      44.451  22.860  54.971  0.00  0.00     0.035 A 
ATOM     19  C   UNL d   1      44.860  22.664  55.679  0.00  0.00     0.008 A 
ATOM     20  C   UNL d   1      45.013  23.381  56.103  0.00  0.00     0.010 A 
ENDBRANCH  14  16
ENDBRANCH  13  14
ENDBRANCH  12  13
ENDBRANCH   5  12
BRANCH   4  21
ATOM     21  C   UNL d   1      44.945  29.234  58.052  0.00  0.00     0.004 A 
ATOM     22  C   UNL d   1      44.332  29.785  58.087  0.00  0.00     0.001 A 
ATOM     23  C   UNL d   1      44.380  30.397  58.625  0.00  0.00     0.011 A 
ATOM     24  C   UNL d   1      45.040  30.446  59.119  0.00  0.00     0.058 A 
ATOM     25  C   UNL d   1      45.634  29.912  59.084  0.00  0.00     0.011 A 
ATOM     26 CL   UNL d   1      45.090  31.087  59.682  0.00  0.00    -0.082 Cl
ATOM     27  C   UNL d   1      45.585  29.291  58.538  0.00  0.00     0.001 A 
ENDBRANCH   4  21
TORSDOF 5
ENDMDL
