MODEL 1
REMARK VINA RESULT:      54.3      0.000      0.000
REMARK  7 active torsions:
REMARK  status: ('A' for Active; 'I' for Inactive)
REMARK    1  A    between atoms: N_6  and  S_1 
REMARK    2  A    between atoms: C_9  and  S_1 
REMARK    3  A    between atoms: N_2  and  C_11 
REMARK    4  A    between atoms: C_14  and  C_3 
REMARK    5  A    between atoms: C_7  and  C_15 
REMARK       I    between atoms: N_10  and  C_7 
REMARK    6  A    between atoms: C_25  and  N_10 
REMARK    7  A    between atoms: O_33  and  C_26 
ROOT
ATOM      1  C   UNL d   1     -42.073-122.810 -50.364  0.00  0.00     0.085 A 
ATOM      2  C   UNL d   1     -42.681-123.174 -50.779  0.00  0.00     0.021 A 
ATOM      3  C   UNL d   1     -41.608-122.229 -50.721  0.00  0.00     0.021 A 
ATOM      4  C   UNL d   1     -42.370-122.377 -51.928  0.00  0.00     0.085 A 
ATOM      5  C   UNL d   1     -42.834-122.959 -51.567  0.00  0.00     0.021 A 
ATOM      6  C   UNL d   1     -41.750-122.008 -51.499  0.00  0.00     0.021 A 
ENDROOT
BRANCH   4   7
ATOM      7  N   UNL d   1     -42.518-122.156 -52.718  0.00  0.00    -0.208 NA
ATOM      8  C   UNL d   1     -41.955-122.313 -53.294  0.00  0.00     0.279 C 
ATOM      9  O   UNL d   1     -41.248-122.684 -53.099  0.00  0.00    -0.265 OA
BRANCH   8  10
ATOM     10  C   UNL d   1     -42.099-122.092 -54.092  0.00  0.00     0.058 A 
ATOM     11  C   UNL d   1     -42.831-122.230 -54.417  0.00  0.00     0.005 A 
ATOM     12  C   UNL d   1     -42.973-122.015 -55.194  0.00  0.00     0.013 A 
ATOM     13  C   UNL d   1     -42.392-121.669 -55.641  0.00  0.00     0.104 A 
ATOM     14  C   UNL d   1     -41.653-121.530 -55.313  0.00  0.00     0.013 A 
ATOM     15  C   UNL d   1     -41.510-121.745 -54.532  0.00  0.00     0.005 A 
BRANCH  13  16
ATOM     16  S   UNL d   1     -42.545-121.453 -56.432  0.00  0.00     0.271 S 
ATOM     17  O   UNL d   1     -41.874-121.859 -56.666  0.00  0.00    -0.200 OA
ATOM     18  O   UNL d   1     -43.214-121.051 -56.184  0.00  0.00    -0.200 OA
BRANCH  16  19
ATOM     19  N   UNL d   1     -42.709-121.233 -57.210  0.00  0.00    -0.229 N 
ATOM     20  C   UNL d   1     -43.430-121.399 -57.562  0.00  0.00     0.092 A 
ATOM     21  C   UNL d   1     -43.582-121.170 -58.350  0.00  0.00     0.020 A 
ATOM     22  C   UNL d   1     -43.008-120.776 -58.778  0.00  0.00     0.003 A 
ATOM     23  C   UNL d   1     -42.276-120.602 -58.434  0.00  0.00     0.020 A 
ATOM     24  C   UNL d   1     -42.125-120.831 -57.647  0.00  0.00     0.092 A 
ENDBRANCH  16  19
ENDBRANCH  13  16
ENDBRANCH   8  10
ENDBRANCH   4   7
BRANCH   1  25
ATOM     25  N   UNL d   1     -41.920-123.025 -49.576  0.00  0.00    -0.211 N 
ATOM     26  C   UNL d   1     -42.487-123.166 -48.983  0.00  0.00     0.105 A 
ATOM     27  C   UNL d   1     -42.082-123.363 -48.290  0.00  0.00     0.143 A 
ATOM     28  N   UNL d   1     -41.266-123.347 -48.445  0.00  0.00    -0.127 NA
ATOM     29  N   UNL d   1     -41.165-123.138 -49.241  0.00  0.00    -0.060 NA
BRANCH  26  30
ATOM     30  C   UNL d   1     -43.297-123.117 -49.072  0.00  0.00     0.019 A 
ATOM     31  C   UNL d   1     -43.676-122.388 -48.995  0.00  0.00     0.004 A 
ATOM     32  C   UNL d   1     -44.495-122.338 -49.086  0.00  0.00     0.024 A 
ATOM     33  C   UNL d   1     -44.934-123.007 -49.251  0.00  0.00     0.094 A 
ATOM     34  C   UNL d   1     -44.552-123.744 -49.329  0.00  0.00     0.024 A 
ATOM     35  C   UNL d   1     -43.734-123.798 -49.239  0.00  0.00     0.004 A 
BRANCH  33  36
ATOM     36  O   UNL d   1     -45.749-122.966 -49.342  0.00  0.00    -0.328 OA
ATOM     37  C   UNL d   1     -46.087-122.904 -50.087  0.00  0.00     0.181 C 
ENDBRANCH  33  36
ENDBRANCH  26  30
ENDBRANCH   1  25
TORSDOF 7
ENDMDL
