MODEL 1
REMARK VINA RESULT:      35.3      0.000      0.000
REMARK  5 active torsions:
REMARK  status: ('A' for Active; 'I' for Inactive)
REMARK    1  A    between atoms: C_7  and  C_1 
REMARK    2  A    between atoms: C_13  and  N_3 
REMARK       I    between atoms: C_6  and  N_10 
REMARK    3  A    between atoms: C_8  and  C_6 
REMARK    4  A    between atoms: C_14  and  C_7 
REMARK    5  A    between atoms: N_10  and  C_14 
ROOT
ATOM      1  C   UNL d   1     -57.087 -98.757 -44.035  0.00  0.00     0.058 C 
ENDROOT
BRANCH   1   2
ATOM      2  C   UNL d   1     -57.655 -98.757 -44.638  0.00  0.00     0.149 A 
ATOM      3  N   UNL d   1     -57.505 -98.756 -45.443  0.00  0.00    -0.227 NA
ATOM      4  C   UNL d   1     -58.225 -98.757 -45.840  0.00  0.00     0.099 A 
ATOM      5  C   UNL d   1     -58.406 -98.756 -46.653  0.00  0.00     0.021 A 
ATOM      6  C   UNL d   1     -58.829 -98.760 -45.279  0.00  0.00     0.083 A 
ATOM      7  C   UNL d   1     -59.199 -98.758 -46.891  0.00  0.00     0.002 A 
ATOM      8  C   UNL d   1     -59.799 -98.761 -46.327  0.00  0.00     0.002 A 
ATOM      9  C   UNL d   1     -59.621 -98.762 -45.517  0.00  0.00     0.019 A 
ATOM     10  N   UNL d   1     -58.475 -98.760 -44.528  0.00  0.00    -0.289 N 
BRANCH  10  11
ATOM     11  C   UNL d   1     -58.867 -98.762 -43.800  0.00  0.00     0.082 C 
ATOM     12  C   UNL d   1     -59.691 -98.843 -43.778  0.00  0.00     0.021 C 
ENDBRANCH  10  11
ENDBRANCH   1   2
BRANCH   1  13
ATOM     13  C   UNL d   1     -56.308 -98.980 -44.208  0.00  0.00     0.105 C 
BRANCH  13  14
ATOM     14  N   UNL d   1     -55.977 -98.802 -44.936  0.00  0.00    -0.206 NA
ATOM     15  C   UNL d   1     -55.459 -99.333 -45.297  0.00  0.00     0.279 C 
ATOM     16  O   UNL d   1     -55.131 -99.146 -46.028  0.00  0.00    -0.265 OA
BRANCH  15  17
ATOM     17  C   UNL d   1     -55.273-100.041 -44.927  0.00  0.00     0.058 A 
ATOM     18  C   UNL d   1     -54.956-100.034 -44.169  0.00  0.00     0.007 A 
ATOM     19  C   UNL d   1     -54.771-100.743 -43.798  0.00  0.00     0.030 A 
ATOM     20  C   UNL d   1     -54.899-101.462 -44.177  0.00  0.00     0.140 A 
ATOM     21  C   UNL d   1     -55.217-101.464 -44.936  0.00  0.00     0.030 A 
ATOM     22  F   UNL d   1     -54.712-102.182 -43.804  0.00  0.00    -0.204 F 
ATOM     23  C   UNL d   1     -55.402-100.762 -45.306  0.00  0.00     0.007 A 
ENDBRANCH  15  17
ENDBRANCH  13  14
ENDBRANCH   1  13
TORSDOF 5
ENDMDL
MODEL 2
REMARK VINA RESULT:      36.2      0.976      1.942
REMARK  5 active torsions:
REMARK  status: ('A' for Active; 'I' for Inactive)
REMARK    1  A    between atoms: C_7  and  C_1 
REMARK    2  A    between atoms: C_13  and  N_3 
REMARK       I    between atoms: C_6  and  N_10 
REMARK    3  A    between atoms: C_8  and  C_6 
REMARK    4  A    between atoms: C_14  and  C_7 
REMARK    5  A    between atoms: N_10  and  C_14 
ROOT
ATOM      1  C   UNL d   1     -56.985 -98.883 -45.206  0.00  0.00     0.058 C 
ENDROOT
BRANCH   1   2
ATOM      2  C   UNL d   1     -57.569 -98.854 -44.619  0.00  0.00     0.149 A 
ATOM      3  N   UNL d   1     -57.440 -98.843 -43.810  0.00  0.00    -0.227 NA
ATOM      4  C   UNL d   1     -58.169 -98.814 -43.433  0.00  0.00     0.099 A 
ATOM      5  C   UNL d   1     -58.372 -98.793 -42.624  0.00  0.00     0.021 A 
ATOM      6  C   UNL d   1     -58.758 -98.806 -44.010  0.00  0.00     0.083 A 
ATOM      7  C   UNL d   1     -59.171 -98.764 -42.408  0.00  0.00     0.002 A 
ATOM      8  C   UNL d   1     -59.755 -98.756 -42.988  0.00  0.00     0.002 A 
ATOM      9  C   UNL d   1     -59.556 -98.777 -43.793  0.00  0.00     0.019 A 
ATOM     10  N   UNL d   1     -58.385 -98.830 -44.750  0.00  0.00    -0.289 N 
BRANCH  10  11
ATOM     11  C   UNL d   1     -58.757 -98.832 -45.489  0.00  0.00     0.082 C 
ATOM     12  C   UNL d   1     -59.582 -98.774 -45.532  0.00  0.00     0.021 C 
ENDBRANCH  10  11
ENDBRANCH   1   2
BRANCH   1  13
ATOM     13  C   UNL d   1     -56.188 -98.936 -44.987  0.00  0.00     0.105 C 
BRANCH  13  14
ATOM     14  N   UNL d   1     -55.955 -98.757 -44.223  0.00  0.00    -0.206 NA
ATOM     15  C   UNL d   1     -55.520 -99.303 -43.782  0.00  0.00     0.279 C 
ATOM     16  O   UNL d   1     -55.290 -99.115 -43.016  0.00  0.00    -0.265 OA
BRANCH  15  17
ATOM     17  C   UNL d   1     -55.319-100.028 -44.111  0.00  0.00     0.058 A 
ATOM     18  C   UNL d   1     -55.503-100.721 -43.711  0.00  0.00     0.007 A 
ATOM     19  C   UNL d   1     -55.303-101.446 -44.040  0.00  0.00     0.030 A 
ATOM     20  C   UNL d   1     -54.920-101.487 -44.767  0.00  0.00     0.140 A 
ATOM     21  C   UNL d   1     -54.738-100.790 -45.164  0.00  0.00     0.030 A 
ATOM     22  F   UNL d   1     -54.716-102.221 -45.103  0.00  0.00    -0.204 F 
ATOM     23  C   UNL d   1     -54.936-100.069 -44.839  0.00  0.00     0.007 A 
ENDBRANCH  15  17
ENDBRANCH  13  14
ENDBRANCH   1  13
TORSDOF 5
ENDMDL
