MODEL 1
REMARK VINA RESULT:      54.0      0.000      0.000
REMARK  4 active torsions:
REMARK  status: ('A' for Active; 'I' for Inactive)
REMARK    1  A    between atoms: C_7  and  C_1 
REMARK    2  A    between atoms: C_8  and  C_7 
REMARK       I    between atoms: N_9  and  C_8 
REMARK    3  A    between atoms: C_14  and  N_9 
REMARK    4  A    between atoms: C_15  and  C_14 
ROOT
ATOM      1  C   UNL d   1      58.737  49.681  51.192  0.00  0.00     0.032 A 
ATOM      2  C   UNL d   1      57.933  49.683  50.997  0.00  0.00     0.025 A 
ATOM      3  C   UNL d   1      58.886  49.695  52.003  0.00  0.00     0.123 A 
ATOM      4  O   UNL d   1      58.029  49.707  52.334  0.00  0.00    -0.305 OA
ATOM      5  C   UNL d   1      57.536  49.673  50.271  0.00  0.00     0.002 A 
ATOM      6  C   UNL d   1      57.497  49.699  51.701  0.00  0.00     0.100 A 
ATOM      7  C   UNL d   1      56.716  49.678  50.243  0.00  0.00     0.000 A 
ATOM      8  C   UNL d   1      56.668  49.704  51.672  0.00  0.00     0.025 A 
ATOM      9  C   UNL d   1      56.280  49.694  50.947  0.00  0.00     0.002 A 
ATOM     10  C   UNL d   1      57.970  49.657  49.571  0.00  0.00     0.000 A 
ATOM     11  C   UNL d   1      56.333  49.668  49.526  0.00  0.00     0.000 A 
ATOM     12  C   UNL d   1      57.582  49.647  48.846  0.00  0.00     0.000 A 
ATOM     13  C   UNL d   1      56.754  49.652  48.832  0.00  0.00     0.000 A 
ENDROOT
BRANCH   1  14
ATOM     14  C   UNL d   1      59.368  49.667  50.657  0.00  0.00     0.065 C 
BRANCH  14  15
ATOM     15  C   UNL d   1      60.084  49.312  50.868  0.00  0.00     0.279 C 
ATOM     16  N   UNL d   1      60.266  48.557  50.591  0.00  0.00    -0.206 NA
ATOM     17  O   UNL d   1      60.613  49.707  51.352  0.00  0.00    -0.265 OA
BRANCH  16  18
ATOM     18  C   UNL d   1      60.971  48.202  50.797  0.00  0.00     0.102 C 
BRANCH  18  19
ATOM     19  C   UNL d   1      61.184  47.470  50.473  0.00  0.00     0.019 A 
ATOM     20  C   UNL d   1      60.841  46.786  50.767  0.00  0.00     0.002 A 
ATOM     21  C   UNL d   1      61.048  46.056  50.450  0.00  0.00     0.000 A 
ATOM     22  C   UNL d   1      61.598  46.011  49.838  0.00  0.00     0.000 A 
ATOM     23  C   UNL d   1      61.943  46.712  49.545  0.00  0.00     0.000 A 
ATOM     24  C   UNL d   1      61.731  47.435  49.866  0.00  0.00     0.002 A 
ENDBRANCH  18  19
ENDBRANCH  16  18
ENDBRANCH  14  15
ENDBRANCH   1  14
TORSDOF 4
ENDMDL
