MODEL 1
REMARK VINA RESULT:      53.0      0.000      0.000
REMARK  8 active torsions:
REMARK  status: ('A' for Active; 'I' for Inactive)
REMARK    1  A    between atoms: S_10  and  C_2 
REMARK    2  A    between atoms: C_7  and  C_4 
REMARK    3  A    between atoms: C_17  and  S_10 
REMARK    4  A    between atoms: C_14  and  C_17 
REMARK    5  A    between atoms: O_18  and  C_14 
REMARK    6  A    between atoms: O_19  and  C_15 
REMARK    7  A    between atoms: C_22  and  O_18 
REMARK    8  A    between atoms: C_24  and  C_22 
ROOT
ATOM      1  C   UNL d   1      13.953  13.540  -2.400  0.00  0.00     0.093 A 
ATOM      2  C   UNL d   1      13.888  14.173  -2.938  0.00  0.00     0.124 A 
ATOM      3  N   UNL d   1      14.185  14.915  -2.736  0.00  0.00    -0.200 NA
ATOM      4  C   UNL d   1      14.314  13.658  -1.668  0.00  0.00     0.028 A 
ATOM      5  C   UNL d   1      14.610  14.399  -1.469  0.00  0.00     0.127 A 
ATOM      6  C   UNL d   1      14.545  15.032  -2.007  0.00  0.00     0.289 A 
ATOM      7  C   UNL d   1      13.659  12.802  -2.597  0.00  0.00     0.103 C 
ATOM      8  C   UNL d   1      14.972  14.517  -0.737  0.00  0.00     0.106 C 
ATOM      9  N   UNL d   1      13.366  12.072  -2.796  0.00  0.00    -0.191 NA
ATOM     10  N   UNL d   1      15.327  14.634  -0.017  0.00  0.00    -0.191 NA
ATOM     11  O   UNL d   1      14.884  15.818  -1.740  0.00  0.00    -0.264 OA
ENDROOT
BRANCH   2  12
ATOM     12  S   UNL d   1      13.499  13.990  -3.691  0.00  0.00    -0.061 SA
BRANCH  12  13
ATOM     13  C   UNL d   1      13.300  14.529  -4.345  0.00  0.00     0.105 C 
BRANCH  13  14
ATOM     14  C   UNL d   1      13.918  14.759  -4.910  0.00  0.00     0.307 C 
ATOM     15  O   UNL d   1      14.203  14.408  -5.183  0.00  0.00    -0.258 OA
BRANCH  14  16
ATOM     16  O   UNL d   1      14.031  15.634  -4.992  0.00  0.00    -0.271 OA
BRANCH  16  17
ATOM     17  C   UNL d   1      13.898  15.966  -5.822  0.00  0.00     0.126 C 
BRANCH  17  18
ATOM     18  C   UNL d   1      13.695  16.876  -5.732  0.00  0.00     0.027 C 
ATOM     19  C   UNL d   1      13.117  17.092  -6.389  0.00  0.00     0.002 C 
ENDBRANCH  17  18
ENDBRANCH  16  17
ENDBRANCH  14  16
ENDBRANCH  13  14
ENDBRANCH  12  13
ENDBRANCH   2  12
BRANCH   4  20
ATOM     20  C   UNL d   1      14.378  13.034  -1.138  0.00  0.00     0.024 A 
ATOM     21  C   UNL d   1      15.009  12.509  -1.196  0.00  0.00     0.094 A 
ATOM     22  C   UNL d   1      15.073  11.883  -0.663  0.00  0.00     0.024 A 
ATOM     23  C   UNL d   1      14.507  11.780  -0.073  0.00  0.00     0.002 A 
ATOM     24  C   UNL d   1      13.874  12.308  -0.017  0.00  0.00     0.000 A 
ATOM     25  C   UNL d   1      13.810  12.935  -0.549  0.00  0.00     0.002 A 
BRANCH  21  26
ATOM     26  O   UNL d   1      15.527  12.527  -1.664  0.00  0.00    -0.328 OA
ATOM     27  C   UNL d   1      16.140  11.935  -1.657  0.00  0.00     0.181 C 
ENDBRANCH  21  26
ENDBRANCH   4  20
TORSDOF 8
ENDMDL
MODEL 2
REMARK VINA RESULT:      53.4      1.357      2.538
REMARK  8 active torsions:
REMARK  status: ('A' for Active; 'I' for Inactive)
REMARK    1  A    between atoms: S_10  and  C_2 
REMARK    2  A    between atoms: C_7  and  C_4 
REMARK    3  A    between atoms: C_17  and  S_10 
REMARK    4  A    between atoms: C_14  and  C_17 
REMARK    5  A    between atoms: O_18  and  C_14 
REMARK    6  A    between atoms: O_19  and  C_15 
REMARK    7  A    between atoms: C_22  and  O_18 
REMARK    8  A    between atoms: C_24  and  C_22 
ROOT
ATOM      1  C   UNL d   1      14.762  14.304  -1.675  0.00  0.00     0.093 A 
ATOM      2  C   UNL d   1      14.562  14.893  -2.230  0.00  0.00     0.124 A 
ATOM      3  N   UNL d   1      14.127  14.692  -2.900  0.00  0.00    -0.200 NA
ATOM      4  C   UNL d   1      14.525  13.524  -1.799  0.00  0.00     0.028 A 
ATOM      5  C   UNL d   1      14.090  13.327  -2.468  0.00  0.00     0.127 A 
ATOM      6  C   UNL d   1      13.890  13.915  -3.023  0.00  0.00     0.289 A 
ATOM      7  C   UNL d   1      15.195  14.499  -1.008  0.00  0.00     0.103 C 
ATOM      8  C   UNL d   1      13.852  12.547  -2.592  0.00  0.00     0.106 C 
ATOM      9  N   UNL d   1      15.623  14.697  -0.348  0.00  0.00    -0.191 NA
ATOM     10  N   UNL d   1      13.618  11.780  -2.715  0.00  0.00    -0.191 NA
ATOM     11  O   UNL d   1      13.416  13.647  -3.735  0.00  0.00    -0.264 OA
ENDROOT
BRANCH   2  12
ATOM     12  S   UNL d   1      14.839  15.694  -2.047  0.00  0.00    -0.061 SA
BRANCH  12  13
ATOM     13  C   UNL d   1      15.202  16.278  -2.580  0.00  0.00     0.105 C 
BRANCH  13  14
ATOM     14  C   UNL d   1      14.884  17.085  -2.608  0.00  0.00     0.307 C 
ATOM     15  O   UNL d   1      14.739  17.352  -2.176  0.00  0.00    -0.258 OA
BRANCH  14  16
ATOM     16  O   UNL d   1      14.821  17.426  -3.423  0.00  0.00    -0.271 OA
BRANCH  16  17
ATOM     17  C   UNL d   1      15.552  17.321  -3.945  0.00  0.00     0.126 C 
BRANCH  17  18
ATOM     18  C   UNL d   1      15.257  17.250  -4.831  0.00  0.00     0.027 C 
ATOM     19  C   UNL d   1      15.930  16.895  -5.314  0.00  0.00     0.002 C 
ENDBRANCH  17  18
ENDBRANCH  16  17
ENDBRANCH  14  16
ENDBRANCH  13  14
ENDBRANCH  12  13
ENDBRANCH   2  12
BRANCH   4  20
ATOM     20  C   UNL d   1      14.722  12.945  -1.252  0.00  0.00     0.024 A 
ATOM     21  C   UNL d   1      14.280  12.861  -0.564  0.00  0.00     0.094 A 
ATOM     22  C   UNL d   1      14.478  12.278  -0.015  0.00  0.00     0.024 A 
ATOM     23  C   UNL d   1      15.119  11.779  -0.152  0.00  0.00     0.002 A 
ATOM     24  C   UNL d   1      15.563  11.865  -0.844  0.00  0.00     0.000 A 
ATOM     25  C   UNL d   1      15.365  12.448  -1.394  0.00  0.00     0.002 A 
BRANCH  21  26
ATOM     26  O   UNL d   1      13.725  13.240  -0.374  0.00  0.00    -0.328 OA
ATOM     27  C   UNL d   1      13.041  12.869  -0.028  0.00  0.00     0.181 C 
ENDBRANCH  21  26
ENDBRANCH   4  20
TORSDOF 8
ENDMDL
