MODEL 1
REMARK VINA RESULT:      49.3      0.000      0.000
REMARK  4 active torsions:
REMARK  status: ('A' for Active; 'I' for Inactive)
REMARK    1  A    between atoms: C_6  and  C_1 
REMARK    2  A    between atoms: C_8  and  N_3 
REMARK    3  A    between atoms: C_7  and  C_4 
REMARK    4  A    between atoms: O_16  and  C_13 
ROOT
ATOM      1  C   UNL d   1     -55.030-101.597 -42.703  0.00  0.00     0.103 A 
ATOM      2  N   UNL d   1     -54.712-100.409 -41.976  0.00  0.00    -0.165 NA
ATOM      3  N   UNL d   1     -54.908-101.632 -41.279  0.00  0.00    -0.228 N 
ATOM      4  C   UNL d   1     -54.857-100.790 -42.687  0.00  0.00     0.109 A 
ATOM      5  C   UNL d   1     -55.053-102.013 -41.990  0.00  0.00     0.108 A 
ENDROOT
BRANCH   4   6
ATOM      6  C   UNL d   1     -54.832-100.369 -43.391  0.00  0.00     0.020 A 
ATOM      7  C   UNL d   1     -54.834-100.771 -44.113  0.00  0.00     0.004 A 
ATOM      8  C   UNL d   1     -54.809-100.343 -44.825  0.00  0.00     0.024 A 
ATOM      9  C   UNL d   1     -54.781 -99.521 -44.809  0.00  0.00     0.094 A 
ATOM     10  C   UNL d   1     -54.779 -99.119 -44.087  0.00  0.00     0.024 A 
ATOM     11  C   UNL d   1     -54.805 -99.547 -43.375  0.00  0.00     0.004 A 
BRANCH   9  12
ATOM     12  O   UNL d   1     -54.755 -99.079 -45.541  0.00  0.00    -0.328 OA
ATOM     13  C   UNL d   1     -55.473 -98.795 -45.886  0.00  0.00     0.181 C 
ENDBRANCH   9  12
ENDBRANCH   4   6
BRANCH   1  14
ATOM     14  C   UNL d   1     -55.176-101.979 -43.415  0.00  0.00     0.214 C 
ATOM     15  O   UNL d   1     -55.747-101.691 -43.936  0.00  0.00    -0.644 OA
ATOM     16  O   UNL d   1     -54.733-102.684 -43.624  0.00  0.00    -0.644 OA
ENDBRANCH   1  14
BRANCH   3  17
ATOM     17  C   UNL d   1     -54.884-101.862 -40.487  0.00  0.00     0.083 A 
ATOM     18  C   UNL d   1     -55.007-101.307 -39.892  0.00  0.00     0.019 A 
ATOM     19  C   UNL d   1     -54.983-101.538 -39.100  0.00  0.00     0.002 A 
ATOM     20  C   UNL d   1     -54.837-102.324 -38.904  0.00  0.00     0.000 A 
ATOM     21  C   UNL d   1     -54.715-102.879 -39.499  0.00  0.00     0.002 A 
ATOM     22  C   UNL d   1     -54.739-102.649 -40.291  0.00  0.00     0.019 A 
ENDBRANCH   3  17
TORSDOF 4
ENDMDL
