MODEL 1
REMARK VINA RESULT:      -3.8      0.000      0.000
REMARK  1 active torsions:
REMARK  status: ('A' for Active; 'I' for Inactive)
REMARK    1  A    between atoms: C_12  and  C_1 
ROOT
ATOM      1  C   UNL d   1      56.175  -0.806  32.960  0.00  0.00     0.019 A 
ATOM      2  C   UNL d   1      57.015   0.309  32.639  0.00  0.00     0.103 A 
ATOM      3  C   UNL d   1      56.704  -0.431  32.451  0.00  0.00     0.024 A 
ATOM      4  O   UNL d   1      56.799   0.682  33.341  0.00  0.00    -0.273 OA
ATOM      5  C   UNL d   1      56.269   0.307  33.852  0.00  0.00     0.300 A 
ATOM      6  C   UNL d   1      55.957  -0.434  33.665  0.00  0.00     0.070 A 
ATOM      7  C   UNL d   1      56.923  -0.801  31.747  0.00  0.00     0.002 A 
ATOM      8  C   UNL d   1      57.547   0.680  32.121  0.00  0.00     0.025 A 
ATOM      9  C   UNL d   1      57.449  -0.436  31.232  0.00  0.00     0.000 A 
ATOM     10  O   UNL d   1      56.049   0.680  34.561  0.00  0.00    -0.259 OA
ATOM     11  C   UNL d   1      57.762   0.308  31.420  0.00  0.00     0.002 A 
ATOM     12  C   UNL d   1      56.615  -1.541  31.553  0.00  0.00     0.000 C 
ATOM     13  C   UNL d   1      58.294   0.675  30.899  0.00  0.00     0.000 C 
ENDROOT
BRANCH   1  14
ATOM     14  C   UNL d   1      55.868  -1.547  32.766  0.00  0.00     0.069 C 
ATOM     15 CL   UNL d   1      55.440  -1.969  33.329  0.00  0.00    -0.082 Cl
ENDBRANCH   1  14
TORSDOF 1
ENDMDL
MODEL 2
REMARK VINA RESULT:      -3.6      1.117      2.567
REMARK  1 active torsions:
REMARK  status: ('A' for Active; 'I' for Inactive)
REMARK    1  A    between atoms: C_12  and  C_1 
ROOT
ATOM      1  C   UNL d   1      56.640  -0.550  32.556  0.00  0.00     0.019 A 
ATOM      2  C   UNL d   1      56.562   0.374  33.648  0.00  0.00     0.103 A 
ATOM      3  C   UNL d   1      56.236  -0.239  33.203  0.00  0.00     0.024 A 
ATOM      4  O   UNL d   1      57.299   0.682  33.448  0.00  0.00    -0.273 OA
ATOM      5  C   UNL d   1      57.707   0.371  32.799  0.00  0.00     0.300 A 
ATOM      6  C   UNL d   1      57.380  -0.242  32.353  0.00  0.00     0.070 A 
ATOM      7  C   UNL d   1      55.497  -0.544  33.407  0.00  0.00     0.002 A 
ATOM      8  C   UNL d   1      56.149   0.682  34.298  0.00  0.00     0.025 A 
ATOM      9  C   UNL d   1      55.085  -0.242  34.049  0.00  0.00     0.000 A 
ATOM     10  O   UNL d   1      58.451   0.679  32.595  0.00  0.00    -0.259 OA
ATOM     11  C   UNL d   1      55.413   0.374  34.497  0.00  0.00     0.002 A 
ATOM     12  C   UNL d   1      55.164  -1.157  32.966  0.00  0.00     0.000 C 
ATOM     13  C   UNL d   1      54.995   0.679  35.147  0.00  0.00     0.000 C 
ENDROOT
BRANCH   1  14
ATOM     14  C   UNL d   1      56.307  -1.163  32.115  0.00  0.00     0.069 C 
ATOM     15 CL   UNL d   1      56.695  -1.435  31.441  0.00  0.00    -0.082 Cl
ENDBRANCH   1  14
TORSDOF 1
ENDMDL
MODEL 3
REMARK VINA RESULT:      -3.2      1.628      1.943
REMARK  1 active torsions:
REMARK  status: ('A' for Active; 'I' for Inactive)
REMARK    1  A    between atoms: C_12  and  C_1 
ROOT
ATOM      1  C   UNL d   1      56.534   0.675  33.910  0.00  0.00     0.019 A 
ATOM      2  C   UNL d   1      56.147   0.668  32.531  0.00  0.00     0.103 A 
ATOM      3  C   UNL d   1      56.733   0.673  33.111  0.00  0.00     0.024 A 
ATOM      4  O   UNL d   1      55.352   0.665  32.747  0.00  0.00    -0.273 OA
ATOM      5  C   UNL d   1      55.150   0.667  33.550  0.00  0.00     0.300 A 
ATOM      6  C   UNL d   1      55.737   0.672  34.130  0.00  0.00     0.070 A 
ATOM      7  C   UNL d   1      57.528   0.676  32.889  0.00  0.00     0.002 A 
ATOM      8  C   UNL d   1      56.355   0.666  31.728  0.00  0.00     0.025 A 
ATOM      9  C   UNL d   1      57.738   0.674  32.095  0.00  0.00     0.000 A 
ATOM     10  O   UNL d   1      54.350   0.664  33.771  0.00  0.00    -0.259 OA
ATOM     11  C   UNL d   1      57.149   0.669  31.512  0.00  0.00     0.002 A 
ATOM     12  C   UNL d   1      58.120   0.681  33.464  0.00  0.00     0.000 C 
ATOM     13  C   UNL d   1      57.363   0.667  30.710  0.00  0.00     0.000 C 
ENDROOT
BRANCH   1  14
ATOM     14  C   UNL d   1      57.126   0.680  34.485  0.00  0.00     0.069 C 
ATOM     15 CL   UNL d   1      56.920   0.613  35.280  0.00  0.00    -0.082 Cl
ENDBRANCH   1  14
TORSDOF 1
ENDMDL
MODEL 4
REMARK VINA RESULT:      -3.0      3.044      4.311
REMARK  1 active torsions:
REMARK  status: ('A' for Active; 'I' for Inactive)
REMARK    1  A    between atoms: C_12  and  C_1 
ROOT
ATOM      1  C   UNL d   1      59.029  -0.908  29.262  0.00  0.00     0.019 A 
ATOM      2  C   UNL d   1      57.993  -1.166  30.217  0.00  0.00     0.103 A 
ATOM      3  C   UNL d   1      58.512  -0.644  29.846  0.00  0.00     0.024 A 
ATOM      4  O   UNL d   1      57.987  -1.962  30.005  0.00  0.00    -0.273 OA
ATOM      5  C   UNL d   1      58.505  -2.229  29.419  0.00  0.00     0.300 A 
ATOM      6  C   UNL d   1      59.025  -1.707  29.047  0.00  0.00     0.070 A 
ATOM      7  C   UNL d   1      58.514   0.153  30.062  0.00  0.00     0.002 A 
ATOM      8  C   UNL d   1      57.475  -0.892  30.804  0.00  0.00     0.025 A 
ATOM      9  C   UNL d   1      58.003   0.428  30.643  0.00  0.00     0.000 A 
ATOM     10  O   UNL d   1      58.502  -3.032  29.202  0.00  0.00    -0.259 OA
ATOM     11  C   UNL d   1      57.481  -0.098  31.016  0.00  0.00     0.002 A 
ATOM     12  C   UNL d   1      59.030   0.682  29.695  0.00  0.00     0.000 C 
ATOM     13  C   UNL d   1      56.965   0.182  31.604  0.00  0.00     0.000 C 
ENDROOT
BRANCH   1  14
ATOM     14  C   UNL d   1      59.545  -0.379  28.895  0.00  0.00     0.069 C 
ATOM     15 CL   UNL d   1      60.249  -0.659  28.570  0.00  0.00    -0.082 Cl
ENDBRANCH   1  14
TORSDOF 1
ENDMDL
MODEL 5
REMARK VINA RESULT:      -3.0      3.758      4.898
REMARK  1 active torsions:
REMARK  status: ('A' for Active; 'I' for Inactive)
REMARK    1  A    between atoms: C_12  and  C_1 
ROOT
ATOM      1  C   UNL d   1      59.712  -0.412  29.388  0.00  0.00     0.019 A 
ATOM      2  C   UNL d   1      58.802  -1.516  29.313  0.00  0.00     0.103 A 
ATOM      3  C   UNL d   1      59.561  -1.206  29.229  0.00  0.00     0.024 A 
ATOM      4  O   UNL d   1      58.183  -1.031  29.558  0.00  0.00    -0.273 OA
ATOM      5  C   UNL d   1      58.332  -0.233  29.718  0.00  0.00     0.300 A 
ATOM      6  C   UNL d   1      59.092   0.077  29.634  0.00  0.00     0.070 A 
ATOM      7  C   UNL d   1      60.178  -1.697  28.984  0.00  0.00     0.002 A 
ATOM      8  C   UNL d   1      58.659  -2.317  29.152  0.00  0.00     0.025 A 
ATOM      9  C   UNL d   1      60.040  -2.490  28.823  0.00  0.00     0.000 A 
ATOM     10  O   UNL d   1      57.711   0.259  29.965  0.00  0.00    -0.259 OA
ATOM     11  C   UNL d   1      59.277  -2.801  28.907  0.00  0.00     0.002 A 
ATOM     12  C   UNL d   1      60.941  -1.394  28.897  0.00  0.00     0.000 C 
ATOM     13  C   UNL d   1      59.139  -3.604  28.744  0.00  0.00     0.000 C 
ENDROOT
BRANCH   1  14
ATOM     14  C   UNL d   1      60.475  -0.109  29.301  0.00  0.00     0.069 C 
ATOM     15 CL   UNL d   1      60.621   0.681  29.484  0.00  0.00    -0.082 Cl
ENDBRANCH   1  14
TORSDOF 1
ENDMDL
MODEL 6
REMARK VINA RESULT:      -2.8      9.774     10.147
REMARK  1 active torsions:
REMARK  status: ('A' for Active; 'I' for Inactive)
REMARK    1  A    between atoms: C_12  and  C_1 
ROOT
ATOM      1  C   UNL d   1      59.670  -9.780  32.133  0.00  0.00     0.019 A 
ATOM      2  C   UNL d   1      58.966  -9.666  33.375  0.00  0.00     0.103 A 
ATOM      3  C   UNL d   1      59.673  -9.704  32.953  0.00  0.00     0.024 A 
ATOM      4  O   UNL d   1      58.245  -9.704  32.977  0.00  0.00    -0.273 OA
ATOM      5  C   UNL d   1      58.240  -9.780  32.153  0.00  0.00     0.300 A 
ATOM      6  C   UNL d   1      58.948  -9.818  31.731  0.00  0.00     0.070 A 
ATOM      7  C   UNL d   1      60.392  -9.666  33.356  0.00  0.00     0.002 A 
ATOM      8  C   UNL d   1      58.976  -9.590  34.200  0.00  0.00     0.025 A 
ATOM      9  C   UNL d   1      60.407  -9.591  34.174  0.00  0.00     0.000 A 
ATOM     10  O   UNL d   1      57.516  -9.818  31.749  0.00  0.00    -0.259 OA
ATOM     11  C   UNL d   1      59.696  -9.552  34.598  0.00  0.00     0.002 A 
ATOM     12  C   UNL d   1      61.104  -9.704  32.941  0.00  0.00     0.000 C 
ATOM     13  C   UNL d   1      59.713  -9.476  35.425  0.00  0.00     0.000 C 
ENDROOT
BRANCH   1  14
ATOM     14  C   UNL d   1      60.382  -9.818  31.717  0.00  0.00     0.069 C 
ATOM     15 CL   UNL d   1      60.376  -9.764  30.895  0.00  0.00    -0.082 Cl
ENDBRANCH   1  14
TORSDOF 1
ENDMDL
MODEL 7
REMARK VINA RESULT:      -2.3      3.524      4.621
REMARK  1 active torsions:
REMARK  status: ('A' for Active; 'I' for Inactive)
REMARK    1  A    between atoms: C_12  and  C_1 
ROOT
ATOM      1  C   UNL d   1      59.200  -1.889  29.273  0.00  0.00     0.019 A 
ATOM      2  C   UNL d   1      59.457  -0.480  29.283  0.00  0.00     0.103 A 
ATOM      3  C   UNL d   1      59.677  -1.247  29.076  0.00  0.00     0.024 A 
ATOM      4  O   UNL d   1      58.754  -0.349  29.692  0.00  0.00    -0.273 OA
ATOM      5  C   UNL d   1      58.275  -0.992  29.891  0.00  0.00     0.300 A 
ATOM      6  C   UNL d   1      58.495  -1.760  29.684  0.00  0.00     0.070 A 
ATOM      7  C   UNL d   1      60.382  -1.374  28.666  0.00  0.00     0.002 A 
ATOM      8  C   UNL d   1      59.942   0.161  29.080  0.00  0.00     0.025 A 
ATOM      9  C   UNL d   1      60.865  -0.741  28.463  0.00  0.00     0.000 A 
ATOM     10  O   UNL d   1      57.565  -0.863  30.304  0.00  0.00    -0.259 OA
ATOM     11  C   UNL d   1      60.644   0.030  28.672  0.00  0.00     0.002 A 
ATOM     12  C   UNL d   1      60.609  -2.139  28.455  0.00  0.00     0.000 C 
ATOM     13  C   UNL d   1      61.133   0.669  28.466  0.00  0.00     0.000 C 
ENDROOT
BRANCH   1  14
ATOM     14  C   UNL d   1      59.427  -2.654  29.063  0.00  0.00     0.069 C 
ATOM     15 CL   UNL d   1      58.879  -3.268  29.110  0.00  0.00    -0.082 Cl
ENDBRANCH   1  14
TORSDOF 1
ENDMDL
MODEL 8
REMARK VINA RESULT:      -1.8      2.299      3.332
REMARK  1 active torsions:
REMARK  status: ('A' for Active; 'I' for Inactive)
REMARK    1  A    between atoms: C_12  and  C_1 
ROOT
ATOM      1  C   UNL d   1      58.267   0.682  30.672  0.00  0.00     0.019 A 
ATOM      2  C   UNL d   1      58.478   0.682  32.089  0.00  0.00     0.103 A 
ATOM      3  C   UNL d   1      57.970   0.682  31.441  0.00  0.00     0.024 A 
ATOM      4  O   UNL d   1      59.294   0.682  31.974  0.00  0.00    -0.273 OA
ATOM      5  C   UNL d   1      59.595   0.682  31.203  0.00  0.00     0.300 A 
ATOM      6  C   UNL d   1      59.085   0.682  30.554  0.00  0.00     0.070 A 
ATOM      7  C   UNL d   1      57.153   0.682  31.561  0.00  0.00     0.002 A 
ATOM      8  C   UNL d   1      58.171   0.682  32.860  0.00  0.00     0.025 A 
ATOM      9  C   UNL d   1      56.845   0.682  32.323  0.00  0.00     0.000 A 
ATOM     10  O   UNL d   1      60.417   0.682  31.083  0.00  0.00    -0.259 OA
ATOM     11  C   UNL d   1      57.357   0.682  32.975  0.00  0.00     0.002 A 
ATOM     12  C   UNL d   1      56.638   0.682  30.917  0.00  0.00     0.000 C 
ATOM     13  C   UNL d   1      57.044   0.682  33.744  0.00  0.00     0.000 C 
ENDROOT
BRANCH   1  14
ATOM     14  C   UNL d   1      57.752   0.682  30.028  0.00  0.00     0.069 C 
ATOM     15 CL   UNL d   1      58.058   0.672  29.263  0.00  0.00    -0.082 Cl
ENDBRANCH   1  14
TORSDOF 1
ENDMDL
MODEL 9
REMARK VINA RESULT:      -1.6      9.730      9.981
REMARK  1 active torsions:
REMARK  status: ('A' for Active; 'I' for Inactive)
REMARK    1  A    between atoms: C_12  and  C_1 
ROOT
ATOM      1  C   UNL d   1      57.723  -9.797  30.541  0.00  0.00     0.019 A 
ATOM      2  C   UNL d   1      59.136  -9.812  30.773  0.00  0.00     0.103 A 
ATOM      3  C   UNL d   1      58.495  -9.802  30.255  0.00  0.00     0.024 A 
ATOM      4  O   UNL d   1      59.009  -9.817  31.587  0.00  0.00    -0.273 OA
ATOM      5  C   UNL d   1      58.235  -9.812  31.876  0.00  0.00     0.300 A 
ATOM      6  C   UNL d   1      57.593  -9.802  31.357  0.00  0.00     0.070 A 
ATOM      7  C   UNL d   1      58.628  -9.798  29.440  0.00  0.00     0.002 A 
ATOM      8  C   UNL d   1      59.911  -9.817  30.477  0.00  0.00     0.025 A 
ATOM      9  C   UNL d   1      59.393  -9.803  29.143  0.00  0.00     0.000 A 
ATOM     10  O   UNL d   1      58.103  -9.816  32.696  0.00  0.00    -0.259 OA
ATOM     11  C   UNL d   1      60.038  -9.813  29.664  0.00  0.00     0.002 A 
ATOM     12  C   UNL d   1      57.991  -9.788  28.915  0.00  0.00     0.000 C 
ATOM     13  C   UNL d   1      60.812  -9.818  29.362  0.00  0.00     0.000 C 
ENDROOT
BRANCH   1  14
ATOM     14  C   UNL d   1      57.086  -9.787  30.016  0.00  0.00     0.069 C 
ATOM     15 CL   UNL d   1      56.319  -9.731  30.310  0.00  0.00    -0.082 Cl
ENDBRANCH   1  14
TORSDOF 1
ENDMDL
