MODEL 1
REMARK VINA RESULT:      10.8      0.000      0.000
REMARK  3 active torsions:
REMARK  status: ('A' for Active; 'I' for Inactive)
REMARK    1  A    between atoms: C_2  and  C_1 
REMARK       I    between atoms: N_5  and  C_2 
REMARK    2  A    between atoms: C_10  and  N_5 
REMARK    3  A    between atoms: O_16  and  C_11 
ROOT
ATOM      1  C   UNL d   1      46.008 -16.666  44.217  0.00  0.00     0.281 C 
ATOM      2  N   UNL d   1      45.763 -16.296  44.909  0.00  0.00    -0.208 NA
ATOM      3  O   UNL d   1      46.131 -16.223  43.532  0.00  0.00    -0.265 OA
ENDROOT
BRANCH   1   4
ATOM      4  C   UNL d   1      46.133 -17.482  44.197  0.00  0.00     0.083 A 
ATOM      5  C   UNL d   1      46.231 -17.875  43.474  0.00  0.00     0.009 A 
ATOM      6  C   UNL d   1      46.357 -18.699  43.466  0.00  0.00     0.023 A 
ATOM      7  C   UNL d   1      46.455 -19.090  42.748  0.00  0.00     0.002 A 
ATOM      8  C   UNL d   1      46.383 -19.126  44.185  0.00  0.00     0.100 A 
ATOM      9  C   UNL d   1      46.579 -19.908  42.747  0.00  0.00     0.000 A 
ATOM     10  C   UNL d   1      46.605 -20.330  43.456  0.00  0.00     0.002 A 
ATOM     11  C   UNL d   1      46.507 -19.937  44.173  0.00  0.00     0.025 A 
ATOM     12  O   UNL d   1      46.285 -18.734  44.901  0.00  0.00    -0.305 OA
ATOM     13  C   UNL d   1      46.159 -17.910  44.916  0.00  0.00     0.127 A 
ENDBRANCH   1   4
BRANCH   2  14
ATOM     14  C   UNL d   1      45.640 -15.479  44.921  0.00  0.00     0.085 A 
ATOM     15  C   UNL d   1      44.872 -15.180  44.941  0.00  0.00     0.021 A 
ATOM     16  C   UNL d   1      44.752 -14.366  44.952  0.00  0.00     0.026 A 
ATOM     17  C   UNL d   1      45.391 -13.858  44.944  0.00  0.00     0.094 A 
ATOM     18  C   UNL d   1      46.163 -14.154  44.923  0.00  0.00     0.026 A 
ATOM     19  C   UNL d   1      46.276 -14.974  44.912  0.00  0.00     0.021 A 
BRANCH  17  20
ATOM     20  O   UNL d   1      45.278 -13.039  44.955  0.00  0.00    -0.328 OA
ATOM     21  C   UNL d   1      45.896 -12.533  44.787  0.00  0.00     0.181 C 
ENDBRANCH  17  20
ENDBRANCH   2  14
TORSDOF 3
ENDMDL
