MODEL 1
REMARK VINA RESULT:      -3.7      0.000      0.000
REMARK  7 active torsions:
REMARK  status: ('A' for Active; 'I' for Inactive)
REMARK    1  A    between atoms: C_2  and  S_1 
REMARK    2  A    between atoms: N_3  and  S_1 
REMARK    3  A    between atoms: C_11  and  N_3 
REMARK    4  A    between atoms: C_4  and  C_7 
REMARK       I    between atoms: N_12  and  C_4 
REMARK    5  A    between atoms: C_22  and  N_12 
REMARK    6  A    between atoms: O_20  and  C_24 
REMARK    7  A    between atoms: C_24  and  C_22 
ROOT
ATOM      1  C   UNL d   1     -42.303-122.874 -50.520  0.00  0.00     0.058 A 
ATOM      2  C   UNL d   1     -41.562-123.249 -51.942  0.00  0.00     0.094 A 
ATOM      3  C   UNL d   1     -41.776-122.340 -50.864  0.00  0.00     0.006 A 
ATOM      4  C   UNL d   1     -42.460-123.596 -50.888  0.00  0.00     0.006 A 
ATOM      5  C   UNL d   1     -41.406-122.527 -51.573  0.00  0.00     0.020 A 
ATOM      6  C   UNL d   1     -42.089-123.784 -51.599  0.00  0.00     0.020 A 
ENDROOT
BRANCH   2   7
ATOM      7  N   UNL d   1     -41.193-123.436 -52.651  0.00  0.00    -0.158 NA
BRANCH   7   8
ATOM      8  S   UNL d   1     -41.453-123.091 -53.355  0.00  0.00     0.285 S 
ATOM      9  O   UNL d   1     -41.779-123.811 -53.587  0.00  0.00    -0.198 OA
ATOM     10  O   UNL d   1     -41.125-122.373 -53.118  0.00  0.00    -0.198 OA
BRANCH   8  11
ATOM     11  C   UNL d   1     -41.709-122.740 -54.053  0.00  0.00     0.105 A 
ATOM     12  C   UNL d   1     -41.559-123.095 -54.779  0.00  0.00     0.012 A 
ATOM     13  C   UNL d   1     -41.819-122.737 -55.474  0.00  0.00     0.001 A 
ATOM     14  C   UNL d   1     -41.145-123.817 -54.798  0.00  0.00     0.001 C 
ATOM     15  C   UNL d   1     -42.227-122.025 -55.445  0.00  0.00     0.000 A 
ATOM     16  C   UNL d   1     -42.379-121.665 -54.718  0.00  0.00     0.001 A 
ATOM     17  C   UNL d   1     -42.123-122.017 -54.020  0.00  0.00     0.013 A 
ATOM     18  C   UNL d   1     -42.795-120.941 -54.694  0.00  0.00     0.000 C 
ENDBRANCH   8  11
ENDBRANCH   7   8
ENDBRANCH   2   7
BRANCH   1  19
ATOM     19  C   UNL d   1     -42.681-122.690 -49.800  0.00  0.00     0.279 C 
ATOM     20  O   UNL d   1     -43.195-122.047 -49.753  0.00  0.00    -0.265 OA
ATOM     21  N   UNL d   1     -42.537-123.155 -49.139  0.00  0.00    -0.204 NA
BRANCH  21  22
ATOM     22  C   UNL d   1     -42.910-122.975 -48.425  0.00  0.00     0.128 C 
BRANCH  22  23
ATOM     23  C   UNL d   1     -42.633-123.300 -47.720  0.00  0.00     0.137 C 
BRANCH  23  24
ATOM     24  O   UNL d   1     -42.584-122.823 -47.029  0.00  0.00    -0.325 OA
ATOM     25  C   UNL d   1     -41.849-122.633 -46.716  0.00  0.00     0.182 C 
ENDBRANCH  23  24
ENDBRANCH  22  23
ENDBRANCH  21  22
ENDBRANCH   1  19
TORSDOF 7
ENDMDL
MODEL 2
REMARK VINA RESULT:      -2.7      1.510      5.384
REMARK  7 active torsions:
REMARK  status: ('A' for Active; 'I' for Inactive)
REMARK    1  A    between atoms: C_2  and  S_1 
REMARK    2  A    between atoms: N_3  and  S_1 
REMARK    3  A    between atoms: C_11  and  N_3 
REMARK    4  A    between atoms: C_4  and  C_7 
REMARK       I    between atoms: N_12  and  C_4 
REMARK    5  A    between atoms: C_22  and  N_12 
REMARK    6  A    between atoms: O_20  and  C_24 
REMARK    7  A    between atoms: C_24  and  C_22 
ROOT
ATOM      1  C   UNL d   1     -41.455-122.594 -53.001  0.00  0.00     0.058 A 
ATOM      2  C   UNL d   1     -41.360-122.289 -51.386  0.00  0.00     0.094 A 
ATOM      3  C   UNL d   1     -41.658-121.849 -52.710  0.00  0.00     0.006 A 
ATOM      4  C   UNL d   1     -41.204-123.187 -52.484  0.00  0.00     0.006 A 
ATOM      5  C   UNL d   1     -41.610-121.697 -51.904  0.00  0.00     0.020 A 
ATOM      6  C   UNL d   1     -41.157-123.034 -51.676  0.00  0.00     0.020 A 
ENDROOT
BRANCH   2   7
ATOM      7  N   UNL d   1     -41.312-122.136 -50.580  0.00  0.00    -0.158 NA
BRANCH   7   8
ATOM      8  S   UNL d   1     -41.783-122.562 -50.052  0.00  0.00     0.285 S 
ATOM      9  O   UNL d   1     -41.393-123.257 -50.266  0.00  0.00    -0.198 OA
ATOM     10  O   UNL d   1     -42.169-121.866 -49.841  0.00  0.00    -0.198 OA
BRANCH   8  11
ATOM     11  C   UNL d   1     -42.255-122.980 -49.524  0.00  0.00     0.105 A 
ATOM     12  C   UNL d   1     -41.961-123.207 -48.790  0.00  0.00     0.012 A 
ATOM     13  C   UNL d   1     -42.442-123.625 -48.267  0.00  0.00     0.001 A 
ATOM     14  C   UNL d   1     -41.178-123.008 -48.589  0.00  0.00     0.001 C 
ATOM     15  C   UNL d   1     -43.212-123.817 -48.474  0.00  0.00     0.000 A 
ATOM     16  C   UNL d   1     -43.510-123.591 -49.211  0.00  0.00     0.001 A 
ATOM     17  C   UNL d   1     -43.037-123.173 -49.738  0.00  0.00     0.013 A 
ATOM     18  C   UNL d   1     -44.295-123.788 -49.418  0.00  0.00     0.000 C 
ENDBRANCH   8  11
ENDBRANCH   7   8
ENDBRANCH   2   7
BRANCH   1  19
ATOM     19  C   UNL d   1     -41.501-122.755 -53.818  0.00  0.00     0.279 C 
ATOM     20  O   UNL d   1     -41.324-123.508 -54.104  0.00  0.00    -0.265 OA
ATOM     21  N   UNL d   1     -41.724-122.157 -54.334  0.00  0.00    -0.204 NA
BRANCH  21  22
ATOM     22  C   UNL d   1     -41.770-122.313 -55.143  0.00  0.00     0.128 C 
BRANCH  22  23
ATOM     23  C   UNL d   1     -41.967-121.711 -55.671  0.00  0.00     0.137 C 
BRANCH  23  24
ATOM     24  O   UNL d   1     -42.734-121.688 -56.015  0.00  0.00    -0.325 OA
ATOM     25  C   UNL d   1     -42.831-121.866 -56.810  0.00  0.00     0.182 C 
ENDBRANCH  23  24
ENDBRANCH  22  23
ENDBRANCH  21  22
ENDBRANCH   1  19
TORSDOF 7
ENDMDL
