MODEL 1
REMARK VINA RESULT:      10.9      0.000      0.000
REMARK  5 active torsions:
REMARK  status: ('A' for Active; 'I' for Inactive)
REMARK    1  A    between atoms: C_10  and  N_3 
REMARK    2  A    between atoms: C_14  and  N_6 
REMARK    3  A    between atoms: C_9  and  C_7 
REMARK    4  A    between atoms: O_23  and  C_20 
REMARK    5  A    between atoms: C_26  and  O_23 
ROOT
ATOM      1  C   UNL d   1     -42.096-122.477 -52.367  0.00  0.00     0.105 A 
ATOM      2  C   UNL d   1     -41.563-123.108 -52.214  0.00  0.00     0.186 A 
ATOM      3  N   UNL d   1     -42.082-122.726 -51.053  0.00  0.00    -0.240 N 
ATOM      4  C   UNL d   1     -41.571-123.240 -51.422  0.00  0.00     0.292 A 
ATOM      5  C   UNL d   1     -42.415-122.242 -51.652  0.00  0.00     0.271 A 
ATOM      6  N   UNL d   1     -41.571-122.862 -53.547  0.00  0.00    -0.212 N 
ATOM      7  C   UNL d   1     -42.078-122.354 -53.177  0.00  0.00     0.100 A 
ATOM      8  O   UNL d   1     -41.234-123.353 -52.935  0.00  0.00    -0.223 OA
ATOM      9  O   UNL d   1     -42.967-121.630 -51.564  0.00  0.00    -0.266 OA
ATOM     10  O   UNL d   1     -41.123-123.817 -51.036  0.00  0.00    -0.264 OA
ENDROOT
BRANCH   3  11
ATOM     11  C   UNL d   1     -42.233-122.698 -50.241  0.00  0.00     0.070 A 
ATOM     12  C   UNL d   1     -41.605-122.624 -49.719  0.00  0.00     0.020 A 
ATOM     13  C   UNL d   1     -41.740-122.595 -48.900  0.00  0.00     0.026 A 
ATOM     14  C   UNL d   1     -42.523-122.643 -48.619  0.00  0.00     0.100 A 
ATOM     15  C   UNL d   1     -43.144-122.716 -49.138  0.00  0.00     0.026 A 
ATOM     16  C   UNL d   1     -42.987-122.743 -49.942  0.00  0.00     0.020 A 
BRANCH  14  17
ATOM     17  O   UNL d   1     -42.681-122.616 -47.811  0.00  0.00    -0.305 OA
BRANCH  17  18
ATOM     18  C   UNL d   1     -43.007-123.279 -47.443  0.00  0.00     0.123 C 
ATOM     19  C   UNL d   1     -42.804-123.473 -46.676  0.00  0.00     0.029 C 
ENDBRANCH  17  18
ENDBRANCH  14  17
ENDBRANCH   3  11
BRANCH   7  20
ATOM     20  C   UNL d   1     -42.526-121.777 -53.563  0.00  0.00     0.048 A 
ATOM     21  S   UNL d   1     -43.314-121.855 -53.880  0.00  0.00    -0.085 SA
ATOM     22  C   UNL d   1     -43.507-121.133 -54.204  0.00  0.00     0.035 A 
ATOM     23  C   UNL d   1     -42.908-120.605 -54.117  0.00  0.00     0.007 A 
ATOM     24  C   UNL d   1     -42.274-121.005 -53.709  0.00  0.00     0.009 A 
ENDBRANCH   7  20
BRANCH   6  25
ATOM     25  C   UNL d   1     -41.422-122.887 -54.363  0.00  0.00     0.088 A 
ATOM     26  C   UNL d   1     -41.374-122.194 -54.802  0.00  0.00     0.020 A 
ATOM     27  C   UNL d   1     -41.223-122.215 -55.625  0.00  0.00     0.002 A 
ATOM     28  C   UNL d   1     -41.123-122.949 -55.995  0.00  0.00     0.000 A 
ATOM     29  C   UNL d   1     -41.173-123.648 -55.549  0.00  0.00     0.002 A 
ATOM     30  C   UNL d   1     -41.323-123.607 -54.733  0.00  0.00     0.020 A 
ENDBRANCH   6  25
TORSDOF 5
ENDMDL
