MODEL 1
REMARK VINA RESULT:      -3.5      0.000      0.000
REMARK  5 active torsions:
REMARK  status: ('A' for Active; 'I' for Inactive)
REMARK    1  A    between atoms: N_7  and  C_1 
REMARK    2  A    between atoms: C_4  and  C_3 
REMARK       I    between atoms: C_8  and  N_7 
REMARK    3  A    between atoms: C_15  and  C_8 
REMARK    4  A    between atoms: O_20  and  C_15 
REMARK    5  A    between atoms: C_22  and  O_20 
ROOT
ATOM      1  C   UNL d   1      33.067  19.360 -22.711  0.00  0.00     0.204 A 
ATOM      2  S   UNL d   1      32.861  18.977 -23.408  0.00  0.00    -0.031 SA
ATOM      3  C   UNL d   1      32.905  18.154 -23.274  0.00  0.00     0.119 A 
ATOM      4  N   UNL d   1      33.241  18.786 -22.139  0.00  0.00    -0.123 NA
ATOM      5  N   UNL d   1      33.137  18.051 -22.501  0.00  0.00    -0.143 NA
ENDROOT
BRANCH   1   6
ATOM      6  N   UNL d   1      33.112  20.168 -22.544  0.00  0.00    -0.248 N 
ATOM      7  C   UNL d   1      33.025  20.412 -21.717  0.00  0.00     0.291 C 
ATOM      8  O   UNL d   1      32.897  19.820 -21.114  0.00  0.00    -0.264 OA
ATOM      9  C   UNL d   1      33.235  20.713 -23.134  0.00  0.00     0.104 C 
BRANCH   7  10
ATOM     10  C   UNL d   1      33.066  21.214 -21.520  0.00  0.00     0.184 C 
BRANCH  10  11
ATOM     11  O   UNL d   1      32.506  21.524 -20.979  0.00  0.00    -0.300 OA
BRANCH  11  12
ATOM     12  C   UNL d   1      32.695  22.253 -20.626  0.00  0.00     0.100 A 
ATOM     13  C   UNL d   1      32.757  22.962 -21.044  0.00  0.00     0.025 A 
ATOM     14  C   UNL d   1      32.943  23.662 -20.674  0.00  0.00     0.002 A 
ATOM     15  C   UNL d   1      33.083  23.702 -19.848  0.00  0.00     0.000 A 
ATOM     16  C   UNL d   1      33.022  22.974 -19.405  0.00  0.00     0.002 A 
ATOM     17  C   UNL d   1      32.827  22.245 -19.798  0.00  0.00     0.025 A 
ENDBRANCH  11  12
ENDBRANCH  10  11
ENDBRANCH   7  10
ENDBRANCH   1   6
BRANCH   3  18
ATOM     18  C   UNL d   1      32.760  17.511 -23.771  0.00  0.00     0.081 A 
ATOM     19  C   UNL d   1      33.113  16.933 -24.210  0.00  0.00    -0.017 A 
ATOM     20  C   UNL d   1      32.658  16.431 -24.606  0.00  0.00    -0.008 A 
ATOM     21  C   UNL d   1      33.055  15.847 -25.047  0.00  0.00    -0.001 A 
ATOM     22  C   UNL d   1      31.878  16.611 -24.481  0.00  0.00    -0.022 A 
ATOM     23  C   UNL d   1      32.511  16.329 -24.686  0.00  0.00    -0.008 A 
ATOM     24  C   UNL d   1      32.854  16.877 -24.258  0.00  0.00    -0.017 A 
ATOM     25  C   UNL d   1      31.563  16.528 -24.551  0.00  0.00    -0.022 A 
ATOM     26  C   UNL d   1      31.414  17.171 -24.059  0.00  0.00     0.045 A 
ATOM     27  C   UNL d   1      31.957  17.651 -23.679  0.00  0.00     0.023 A 
ENDBRANCH   3  18
TORSDOF 5
ENDMDL
MODEL 2
REMARK VINA RESULT:      -3.3      1.056      6.042
REMARK  5 active torsions:
REMARK  status: ('A' for Active; 'I' for Inactive)
REMARK    1  A    between atoms: N_7  and  C_1 
REMARK    2  A    between atoms: C_4  and  C_3 
REMARK       I    between atoms: C_8  and  N_7 
REMARK    3  A    between atoms: C_15  and  C_8 
REMARK    4  A    between atoms: O_20  and  C_15 
REMARK    5  A    between atoms: C_22  and  O_20 
ROOT
ATOM      1  C   UNL d   1      33.136  20.494 -21.830  0.00  0.00     0.204 A 
ATOM      2  S   UNL d   1      33.013  21.298 -21.708  0.00  0.00    -0.031 SA
ATOM      3  C   UNL d   1      33.040  21.442 -20.887  0.00  0.00     0.119 A 
ATOM      4  N   UNL d   1      33.241  20.131 -21.093  0.00  0.00    -0.123 NA
ATOM      5  N   UNL d   1      33.179  20.727 -20.525  0.00  0.00    -0.143 NA
ENDROOT
BRANCH   1   6
ATOM      6  N   UNL d   1      33.162  20.063 -22.535  0.00  0.00    -0.248 N 
ATOM      7  C   UNL d   1      33.109  19.200 -22.480  0.00  0.00     0.291 C 
ATOM      8  O   UNL d   1      33.033  18.831 -21.713  0.00  0.00    -0.264 OA
ATOM      9  C   UNL d   1      33.235  20.436 -23.254  0.00  0.00     0.104 C 
BRANCH   7  10
ATOM     10  C   UNL d   1      33.133  18.743 -23.168  0.00  0.00     0.184 C 
BRANCH  10  11
ATOM     11  O   UNL d   1      33.175  17.909 -23.095  0.00  0.00    -0.300 OA
BRANCH  11  12
ATOM     12  C   UNL d   1      32.845  17.465 -23.717  0.00  0.00     0.100 A 
ATOM     13  C   UNL d   1      33.182  17.408 -24.467  0.00  0.00     0.025 A 
ATOM     14  C   UNL d   1      32.839  16.966 -25.058  0.00  0.00     0.002 A 
ATOM     15  C   UNL d   1      32.124  16.545 -24.937  0.00  0.00     0.000 A 
ATOM     16  C   UNL d   1      31.766  16.597 -24.162  0.00  0.00     0.002 A 
ATOM     17  C   UNL d   1      32.130  17.061 -23.549  0.00  0.00     0.025 A 
ENDBRANCH  11  12
ENDBRANCH  10  11
ENDBRANCH   7  10
ENDBRANCH   1   6
BRANCH   3  18
ATOM     18  C   UNL d   1      32.954  22.138 -20.452  0.00  0.00     0.081 A 
ATOM     19  C   UNL d   1      33.186  22.520 -19.780  0.00  0.00    -0.017 A 
ATOM     20  C   UNL d   1      32.900  23.237 -19.637  0.00  0.00    -0.008 A 
ATOM     21  C   UNL d   1      33.160  23.602 -18.936  0.00  0.00    -0.001 A 
ATOM     22  C   UNL d   1      32.399  23.456 -20.235  0.00  0.00    -0.022 A 
ATOM     23  C   UNL d   1      32.807  23.410 -19.641  0.00  0.00    -0.008 A 
ATOM     24  C   UNL d   1      33.021  22.705 -19.885  0.00  0.00    -0.017 A 
ATOM     25  C   UNL d   1      32.199  23.696 -20.351  0.00  0.00    -0.022 A 
ATOM     26  C   UNL d   1      32.097  23.148 -20.957  0.00  0.00     0.045 A 
ATOM     27  C   UNL d   1      32.439  22.408 -21.030  0.00  0.00     0.023 A 
ENDBRANCH   3  18
TORSDOF 5
ENDMDL
MODEL 3
REMARK VINA RESULT:      -3.0      0.976      1.442
REMARK  5 active torsions:
REMARK  status: ('A' for Active; 'I' for Inactive)
REMARK    1  A    between atoms: N_7  and  C_1 
REMARK    2  A    between atoms: C_4  and  C_3 
REMARK       I    between atoms: C_8  and  N_7 
REMARK    3  A    between atoms: C_15  and  C_8 
REMARK    4  A    between atoms: O_20  and  C_15 
REMARK    5  A    between atoms: C_22  and  O_20 
ROOT
ATOM      1  C   UNL d   1      32.874  18.954 -23.146  0.00  0.00     0.204 A 
ATOM      2  S   UNL d   1      32.383  18.295 -23.143  0.00  0.00    -0.031 SA
ATOM      3  C   UNL d   1      32.442  17.926 -23.890  0.00  0.00     0.119 A 
ATOM      4  N   UNL d   1      33.241  19.004 -23.887  0.00  0.00    -0.123 NA
ATOM      5  N   UNL d   1      32.965  18.365 -24.331  0.00  0.00    -0.143 NA
ENDROOT
BRANCH   1   6
ATOM      6  N   UNL d   1      33.020  19.509 -22.550  0.00  0.00    -0.248 N 
ATOM      7  C   UNL d   1      33.009  20.347 -22.771  0.00  0.00     0.291 C 
ATOM      8  O   UNL d   1      32.851  20.567 -23.581  0.00  0.00    -0.264 OA
ATOM      9  C   UNL d   1      33.168  19.275 -21.786  0.00  0.00     0.104 C 
BRANCH   7  10
ATOM     10  C   UNL d   1      33.151  20.924 -22.196  0.00  0.00     0.184 C 
BRANCH  10  11
ATOM     11  O   UNL d   1      32.840  21.692 -22.313  0.00  0.00    -0.300 OA
BRANCH  11  12
ATOM     12  C   UNL d   1      32.865  22.207 -21.659  0.00  0.00     0.100 A 
ATOM     13  C   UNL d   1      33.230  22.019 -20.944  0.00  0.00     0.025 A 
ATOM     14  C   UNL d   1      33.240  22.541 -20.319  0.00  0.00     0.002 A 
ATOM     15  C   UNL d   1      32.882  23.297 -20.369  0.00  0.00     0.000 A 
ATOM     16  C   UNL d   1      32.502  23.502 -21.106  0.00  0.00     0.002 A 
ATOM     17  C   UNL d   1      32.494  22.952 -21.755  0.00  0.00     0.025 A 
ENDBRANCH  11  12
ENDBRANCH  10  11
ENDBRANCH   7  10
ENDBRANCH   1   6
BRANCH   3  18
ATOM     18  C   UNL d   1      32.077  17.251 -24.195  0.00  0.00     0.081 A 
ATOM     19  C   UNL d   1      31.399  16.971 -24.529  0.00  0.00    -0.017 A 
ATOM     20  C   UNL d   1      31.361  16.213 -24.726  0.00  0.00    -0.008 A 
ATOM     21  C   UNL d   1      30.646  15.958 -25.069  0.00  0.00    -0.001 A 
ATOM     22  C   UNL d   1      32.059  15.846 -24.539  0.00  0.00    -0.022 A 
ATOM     23  C   UNL d   1      31.394  16.022 -24.759  0.00  0.00    -0.008 A 
ATOM     24  C   UNL d   1      31.545  16.746 -24.526  0.00  0.00    -0.017 A 
ATOM     25  C   UNL d   1      32.227  15.558 -24.542  0.00  0.00    -0.022 A 
ATOM     26  C   UNL d   1      32.806  16.035 -24.200  0.00  0.00     0.045 A 
ATOM     27  C   UNL d   1      32.762  16.833 -24.026  0.00  0.00     0.023 A 
ENDBRANCH   3  18
TORSDOF 5
ENDMDL
MODEL 4
REMARK VINA RESULT:      -1.3      1.463      5.784
REMARK  5 active torsions:
REMARK  status: ('A' for Active; 'I' for Inactive)
REMARK    1  A    between atoms: N_7  and  C_1 
REMARK    2  A    between atoms: C_4  and  C_3 
REMARK       I    between atoms: C_8  and  N_7 
REMARK    3  A    between atoms: C_15  and  C_8 
REMARK    4  A    between atoms: O_20  and  C_15 
REMARK    5  A    between atoms: C_22  and  O_20 
ROOT
ATOM      1  C   UNL d   1      32.700  18.801 -22.930  0.00  0.00     0.204 A 
ATOM      2  S   UNL d   1      32.472  19.582 -22.814  0.00  0.00    -0.031 SA
ATOM      3  C   UNL d   1      32.786  19.836 -22.083  0.00  0.00     0.119 A 
ATOM      4  N   UNL d   1      33.155  18.561 -22.281  0.00  0.00    -0.123 NA
ATOM      5  N   UNL d   1      33.198  19.208 -21.770  0.00  0.00    -0.143 NA
ENDROOT
BRANCH   1   6
ATOM      6  N   UNL d   1      32.539  18.290 -23.560  0.00  0.00    -0.248 N 
ATOM      7  C   UNL d   1      32.425  17.451 -23.378  0.00  0.00     0.291 C 
ATOM      8  O   UNL d   1      32.481  17.185 -22.568  0.00  0.00    -0.264 OA
ATOM      9  C   UNL d   1      32.490  18.567 -24.323  0.00  0.00     0.104 C 
BRANCH   7  10
ATOM     10  C   UNL d   1      32.262  16.917 -23.987  0.00  0.00     0.184 C 
BRANCH  10  11
ATOM     11  O   UNL d   1      32.021  16.140 -23.787  0.00  0.00    -0.300 OA
BRANCH  11  12
ATOM     12  C   UNL d   1      31.249  15.922 -24.009  0.00  0.00     0.100 A 
ATOM     13  C   UNL d   1      30.667  15.691 -23.473  0.00  0.00     0.025 A 
ATOM     14  C   UNL d   1      29.919  15.482 -23.716  0.00  0.00     0.002 A 
ATOM     15  C   UNL d   1      29.699  15.491 -24.525  0.00  0.00     0.000 A 
ATOM     16  C   UNL d   1      30.294  15.730 -25.090  0.00  0.00     0.002 A 
ATOM     17  C   UNL d   1      31.074  15.946 -24.828  0.00  0.00     0.025 A 
ENDBRANCH  11  12
ENDBRANCH  10  11
ENDBRANCH   7  10
ENDBRANCH   1   6
BRANCH   3  18
ATOM     18  C   UNL d   1      32.735  20.560 -21.689  0.00  0.00     0.081 A 
ATOM     19  C   UNL d   1      32.494  20.915 -21.007  0.00  0.00    -0.017 A 
ATOM     20  C   UNL d   1      32.591  21.690 -20.931  0.00  0.00    -0.008 A 
ATOM     21  C   UNL d   1      32.331  22.023 -20.213  0.00  0.00    -0.001 A 
ATOM     22  C   UNL d   1      32.936  21.990 -21.600  0.00  0.00    -0.022 A 
ATOM     23  C   UNL d   1      32.633  21.880 -20.954  0.00  0.00    -0.008 A 
ATOM     24  C   UNL d   1      32.589  21.129 -21.140  0.00  0.00    -0.017 A 
ATOM     25  C   UNL d   1      33.049  22.264 -21.751  0.00  0.00    -0.022 A 
ATOM     26  C   UNL d   1      33.219  21.720 -22.345  0.00  0.00     0.045 A 
ATOM     27  C   UNL d   1      33.082  20.913 -22.343  0.00  0.00     0.023 A 
ENDBRANCH   3  18
TORSDOF 5
ENDMDL
MODEL 5
REMARK VINA RESULT:      -0.9      2.102      3.068
REMARK  5 active torsions:
REMARK  status: ('A' for Active; 'I' for Inactive)
REMARK    1  A    between atoms: N_7  and  C_1 
REMARK    2  A    between atoms: C_4  and  C_3 
REMARK       I    between atoms: C_8  and  N_7 
REMARK    3  A    between atoms: C_15  and  C_8 
REMARK    4  A    between atoms: O_20  and  C_15 
REMARK    5  A    between atoms: C_22  and  O_20 
ROOT
ATOM      1  C   UNL d   1      31.496  17.982 -24.379  0.00  0.00     0.204 A 
ATOM      2  S   UNL d   1      30.904  17.671 -23.902  0.00  0.00    -0.031 SA
ATOM      3  C   UNL d   1      30.529  17.055 -24.322  0.00  0.00     0.119 A 
ATOM      4  N   UNL d   1      31.497  17.567 -25.097  0.00  0.00    -0.123 NA
ATOM      5  N   UNL d   1      30.897  17.002 -25.045  0.00  0.00    -0.143 NA
ENDROOT
BRANCH   1   6
ATOM      6  N   UNL d   1      32.028  18.596 -24.231  0.00  0.00    -0.248 N 
ATOM      7  C   UNL d   1      32.422  18.609 -23.459  0.00  0.00     0.291 C 
ATOM      8  O   UNL d   1      32.250  17.996 -22.889  0.00  0.00    -0.264 OA
ATOM      9  C   UNL d   1      32.177  19.168 -24.789  0.00  0.00     0.104 C 
BRANCH   7  10
ATOM     10  C   UNL d   1      32.960  19.211 -23.283  0.00  0.00     0.184 C 
BRANCH  10  11
ATOM     11  O   UNL d   1      33.161  19.348 -22.481  0.00  0.00    -0.300 OA
BRANCH  11  12
ATOM     12  C   UNL d   1      33.118  20.136 -22.217  0.00  0.00     0.100 A 
ATOM     13  C   UNL d   1      33.241  20.789 -22.705  0.00  0.00     0.025 A 
ATOM     14  C   UNL d   1      33.193  21.551 -22.421  0.00  0.00     0.002 A 
ATOM     15  C   UNL d   1      33.016  21.712 -21.617  0.00  0.00     0.000 A 
ATOM     16  C   UNL d   1      32.886  21.043 -21.103  0.00  0.00     0.002 A 
ATOM     17  C   UNL d   1      32.938  20.249 -21.406  0.00  0.00     0.025 A 
ENDBRANCH  11  12
ENDBRANCH  10  11
ENDBRANCH   7  10
ENDBRANCH   1   6
BRANCH   3  18
ATOM     18  C   UNL d   1      29.905  16.555 -24.117  0.00  0.00     0.081 A 
ATOM     19  C   UNL d   1      29.189  16.273 -24.357  0.00  0.00    -0.017 A 
ATOM     20  C   UNL d   1      28.810  15.764 -23.896  0.00  0.00    -0.008 A 
ATOM     21  C   UNL d   1      28.074  15.493 -24.176  0.00  0.00    -0.001 A 
ATOM     22  C   UNL d   1      29.248  15.620 -23.230  0.00  0.00    -0.022 A 
ATOM     23  C   UNL d   1      28.752  15.642 -23.754  0.00  0.00    -0.008 A 
ATOM     24  C   UNL d   1      29.213  16.144 -24.123  0.00  0.00    -0.017 A 
ATOM     25  C   UNL d   1      29.262  15.453 -22.942  0.00  0.00    -0.022 A 
ATOM     26  C   UNL d   1      29.981  15.851 -22.888  0.00  0.00     0.045 A 
ATOM     27  C   UNL d   1      30.308  16.375 -23.425  0.00  0.00     0.023 A 
ENDBRANCH   3  18
TORSDOF 5
ENDMDL
