MODEL 1
REMARK VINA RESULT:      56.0      0.000      0.000
REMARK  8 active torsions:
REMARK  status: ('A' for Active; 'I' for Inactive)
REMARK    1  A    between atoms: C_14  and  N_1 
REMARK    2  A    between atoms: N_9  and  C_2 
REMARK    3  A    between atoms: C_6  and  C_5 
REMARK    4  A    between atoms: C_7  and  C_6 
REMARK       I    between atoms: N_8  and  C_7 
REMARK    5  A    between atoms: C_10  and  N_8 
REMARK    6  A    between atoms: C_16  and  N_9 
REMARK    7  A    between atoms: O_15  and  C_13 
REMARK    8  A    between atoms: C_19  and  O_15 
ROOT
ATOM      1  C   UNL d   1     -49.472  28.089  33.307  0.00  0.00     0.074 C 
ENDROOT
BRANCH   1   2
ATOM      2  C   UNL d   1     -49.980  27.435  33.311  0.00  0.00     0.093 A 
ATOM      3  C   UNL d   1     -50.804  27.459  33.312  0.00  0.00     0.272 A 
ATOM      4  N   UNL d   1     -51.089  26.683  33.316  0.00  0.00    -0.252 N 
ATOM      5  O   UNL d   1     -51.268  28.144  33.309  0.00  0.00    -0.266 OA
ATOM      6  C   UNL d   1     -50.435  26.176  33.318  0.00  0.00     0.182 A 
ATOM      7  S   UNL d   1     -49.752  26.634  33.315  0.00  0.00    -0.045 SA
BRANCH   4   8
ATOM      8  C   UNL d   1     -51.881  26.464  33.318  0.00  0.00     0.085 C 
ATOM      9  C   UNL d   1     -52.400  26.790  33.866  0.00  0.00     0.021 C 
ENDBRANCH   4   8
BRANCH   6  10
ATOM     10  N   UNL d   1     -50.470  25.355  33.323  0.00  0.00    -0.221 NA
BRANCH  10  11
ATOM     11  C   UNL d   1     -49.804  24.908  33.500  0.00  0.00     0.101 C 
ATOM     12  C   UNL d   1     -49.869  24.105  33.682  0.00  0.00     0.022 C 
ENDBRANCH  10  11
ENDBRANCH   6  10
ENDBRANCH   1   2
BRANCH   1  13
ATOM     13  C   UNL d   1     -49.066  28.296  33.995  0.00  0.00     0.280 C 
ATOM     14  N   UNL d   1     -48.615  28.978  34.019  0.00  0.00    -0.206 NA
ATOM     15  O   UNL d   1     -49.120  27.809  34.655  0.00  0.00    -0.265 OA
BRANCH  14  16
ATOM     16  C   UNL d   1     -48.209  29.183  34.708  0.00  0.00     0.107 A 
ATOM     17  C   UNL d   1     -47.947  29.956  34.822  0.00  0.00     0.118 A 
ATOM     18  C   UNL d   1     -47.542  30.161  35.511  0.00  0.00     0.026 A 
ATOM     19  C   UNL d   1     -47.400  29.580  36.090  0.00  0.00     0.002 A 
ATOM     20  C   UNL d   1     -47.660  28.811  35.978  0.00  0.00     0.002 A 
ATOM     21  C   UNL d   1     -48.065  28.603  35.291  0.00  0.00     0.021 A 
BRANCH  17  22
ATOM     22  O   UNL d   1     -48.095  30.524  34.240  0.00  0.00    -0.304 OA
BRANCH  22  23
ATOM     23  C   UNL d   1     -47.616  31.191  34.192  0.00  0.00     0.123 C 
ATOM     24  C   UNL d   1     -47.910  31.931  34.408  0.00  0.00     0.029 C 
ENDBRANCH  22  23
ENDBRANCH  17  22
ENDBRANCH  14  16
ENDBRANCH   1  13
TORSDOF 8
ENDMDL
MODEL 2
REMARK VINA RESULT:      57.0      2.383      3.733
REMARK  8 active torsions:
REMARK  status: ('A' for Active; 'I' for Inactive)
REMARK    1  A    between atoms: C_14  and  N_1 
REMARK    2  A    between atoms: N_9  and  C_2 
REMARK    3  A    between atoms: C_6  and  C_5 
REMARK    4  A    between atoms: C_7  and  C_6 
REMARK       I    between atoms: N_8  and  C_7 
REMARK    5  A    between atoms: C_10  and  N_8 
REMARK    6  A    between atoms: C_16  and  N_9 
REMARK    7  A    between atoms: O_15  and  C_13 
REMARK    8  A    between atoms: C_19  and  O_15 
ROOT
ATOM      1  C   UNL d   1     -51.755  26.017  33.584  0.00  0.00     0.074 C 
ENDROOT
BRANCH   1   2
ATOM      2  C   UNL d   1     -51.819  25.195  33.519  0.00  0.00     0.093 A 
ATOM      3  C   UNL d   1     -51.193  24.663  33.440  0.00  0.00     0.272 A 
ATOM      4  N   UNL d   1     -51.504  23.898  33.393  0.00  0.00    -0.252 N 
ATOM      5  O   UNL d   1     -50.391  24.862  33.414  0.00  0.00    -0.266 OA
ATOM      6  C   UNL d   1     -52.327  23.958  33.443  0.00  0.00     0.182 A 
ATOM      7  S   UNL d   1     -52.525  24.753  33.520  0.00  0.00    -0.045 SA
BRANCH   4   8
ATOM      8  C   UNL d   1     -51.065  23.208  33.312  0.00  0.00     0.085 C 
ATOM      9  C   UNL d   1     -50.243  23.236  33.313  0.00  0.00     0.021 C 
ENDBRANCH   4   8
BRANCH   6  10
ATOM     10  N   UNL d   1     -52.852  23.327  33.418  0.00  0.00    -0.221 NA
BRANCH  10  11
ATOM     11  C   UNL d   1     -53.472  23.276  33.955  0.00  0.00     0.101 C 
ATOM     12  C   UNL d   1     -54.257  23.308  33.701  0.00  0.00     0.022 C 
ENDBRANCH  10  11
ENDBRANCH   6  10
ENDBRANCH   1   2
BRANCH   1  13
ATOM     13  C   UNL d   1     -51.088  26.350  33.938  0.00  0.00     0.280 C 
ATOM     14  N   UNL d   1     -51.167  26.856  34.576  0.00  0.00    -0.206 NA
ATOM     15  O   UNL d   1     -50.343  26.166  33.642  0.00  0.00    -0.265 OA
BRANCH  14  16
ATOM     16  C   UNL d   1     -50.498  27.187  34.928  0.00  0.00     0.107 A 
ATOM     17  C   UNL d   1     -50.379  27.118  35.740  0.00  0.00     0.118 A 
ATOM     18  C   UNL d   1     -49.710  27.449  36.092  0.00  0.00     0.026 A 
ATOM     19  C   UNL d   1     -49.157  27.854  35.619  0.00  0.00     0.002 A 
ATOM     20  C   UNL d   1     -49.274  27.923  34.812  0.00  0.00     0.002 A 
ATOM     21  C   UNL d   1     -49.942  27.594  34.457  0.00  0.00     0.021 A 
BRANCH  17  22
ATOM     22  O   UNL d   1     -50.935  26.714  36.199  0.00  0.00    -0.304 OA
BRANCH  22  23
ATOM     23  C   UNL d   1     -50.858  26.706  37.018  0.00  0.00     0.123 C 
ATOM     24  C   UNL d   1     -51.493  26.480  37.494  0.00  0.00     0.029 C 
ENDBRANCH  22  23
ENDBRANCH  17  22
ENDBRANCH  14  16
ENDBRANCH   1  13
TORSDOF 8
ENDMDL
MODEL 3
REMARK VINA RESULT:      57.9      2.046      3.216
REMARK  8 active torsions:
REMARK  status: ('A' for Active; 'I' for Inactive)
REMARK    1  A    between atoms: C_14  and  N_1 
REMARK    2  A    between atoms: N_9  and  C_2 
REMARK    3  A    between atoms: C_6  and  C_5 
REMARK    4  A    between atoms: C_7  and  C_6 
REMARK       I    between atoms: N_8  and  C_7 
REMARK    5  A    between atoms: C_10  and  N_8 
REMARK    6  A    between atoms: C_16  and  N_9 
REMARK    7  A    between atoms: O_15  and  C_13 
REMARK    8  A    between atoms: C_19  and  O_15 
ROOT
ATOM      1  C   UNL d   1     -51.799  26.003  33.535  0.00  0.00     0.074 C 
ENDROOT
BRANCH   1   2
ATOM      2  C   UNL d   1     -51.855  25.178  33.515  0.00  0.00     0.093 A 
ATOM      3  C   UNL d   1     -51.227  24.650  33.430  0.00  0.00     0.272 A 
ATOM      4  N   UNL d   1     -51.529  23.880  33.439  0.00  0.00    -0.252 N 
ATOM      5  O   UNL d   1     -50.430  24.856  33.349  0.00  0.00    -0.266 OA
ATOM      6  C   UNL d   1     -52.349  23.933  33.530  0.00  0.00     0.182 A 
ATOM      7  S   UNL d   1     -52.554  24.729  33.577  0.00  0.00    -0.045 SA
BRANCH   4   8
ATOM      8  C   UNL d   1     -51.085  23.192  33.369  0.00  0.00     0.085 C 
ATOM      9  C   UNL d   1     -50.266  23.230  33.307  0.00  0.00     0.021 C 
ENDBRANCH   4   8
BRANCH   6  10
ATOM     10  N   UNL d   1     -52.866  23.296  33.567  0.00  0.00    -0.221 NA
BRANCH  10  11
ATOM     11  C   UNL d   1     -53.454  23.265  34.139  0.00  0.00     0.101 C 
ATOM     12  C   UNL d   1     -54.253  23.275  33.928  0.00  0.00     0.022 C 
ENDBRANCH  10  11
ENDBRANCH   6  10
ENDBRANCH   1   2
BRANCH   1  13
ATOM     13  C   UNL d   1     -51.132  26.361  33.862  0.00  0.00     0.280 C 
ATOM     14  N   UNL d   1     -50.754  26.972  33.468  0.00  0.00    -0.206 NA
ATOM     15  O   UNL d   1     -50.850  26.098  34.588  0.00  0.00    -0.265 OA
BRANCH  14  16
ATOM     16  C   UNL d   1     -50.087  27.328  33.798  0.00  0.00     0.107 A 
ATOM     17  C   UNL d   1     -50.059  28.145  33.899  0.00  0.00     0.118 A 
ATOM     18  C   UNL d   1     -49.392  28.502  34.229  0.00  0.00     0.026 A 
ATOM     19  C   UNL d   1     -48.747  28.028  34.458  0.00  0.00     0.002 A 
ATOM     20  C   UNL d   1     -48.773  27.216  34.358  0.00  0.00     0.002 A 
ATOM     21  C   UNL d   1     -49.438  26.856  34.029  0.00  0.00     0.021 A 
BRANCH  17  22
ATOM     22  O   UNL d   1     -50.706  28.605  33.667  0.00  0.00    -0.304 OA
BRANCH  22  23
ATOM     23  C   UNL d   1     -50.655  29.425  33.701  0.00  0.00     0.123 C 
ATOM     24  C   UNL d   1     -51.209  29.893  33.307  0.00  0.00     0.029 C 
ENDBRANCH  22  23
ENDBRANCH  17  22
ENDBRANCH  14  16
ENDBRANCH   1  13
TORSDOF 8
ENDMDL
MODEL 4
REMARK VINA RESULT:      58.6      1.364      5.041
REMARK  8 active torsions:
REMARK  status: ('A' for Active; 'I' for Inactive)
REMARK    1  A    between atoms: C_14  and  N_1 
REMARK    2  A    between atoms: N_9  and  C_2 
REMARK    3  A    between atoms: C_6  and  C_5 
REMARK    4  A    between atoms: C_7  and  C_6 
REMARK       I    between atoms: N_8  and  C_7 
REMARK    5  A    between atoms: C_10  and  N_8 
REMARK    6  A    between atoms: C_16  and  N_9 
REMARK    7  A    between atoms: O_15  and  C_13 
REMARK    8  A    between atoms: C_19  and  O_15 
ROOT
ATOM      1  C   UNL d   1     -48.357  27.940  34.746  0.00  0.00     0.074 C 
ENDROOT
BRANCH   1   2
ATOM      2  C   UNL d   1     -48.099  28.703  34.937  0.00  0.00     0.093 A 
ATOM      3  C   UNL d   1     -47.718  28.928  35.633  0.00  0.00     0.272 A 
ATOM      4  N   UNL d   1     -47.558  29.738  35.594  0.00  0.00    -0.252 N 
ATOM      5  O   UNL d   1     -47.528  28.427  36.264  0.00  0.00    -0.266 OA
ATOM      6  C   UNL d   1     -47.842  30.016  34.869  0.00  0.00     0.182 A 
ATOM      7  S   UNL d   1     -48.175  29.383  34.462  0.00  0.00    -0.045 SA
BRANCH   4   8
ATOM      8  C   UNL d   1     -47.184  30.180  36.177  0.00  0.00     0.085 C 
ATOM      9  C   UNL d   1     -47.346  30.042  36.971  0.00  0.00     0.021 C 
ENDBRANCH   4   8
BRANCH   6  10
ATOM     10  N   UNL d   1     -47.796  30.792  34.606  0.00  0.00    -0.221 NA
BRANCH  10  11
ATOM     11  C   UNL d   1     -48.420  31.133  34.193  0.00  0.00     0.101 C 
ATOM     12  C   UNL d   1     -48.452  31.950  34.073  0.00  0.00     0.022 C 
ENDBRANCH  10  11
ENDBRANCH   6  10
ENDBRANCH   1   2
BRANCH   1  13
ATOM     13  C   UNL d   1     -49.144  27.816  34.533  0.00  0.00     0.280 C 
ATOM     14  N   UNL d   1     -49.336  27.272  33.952  0.00  0.00    -0.206 NA
ATOM     15  O   UNL d   1     -49.735  28.245  34.912  0.00  0.00    -0.265 OA
BRANCH  14  16
ATOM     16  C   UNL d   1     -50.124  27.150  33.742  0.00  0.00     0.107 A 
ATOM     17  C   UNL d   1     -50.397  26.390  33.576  0.00  0.00     0.118 A 
ATOM     18  C   UNL d   1     -51.185  26.268  33.365  0.00  0.00     0.026 A 
ATOM     19  C   UNL d   1     -51.703  26.919  33.321  0.00  0.00     0.002 A 
ATOM     20  C   UNL d   1     -51.433  27.675  33.485  0.00  0.00     0.002 A 
ATOM     21  C   UNL d   1     -50.645  27.801  33.696  0.00  0.00     0.021 A 
BRANCH  17  22
ATOM     22  O   UNL d   1     -49.874  25.752  33.623  0.00  0.00    -0.304 OA
BRANCH  22  23
ATOM     23  C   UNL d   1     -50.099  25.019  33.326  0.00  0.00     0.123 C 
ATOM     24  C   UNL d   1     -49.560  24.395  33.306  0.00  0.00     0.029 C 
ENDBRANCH  22  23
ENDBRANCH  17  22
ENDBRANCH  14  16
ENDBRANCH   1  13
TORSDOF 8
ENDMDL
