MODEL 1
REMARK VINA RESULT:      -3.4      0.000      0.000
REMARK  7 active torsions:
REMARK  status: ('A' for Active; 'I' for Inactive)
REMARK    1  A    between atoms: C_3  and  C_1 
REMARK    2  A    between atoms: C_4  and  C_1 
REMARK    3  A    between atoms: N_2  and  C_6 
REMARK    4  A    between atoms: C_6  and  C_13 
REMARK    5  A    between atoms: O_12  and  C_14 
REMARK    6  A    between atoms: C_16  and  O_12 
REMARK    7  A    between atoms: C_13  and  C_16 
ROOT
ATOM      1  C   UNL d   1     -42.286-122.901 -50.363  0.00  0.00     0.039 A 
ATOM      2  C   UNL d   1     -42.319-123.660 -50.697  0.00  0.00     0.005 A 
ATOM      3  C   UNL d   1     -41.877-122.303 -50.748  0.00  0.00     0.005 A 
ATOM      4  C   UNL d   1     -41.536-123.207 -51.789  0.00  0.00     0.100 A 
ATOM      5  C   UNL d   1     -41.944-123.805 -51.404  0.00  0.00     0.025 A 
ATOM      6  C   UNL d   1     -41.499-122.461 -51.469  0.00  0.00     0.025 A 
ENDROOT
BRANCH   4   7
ATOM      7  O   UNL d   1     -41.155-123.371 -52.517  0.00  0.00    -0.302 OA
BRANCH   7   8
ATOM      8  C   UNL d   1     -41.292-122.895 -53.197  0.00  0.00     0.166 C 
BRANCH   8   9
ATOM      9  C   UNL d   1     -41.545-123.246 -53.909  0.00  0.00     0.238 C 
ATOM     10  O   UNL d   1     -42.141-123.817 -53.900  0.00  0.00    -0.283 OA
BRANCH   9  11
ATOM     11  C   UNL d   1     -41.196-123.022 -54.625  0.00  0.00     0.125 C 
BRANCH  11  12
ATOM     12  N   UNL d   1     -41.616-122.548 -55.163  0.00  0.00    -0.296 N 
ATOM     13  C   UNL d   1     -41.241-121.912 -55.530  0.00  0.00     0.107 A 
ATOM     14  C   UNL d   1     -41.670-121.446 -56.064  0.00  0.00     0.142 A 
ATOM     15  O   UNL d   1     -42.468-121.616 -56.230  0.00  0.00    -0.300 OA
ATOM     16  C   UNL d   1     -42.831-122.256 -55.855  0.00  0.00     0.142 A 
ATOM     17  C   UNL d   1     -42.414-122.725 -55.323  0.00  0.00     0.107 A 
ENDBRANCH  11  12
ENDBRANCH   9  11
ENDBRANCH   8   9
ENDBRANCH   7   8
ENDBRANCH   4   7
BRANCH   1  18
ATOM     18  C   UNL d   1     -42.663-122.749 -49.648  0.00  0.00     0.196 C 
ATOM     19  O   UNL d   1     -43.423-122.432 -49.640  0.00  0.00    -0.287 OA
BRANCH  18  20
ATOM     20  C   UNL d   1     -42.278-122.915 -48.939  0.00  0.00     0.039 A 
ATOM     21  C   UNL d   1     -42.394-123.644 -48.567  0.00  0.00     0.004 A 
ATOM     22  C   UNL d   1     -42.012-123.813 -47.861  0.00  0.00     0.011 A 
ATOM     23  C   UNL d   1     -41.507-123.251 -47.520  0.00  0.00     0.058 A 
ATOM     24  C   UNL d   1     -41.391-122.522 -47.892  0.00  0.00     0.011 A 
ATOM     25 CL   UNL d   1     -41.123-123.417 -46.812  0.00  0.00    -0.082 Cl
ATOM     26  C   UNL d   1     -41.779-122.358 -48.602  0.00  0.00     0.004 A 
ENDBRANCH  18  20
ENDBRANCH   1  18
TORSDOF 7
ENDMDL
MODEL 2
REMARK VINA RESULT:      -3.0      2.620      6.081
REMARK  7 active torsions:
REMARK  status: ('A' for Active; 'I' for Inactive)
REMARK    1  A    between atoms: C_3  and  C_1 
REMARK    2  A    between atoms: C_4  and  C_1 
REMARK    3  A    between atoms: N_2  and  C_6 
REMARK    4  A    between atoms: C_6  and  C_13 
REMARK    5  A    between atoms: O_12  and  C_14 
REMARK    6  A    between atoms: C_16  and  O_12 
REMARK    7  A    between atoms: C_13  and  C_16 
ROOT
ATOM      1  C   UNL d   1     -41.965-123.000 -53.297  0.00  0.00     0.039 A 
ATOM      2  C   UNL d   1     -41.410-123.518 -52.960  0.00  0.00     0.005 A 
ATOM      3  C   UNL d   1     -42.237-122.357 -52.867  0.00  0.00     0.005 A 
ATOM      4  C   UNL d   1     -41.412-122.739 -51.775  0.00  0.00     0.100 A 
ATOM      5  C   UNL d   1     -41.140-123.382 -52.206  0.00  0.00     0.025 A 
ATOM      6  C   UNL d   1     -41.955-122.228 -52.097  0.00  0.00     0.025 A 
ENDROOT
BRANCH   4   7
ATOM      7  O   UNL d   1     -41.125-122.612 -50.999  0.00  0.00    -0.302 OA
BRANCH   7   8
ATOM      8  C   UNL d   1     -41.180-123.211 -50.411  0.00  0.00     0.166 C 
BRANCH   8   9
ATOM      9  C   UNL d   1     -41.178-123.005 -49.604  0.00  0.00     0.238 C 
ATOM     10  O   UNL d   1     -41.192-122.211 -49.379  0.00  0.00    -0.283 OA
BRANCH   9  11
ATOM     11  C   UNL d   1     -41.161-123.600 -49.027  0.00  0.00     0.125 C 
BRANCH  11  12
ATOM     12  N   UNL d   1     -41.722-123.602 -48.414  0.00  0.00    -0.296 N 
ATOM     13  C   UNL d   1     -42.510-123.780 -48.579  0.00  0.00     0.107 A 
ATOM     14  C   UNL d   1     -43.060-123.779 -47.960  0.00  0.00     0.142 A 
ATOM     15  O   UNL d   1     -42.823-123.601 -47.181  0.00  0.00    -0.300 OA
ATOM     16  C   UNL d   1     -42.030-123.424 -47.031  0.00  0.00     0.142 A 
ATOM     17  C   UNL d   1     -41.476-123.423 -47.639  0.00  0.00     0.107 A 
ENDBRANCH  11  12
ENDBRANCH   9  11
ENDBRANCH   8   9
ENDBRANCH   7   8
ENDBRANCH   4   7
BRANCH   1  18
ATOM     18  C   UNL d   1     -42.241-123.133 -54.061  0.00  0.00     0.196 C 
ATOM     19  O   UNL d   1     -42.681-123.809 -54.230  0.00  0.00    -0.287 OA
BRANCH  18  20
ATOM     20  C   UNL d   1     -42.078-122.588 -54.655  0.00  0.00     0.039 A 
ATOM     21  C   UNL d   1     -42.628-121.997 -54.837  0.00  0.00     0.004 A 
ATOM     22  C   UNL d   1     -42.469-121.452 -55.429  0.00  0.00     0.011 A 
ATOM     23  C   UNL d   1     -41.753-121.493 -55.845  0.00  0.00     0.058 A 
ATOM     24  C   UNL d   1     -41.204-122.082 -55.664  0.00  0.00     0.011 A 
ATOM     25 CL   UNL d   1     -41.590-120.947 -56.439  0.00  0.00    -0.082 Cl
ATOM     26  C   UNL d   1     -41.370-122.628 -55.067  0.00  0.00     0.004 A 
ENDBRANCH  18  20
ENDBRANCH   1  18
TORSDOF 7
ENDMDL
