MODEL 1
REMARK VINA RESULT:      -2.8      0.000      0.000
REMARK  8 active torsions:
REMARK  status: ('A' for Active; 'I' for Inactive)
REMARK    1  A    between atoms: C_6  and  N_1 
REMARK    2  A    between atoms: C_15  and  N_2 
REMARK    3  A    between atoms: C_8  and  C_3 
REMARK    4  A    between atoms: O_23  and  C_5 
REMARK    5  A    between atoms: C_7  and  O_9 
REMARK    6  A    between atoms: O_9  and  C_21 
REMARK    7  A    between atoms: C_20  and  C_15 
REMARK    8  A    between atoms: C_21  and  C_20 
ROOT
ATOM      1  C   UNL d   1      32.888  17.989 -23.522  0.00  0.00     0.238 C 
ATOM      2  O   UNL d   1      33.241  17.498 -22.961  0.00  0.00    -0.283 OA
ENDROOT
BRANCH   1   3
ATOM      3  C   UNL d   1      33.217  18.725 -23.696  0.00  0.00     0.125 C 
BRANCH   3   4
ATOM      4  N   UNL d   1      33.141  19.357 -23.160  0.00  0.00    -0.297 N 
ATOM      5  C   UNL d   1      33.208  20.132 -23.447  0.00  0.00     0.100 A 
ATOM      6  C   UNL d   1      33.135  20.768 -22.925  0.00  0.00     0.100 A 
ATOM      7  N   UNL d   1      32.996  20.626 -22.122  0.00  0.00    -0.301 N 
ATOM      8  C   UNL d   1      32.930  19.849 -21.839  0.00  0.00     0.100 A 
ATOM      9  C   UNL d   1      33.004  19.207 -22.367  0.00  0.00     0.100 A 
BRANCH   7  10
ATOM     10  C   UNL d   1      32.923  21.261 -21.601  0.00  0.00     0.064 A 
ATOM     11  C   UNL d   1      32.606  21.145 -20.849  0.00  0.00     0.020 A 
ATOM     12  C   UNL d   1      32.531  21.781 -20.324  0.00  0.00     0.031 A 
ATOM     13  C   UNL d   1      32.777  22.530 -20.559  0.00  0.00     0.140 A 
ATOM     14  C   UNL d   1      33.096  22.647 -21.316  0.00  0.00     0.031 A 
ATOM     15  F   UNL d   1      32.703  23.166 -20.038  0.00  0.00    -0.204 F 
ATOM     16  C   UNL d   1      33.165  22.009 -21.829  0.00  0.00     0.020 A 
ENDBRANCH   7  10
ENDBRANCH   3   4
ENDBRANCH   1   3
BRANCH   1  17
ATOM     17  C   UNL d   1      32.192  17.742 -23.919  0.00  0.00     0.166 C 
BRANCH  17  18
ATOM     18  O   UNL d   1      31.842  17.003 -23.736  0.00  0.00    -0.300 OA
BRANCH  18  19
ATOM     19  C   UNL d   1      31.052  16.824 -23.947  0.00  0.00     0.122 A 
ATOM     20  C   UNL d   1      30.638  16.250 -23.537  0.00  0.00     0.117 A 
ATOM     21  C   UNL d   1      29.865  16.074 -23.743  0.00  0.00     0.029 A 
ATOM     22  C   UNL d   1      29.502  16.478 -24.365  0.00  0.00     0.041 A 
ATOM     23  C   UNL d   1      29.916  17.052 -24.775  0.00  0.00     0.005 A 
ATOM     24  C   UNL d   1      30.699  17.232 -24.569  0.00  0.00     0.027 A 
BRANCH  20  25
ATOM     25  O   UNL d   1      31.001  15.850 -22.918  0.00  0.00    -0.326 OA
ATOM     26  C   UNL d   1      30.542  15.453 -22.359  0.00  0.00     0.181 C 
ENDBRANCH  20  25
BRANCH  22  27
ATOM     27  C   UNL d   1      28.725  16.303 -24.574  0.00  0.00     0.196 C 
ATOM     28  O   UNL d   1      28.562  15.642 -25.040  0.00  0.00    -0.287 OA
ATOM     29  C   UNL d   1      28.112  16.787 -24.316  0.00  0.00     0.045 C 
ENDBRANCH  22  27
ENDBRANCH  18  19
ENDBRANCH  17  18
ENDBRANCH   1  17
TORSDOF 8
ENDMDL
