MODEL 1
REMARK VINA RESULT:      -3.2      0.000      0.000
REMARK  1 active torsions:
REMARK  status: ('A' for Active; 'I' for Inactive)
REMARK    1  A    between atoms: C_7  and  C_2 
ROOT
ATOM      1  C   UNL d   1      29.803  16.545 -23.967  0.00  0.00     0.070 A 
ATOM      2  C   UNL d   1      29.037  16.635 -24.195  0.00  0.00     0.170 A 
ATOM      3  C   UNL d   1      30.271  17.126 -24.327  0.00  0.00     0.108 A 
ATOM      4  N   UNL d   1      29.000  17.293 -24.721  0.00  0.00    -0.142 NA
ATOM      5  N   UNL d   1      29.771  17.587 -24.793  0.00  0.00    -0.148 NA
ATOM      6  C   UNL d   1      31.085  17.144 -24.174  0.00  0.00     0.042 A 
ATOM      7  C   UNL d   1      30.144  15.991 -23.461  0.00  0.00     0.126 A 
ATOM      8  O   UNL d   1      30.958  16.009 -23.307  0.00  0.00    -0.305 OA
ATOM      9  C   UNL d   1      31.426  16.590 -23.668  0.00  0.00     0.102 A 
ATOM     10  C   UNL d   1      31.553  17.725 -24.534  0.00  0.00     0.004 A 
ATOM     11  C   UNL d   1      32.239  16.608 -23.515  0.00  0.00     0.025 A 
ATOM     12  C   UNL d   1      32.357  17.739 -24.380  0.00  0.00     0.000 A 
ATOM     13  C   UNL d   1      32.698  17.184 -23.873  0.00  0.00     0.002 A 
ENDROOT
BRANCH   2  14
ATOM     14  C   UNL d   1      28.432  16.152 -23.940  0.00  0.00     0.231 C 
ATOM     15  O   UNL d   1      28.273  15.453 -24.331  0.00  0.00    -0.643 OA
ATOM     16  O   UNL d   1      27.978  16.369 -23.285  0.00  0.00    -0.643 OA
ENDBRANCH   2  14
TORSDOF 1
ENDMDL
MODEL 2
REMARK VINA RESULT:      -3.2      1.130      1.402
REMARK  1 active torsions:
REMARK  status: ('A' for Active; 'I' for Inactive)
REMARK    1  A    between atoms: C_7  and  C_2 
ROOT
ATOM      1  C   UNL d   1      29.859  16.480 -23.946  0.00  0.00     0.070 A 
ATOM      2  C   UNL d   1      29.344  15.947 -23.635  0.00  0.00     0.170 A 
ATOM      3  C   UNL d   1      30.616  16.352 -23.634  0.00  0.00     0.108 A 
ATOM      4  N   UNL d   1      29.774  15.453 -23.103  0.00  0.00    -0.142 NA
ATOM      5  N   UNL d   1      30.559  15.715 -23.113  0.00  0.00    -0.148 NA
ATOM      6  C   UNL d   1      31.242  16.837 -23.874  0.00  0.00     0.042 A 
ATOM      7  C   UNL d   1      29.731  17.086 -24.491  0.00  0.00     0.126 A 
ATOM      8  O   UNL d   1      30.358  17.572 -24.731  0.00  0.00    -0.305 OA
ATOM      9  C   UNL d   1      31.114  17.443 -24.419  0.00  0.00     0.102 A 
ATOM     10  C   UNL d   1      31.999  16.708 -23.562  0.00  0.00     0.004 A 
ATOM     11  C   UNL d   1      31.741  17.928 -24.659  0.00  0.00     0.025 A 
ATOM     12  C   UNL d   1      32.615  17.191 -23.802  0.00  0.00     0.000 A 
ATOM     13  C   UNL d   1      32.487  17.797 -24.347  0.00  0.00     0.002 A 
ENDROOT
BRANCH   2  14
ATOM     14  C   UNL d   1      28.553  15.921 -23.827  0.00  0.00     0.231 C 
ATOM     15  O   UNL d   1      28.295  15.453 -24.445  0.00  0.00    -0.643 OA
ATOM     16  O   UNL d   1      28.008  16.370 -23.398  0.00  0.00    -0.643 OA
ENDBRANCH   2  14
TORSDOF 1
ENDMDL
MODEL 3
REMARK VINA RESULT:      -3.1      1.133      2.971
REMARK  1 active torsions:
REMARK  status: ('A' for Active; 'I' for Inactive)
REMARK    1  A    between atoms: C_7  and  C_2 
ROOT
ATOM      1  C   UNL d   1      31.095  16.992 -24.162  0.00  0.00     0.070 A 
ATOM      2  C   UNL d   1      31.479  17.536 -24.614  0.00  0.00     0.170 A 
ATOM      3  C   UNL d   1      30.285  17.010 -24.333  0.00  0.00     0.108 A 
ATOM      4  N   UNL d   1      30.904  17.923 -25.095  0.00  0.00    -0.142 NA
ATOM      5  N   UNL d   1      30.170  17.587 -24.910  0.00  0.00    -0.148 NA
ATOM      6  C   UNL d   1      29.774  16.494 -23.933  0.00  0.00     0.042 A 
ATOM      7  C   UNL d   1      31.391  16.466 -23.600  0.00  0.00     0.126 A 
ATOM      8  O   UNL d   1      30.881  15.951 -23.200  0.00  0.00    -0.305 OA
ATOM      9  C   UNL d   1      30.070  15.968 -23.370  0.00  0.00     0.102 A 
ATOM     10  C   UNL d   1      28.964  16.512 -24.103  0.00  0.00     0.004 A 
ATOM     11  C   UNL d   1      29.560  15.453 -22.971  0.00  0.00     0.025 A 
ATOM     12  C   UNL d   1      28.464  16.001 -23.705  0.00  0.00     0.000 A 
ATOM     13  C   UNL d   1      28.759  15.475 -23.143  0.00  0.00     0.002 A 
ENDROOT
BRANCH   2  14
ATOM     14  C   UNL d   1      32.283  17.660 -24.582  0.00  0.00     0.231 C 
ATOM     15  O   UNL d   1      32.784  17.234 -25.066  0.00  0.00    -0.643 OA
ATOM     16  O   UNL d   1      32.595  18.219 -24.058  0.00  0.00    -0.643 OA
ENDBRANCH   2  14
TORSDOF 1
ENDMDL
MODEL 4
REMARK VINA RESULT:      -3.0      1.592      3.373
REMARK  1 active torsions:
REMARK  status: ('A' for Active; 'I' for Inactive)
REMARK    1  A    between atoms: C_7  and  C_2 
ROOT
ATOM      1  C   UNL d   1      31.216  16.768 -23.975  0.00  0.00     0.070 A 
ATOM      2  C   UNL d   1      32.012  16.685 -23.902  0.00  0.00     0.170 A 
ATOM      3  C   UNL d   1      30.834  16.141 -23.593  0.00  0.00     0.108 A 
ATOM      4  N   UNL d   1      32.158  15.982 -23.459  0.00  0.00    -0.142 NA
ATOM      5  N   UNL d   1      31.419  15.656 -23.274  0.00  0.00    -0.148 NA
ATOM      6  C   UNL d   1      30.006  16.108 -23.595  0.00  0.00     0.042 A 
ATOM      7  C   UNL d   1      30.777  17.355 -24.353  0.00  0.00     0.126 A 
ATOM      8  O   UNL d   1      29.949  17.322 -24.355  0.00  0.00    -0.305 OA
ATOM      9  C   UNL d   1      29.567  16.695 -23.973  0.00  0.00     0.102 A 
ATOM     10  C   UNL d   1      29.624  15.480 -23.213  0.00  0.00     0.004 A 
ATOM     11  C   UNL d   1      28.739  16.662 -23.974  0.00  0.00     0.025 A 
ATOM     12  C   UNL d   1      28.805  15.453 -23.217  0.00  0.00     0.000 A 
ATOM     13  C   UNL d   1      28.366  16.039 -23.595  0.00  0.00     0.002 A 
ENDROOT
BRANCH   2  14
ATOM     14  C   UNL d   1      32.550  17.210 -24.215  0.00  0.00     0.231 C 
ATOM     15  O   UNL d   1      32.795  17.857 -23.779  0.00  0.00    -0.643 OA
ATOM     16  O   UNL d   1      32.850  17.091 -24.976  0.00  0.00    -0.643 OA
ENDBRANCH   2  14
TORSDOF 1
ENDMDL
MODEL 5
REMARK VINA RESULT:      -2.8      1.546      1.744
REMARK  1 active torsions:
REMARK  status: ('A' for Active; 'I' for Inactive)
REMARK    1  A    between atoms: C_7  and  C_2 
ROOT
ATOM      1  C   UNL d   1      29.631  15.942 -23.810  0.00  0.00     0.070 A 
ATOM      2  C   UNL d   1      29.013  15.897 -23.297  0.00  0.00     0.170 A 
ATOM      3  C   UNL d   1      30.326  15.699 -23.432  0.00  0.00     0.108 A 
ATOM      4  N   UNL d   1      29.311  15.616 -22.560  0.00  0.00    -0.142 NA
ATOM      5  N   UNL d   1      30.125  15.498 -22.658  0.00  0.00    -0.148 NA
ATOM      6  C   UNL d   1      31.039  15.699 -23.853  0.00  0.00     0.042 A 
ATOM      7  C   UNL d   1      29.648  16.182 -24.600  0.00  0.00     0.126 A 
ATOM      8  O   UNL d   1      30.361  16.182 -25.021  0.00  0.00    -0.305 OA
ATOM      9  C   UNL d   1      31.057  15.939 -24.643  0.00  0.00     0.102 A 
ATOM     10  C   UNL d   1      31.735  15.457 -23.475  0.00  0.00     0.004 A 
ATOM     11  C   UNL d   1      31.770  15.939 -25.064  0.00  0.00     0.025 A 
ATOM     12  C   UNL d   1      32.437  15.458 -23.896  0.00  0.00     0.000 A 
ATOM     13  C   UNL d   1      32.454  15.698 -24.685  0.00  0.00     0.002 A 
ENDROOT
BRANCH   2  14
ATOM     14  C   UNL d   1      28.249  16.096 -23.495  0.00  0.00     0.231 C 
ATOM     15  O   UNL d   1      27.741  15.530 -23.793  0.00  0.00    -0.643 OA
ATOM     16  O   UNL d   1      27.985  16.873 -23.394  0.00  0.00    -0.643 OA
ENDBRANCH   2  14
TORSDOF 1
ENDMDL
MODEL 6
REMARK VINA RESULT:      -2.6      5.563      6.480
REMARK  1 active torsions:
REMARK  status: ('A' for Active; 'I' for Inactive)
REMARK    1  A    between atoms: C_7  and  C_2 
ROOT
ATOM      1  C   UNL d   1      32.746  22.186 -21.354  0.00  0.00     0.070 A 
ATOM      2  C   UNL d   1      32.732  22.990 -21.371  0.00  0.00     0.170 A 
ATOM      3  C   UNL d   1      32.945  21.894 -22.103  0.00  0.00     0.108 A 
ATOM      4  N   UNL d   1      32.927  23.234 -22.155  0.00  0.00    -0.142 NA
ATOM      5  N   UNL d   1      33.057  22.545 -22.596  0.00  0.00    -0.148 NA
ATOM      6  C   UNL d   1      32.994  21.076 -22.220  0.00  0.00     0.042 A 
ATOM      7  C   UNL d   1      32.598  21.667 -20.730  0.00  0.00     0.126 A 
ATOM      8  O   UNL d   1      32.647  20.848 -20.847  0.00  0.00    -0.305 OA
ATOM      9  C   UNL d   1      32.846  20.556 -21.596  0.00  0.00     0.102 A 
ATOM     10  C   UNL d   1      33.193  20.784 -22.969  0.00  0.00     0.004 A 
ATOM     11  C   UNL d   1      32.895  19.738 -21.713  0.00  0.00     0.025 A 
ATOM     12  C   UNL d   1      33.240  19.974 -23.079  0.00  0.00     0.000 A 
ATOM     13  C   UNL d   1      33.092  19.454 -22.456  0.00  0.00     0.002 A 
ENDROOT
BRANCH   2  14
ATOM     14  C   UNL d   1      32.555  23.451 -20.724  0.00  0.00     0.231 C 
ATOM     15  O   UNL d   1      33.150  23.702 -20.223  0.00  0.00    -0.643 OA
ATOM     16  O   UNL d   1      31.772  23.667 -20.571  0.00  0.00    -0.643 OA
ENDBRANCH   2  14
TORSDOF 1
ENDMDL
MODEL 7
REMARK VINA RESULT:      -2.2      5.776      6.654
REMARK  1 active torsions:
REMARK  status: ('A' for Active; 'I' for Inactive)
REMARK    1  A    between atoms: C_7  and  C_2 
ROOT
ATOM      1  C   UNL d   1      32.794  21.214 -21.456  0.00  0.00     0.070 A 
ATOM      2  C   UNL d   1      32.957  20.440 -21.605  0.00  0.00     0.170 A 
ATOM      3  C   UNL d   1      32.962  21.387 -20.664  0.00  0.00     0.108 A 
ATOM      4  N   UNL d   1      33.241  20.094 -20.890  0.00  0.00    -0.142 NA
ATOM      5  N   UNL d   1      33.239  20.692 -20.316  0.00  0.00    -0.148 NA
ATOM      6  C   UNL d   1      32.837  22.154 -20.380  0.00  0.00     0.042 A 
ATOM      7  C   UNL d   1      32.505  21.801 -21.958  0.00  0.00     0.126 A 
ATOM      8  O   UNL d   1      32.379  22.569 -21.674  0.00  0.00    -0.305 OA
ATOM      9  C   UNL d   1      32.548  22.742 -20.882  0.00  0.00     0.102 A 
ATOM     10  C   UNL d   1      33.005  22.327 -19.588  0.00  0.00     0.004 A 
ATOM     11  C   UNL d   1      32.422  23.510 -20.598  0.00  0.00     0.025 A 
ATOM     12  C   UNL d   1      32.880  23.088 -19.312  0.00  0.00     0.000 A 
ATOM     13  C   UNL d   1      32.590  23.675 -19.814  0.00  0.00     0.002 A 
ENDROOT
BRANCH   2  14
ATOM     14  C   UNL d   1      32.853  20.091 -22.333  0.00  0.00     0.231 C 
ATOM     15  O   UNL d   1      32.365  19.440 -22.410  0.00  0.00    -0.643 OA
ATOM     16  O   UNL d   1      33.240  20.394 -22.997  0.00  0.00    -0.643 OA
ENDBRANCH   2  14
TORSDOF 1
ENDMDL
MODEL 8
REMARK VINA RESULT:      -1.9      6.242      6.844
REMARK  1 active torsions:
REMARK  status: ('A' for Active; 'I' for Inactive)
REMARK    1  A    between atoms: C_7  and  C_2 
ROOT
ATOM      1  C   UNL d   1      32.768  22.196 -21.591  0.00  0.00     0.070 A 
ATOM      2  C   UNL d   1      32.574  22.282 -20.815  0.00  0.00     0.170 A 
ATOM      3  C   UNL d   1      32.627  22.907 -21.993  0.00  0.00     0.108 A 
ATOM      4  N   UNL d   1      32.299  23.072 -20.704  0.00  0.00    -0.142 NA
ATOM      5  N   UNL d   1      32.337  23.446 -21.442  0.00  0.00    -0.148 NA
ATOM      6  C   UNL d   1      32.786  22.952 -22.805  0.00  0.00     0.042 A 
ATOM      7  C   UNL d   1      33.063  21.541 -21.995  0.00  0.00     0.126 A 
ATOM      8  O   UNL d   1      33.222  21.586 -22.807  0.00  0.00    -0.305 OA
ATOM      9  C   UNL d   1      33.082  22.296 -23.209  0.00  0.00     0.102 A 
ATOM     10  C   UNL d   1      32.646  23.662 -23.207  0.00  0.00     0.004 A 
ATOM     11  C   UNL d   1      33.241  22.342 -24.020  0.00  0.00     0.025 A 
ATOM     12  C   UNL d   1      32.805  23.702 -24.010  0.00  0.00     0.000 A 
ATOM     13  C   UNL d   1      33.101  23.046 -24.413  0.00  0.00     0.002 A 
ENDROOT
BRANCH   2  14
ATOM     14  C   UNL d   1      32.647  21.686 -20.265  0.00  0.00     0.231 C 
ATOM     15  O   UNL d   1      33.235  21.718 -19.700  0.00  0.00    -0.643 OA
ATOM     16  O   UNL d   1      32.125  21.045 -20.278  0.00  0.00    -0.643 OA
ENDBRANCH   2  14
TORSDOF 1
ENDMDL
MODEL 9
REMARK VINA RESULT:      -1.6      1.859      2.758
REMARK  1 active torsions:
REMARK  status: ('A' for Active; 'I' for Inactive)
REMARK    1  A    between atoms: C_7  and  C_2 
ROOT
ATOM      1  C   UNL d   1      32.115  17.372 -23.618  0.00  0.00     0.070 A 
ATOM      2  C   UNL d   1      31.717  16.830 -24.059  0.00  0.00     0.170 A 
ATOM      3  C   UNL d   1      32.101  18.107 -24.000  0.00  0.00     0.108 A 
ATOM      4  N   UNL d   1      31.432  17.219 -24.751  0.00  0.00    -0.142 NA
ATOM      5  N   UNL d   1      31.677  18.009 -24.701  0.00  0.00    -0.148 NA
ATOM      6  C   UNL d   1      32.478  18.755 -23.648  0.00  0.00     0.042 A 
ATOM      7  C   UNL d   1      32.501  17.286 -22.894  0.00  0.00     0.126 A 
ATOM      8  O   UNL d   1      32.878  17.934 -22.543  0.00  0.00    -0.305 OA
ATOM      9  C   UNL d   1      32.864  18.669 -22.924  0.00  0.00     0.102 A 
ATOM     10  C   UNL d   1      32.463  19.490 -24.030  0.00  0.00     0.004 A 
ATOM     11  C   UNL d   1      33.241  19.317 -22.572  0.00  0.00     0.025 A 
ATOM     12  C   UNL d   1      32.837  20.127 -23.678  0.00  0.00     0.000 A 
ATOM     13  C   UNL d   1      33.224  20.041 -22.954  0.00  0.00     0.002 A 
ENDROOT
BRANCH   2  14
ATOM     14  C   UNL d   1      31.627  16.051 -23.840  0.00  0.00     0.231 C 
ATOM     15  O   UNL d   1      31.000  15.827 -23.365  0.00  0.00    -0.643 OA
ATOM     16  O   UNL d   1      32.169  15.483 -24.098  0.00  0.00    -0.643 OA
ENDBRANCH   2  14
TORSDOF 1
ENDMDL
