MODEL 1
REMARK VINA RESULT:      45.4      0.000      0.000
REMARK  3 active torsions:
REMARK  status: ('A' for Active; 'I' for Inactive)
REMARK    1  A    between atoms: N_5  and  C_1 
REMARK    2  A    between atoms: C_9  and  C_2 
REMARK       I    between atoms: C_8  and  N_5 
REMARK    3  A    between atoms: C_10  and  C_8 
ROOT
ATOM      1  C   UNL d   1      14.436  13.979  -2.002  0.00  0.00     0.155 A 
ATOM      2  C   UNL d   1      14.712  13.828  -1.240  0.00  0.00     0.080 A 
ATOM      3  N   UNL d   1      14.465  14.751  -2.306  0.00  0.00    -0.289 N 
ATOM      4  C   UNL d   1      15.018  14.449  -0.781  0.00  0.00     0.200 A 
ATOM      5  C   UNL d   1      15.045  15.214  -1.086  0.00  0.00     0.055 A 
ATOM      6  C   UNL d   1      14.769  15.365  -1.849  0.00  0.00     0.069 A 
ATOM      7  O   UNL d   1      15.296  14.298  -0.014  0.00  0.00    -0.286 OA
ATOM      8  C   UNL d   1      14.189  14.902  -3.068  0.00  0.00     0.101 C 
ATOM      9  C   UNL d   1      15.348  15.827  -0.628  0.00  0.00     0.005 A 
ATOM     10  C   UNL d   1      14.794  16.121  -2.154  0.00  0.00     0.018 A 
ATOM     11  C   UNL d   1      15.375  16.592  -0.933  0.00  0.00     0.000 A 
ATOM     12  C   UNL d   1      15.099  16.743  -1.696  0.00  0.00     0.002 A 
ENDROOT
BRANCH   1  13
ATOM     13  N   UNL d   1      14.127  13.355  -2.468  0.00  0.00    -0.190 NA
ATOM     14  C   UNL d   1      13.706  13.507  -3.167  0.00  0.00     0.286 C 
ATOM     15  O   UNL d   1      13.594  14.287  -3.397  0.00  0.00    -0.265 OA
BRANCH  14  16
ATOM     16  C   UNL d   1      13.402  12.893  -3.624  0.00  0.00     0.087 A 
ATOM     17  S   UNL d   1      13.448  12.930  -4.447  0.00  0.00    -0.082 SA
ATOM     18  C   UNL d   1      13.102  12.243  -4.747  0.00  0.00     0.036 A 
ATOM     19  C   UNL d   1      12.842  11.781  -4.115  0.00  0.00     0.008 A 
ATOM     20  C   UNL d   1      13.028  12.184  -3.414  0.00  0.00     0.012 A 
ENDBRANCH  14  16
ENDBRANCH   1  13
BRANCH   2  21
ATOM     21  C   UNL d   1      14.686  13.064  -0.934  0.00  0.00     0.035 A 
ATOM     22  S   UNL d   1      14.116  12.773  -0.411  0.00  0.00    -0.086 SA
ATOM     23  C   UNL d   1      14.303  11.984  -0.251  0.00  0.00     0.035 A 
ATOM     24  C   UNL d   1      14.989  11.785  -0.676  0.00  0.00     0.007 A 
ATOM     25  C   UNL d   1      15.216  12.458  -1.093  0.00  0.00     0.007 A 
ENDBRANCH   2  21
TORSDOF 3
ENDMDL
MODEL 2
REMARK VINA RESULT:      47.4      1.369      4.146
REMARK  3 active torsions:
REMARK  status: ('A' for Active; 'I' for Inactive)
REMARK    1  A    between atoms: N_5  and  C_1 
REMARK    2  A    between atoms: C_9  and  C_2 
REMARK       I    between atoms: C_8  and  N_5 
REMARK    3  A    between atoms: C_10  and  C_8 
ROOT
ATOM      1  C   UNL d   1      13.822  13.185  -3.191  0.00  0.00     0.155 A 
ATOM      2  C   UNL d   1      13.818  13.887  -3.624  0.00  0.00     0.080 A 
ATOM      3  N   UNL d   1      13.559  12.481  -3.545  0.00  0.00    -0.289 N 
ATOM      4  C   UNL d   1      13.552  13.885  -4.411  0.00  0.00     0.200 A 
ATOM      5  C   UNL d   1      13.293  13.184  -4.758  0.00  0.00     0.055 A 
ATOM      6  C   UNL d   1      13.296  12.482  -4.325  0.00  0.00     0.069 A 
ATOM      7  O   UNL d   1      13.549  14.591  -4.847  0.00  0.00    -0.286 OA
ATOM      8  C   UNL d   1      13.563  11.779  -3.111  0.00  0.00     0.101 C 
ATOM      9  C   UNL d   1      13.030  13.187  -5.538  0.00  0.00     0.005 A 
ATOM     10  C   UNL d   1      13.040  11.787  -4.665  0.00  0.00     0.018 A 
ATOM     11  C   UNL d   1      12.771  12.486  -5.885  0.00  0.00     0.000 A 
ATOM     12  C   UNL d   1      12.774  11.784  -5.452  0.00  0.00     0.002 A 
ENDROOT
BRANCH   1  13
ATOM     13  N   UNL d   1      14.089  13.183  -2.397  0.00  0.00    -0.190 NA
ATOM     14  C   UNL d   1      14.403  12.497  -2.050  0.00  0.00     0.286 C 
ATOM     15  O   UNL d   1      14.447  11.813  -2.502  0.00  0.00    -0.265 OA
BRANCH  14  16
ATOM     16  C   UNL d   1      14.665  12.496  -1.270  0.00  0.00     0.087 A 
ATOM     17  S   UNL d   1      14.399  11.917  -0.746  0.00  0.00    -0.082 SA
ATOM     18  C   UNL d   1      14.754  12.059  -0.014  0.00  0.00     0.036 A 
ATOM     19  C   UNL d   1      15.240  12.723  -0.082  0.00  0.00     0.008 A 
ATOM     20  C   UNL d   1      15.186  12.997  -0.864  0.00  0.00     0.012 A 
ENDBRANCH  14  16
ENDBRANCH   1  13
BRANCH   2  21
ATOM     21  C   UNL d   1      14.078  14.587  -3.278  0.00  0.00     0.035 A 
ATOM     22  S   UNL d   1      14.370  15.246  -3.682  0.00  0.00    -0.086 SA
ATOM     23  C   UNL d   1      14.564  15.819  -3.118  0.00  0.00     0.035 A 
ATOM     24  C   UNL d   1      14.391  15.516  -2.365  0.00  0.00     0.007 A 
ATOM     25  C   UNL d   1      14.092  14.756  -2.475  0.00  0.00     0.007 A 
ENDBRANCH   2  21
TORSDOF 3
ENDMDL
