MODEL 1
REMARK VINA RESULT:      42.1      0.000      0.000
REMARK  5 active torsions:
REMARK  status: ('A' for Active; 'I' for Inactive)
REMARK    1  A    between atoms: C_4  and  C_1 
REMARK    2  A    between atoms: C_5  and  C_2 
REMARK    3  A    between atoms: N_6  and  C_4 
REMARK    4  A    between atoms: C_25  and  N_10 
REMARK    5  A    between atoms: C_21  and  C_25 
ROOT
ATOM      1  N   UNL d   1      16.397  17.761  -0.918  0.00  0.00    -0.191 NA
ATOM      2  C   UNL d   1      16.440  16.947  -0.790  0.00  0.00     0.103 C 
ATOM      3  C   UNL d   1      16.485  16.135  -0.664  0.00  0.00     0.097 C 
ENDROOT
BRANCH   3   4
ATOM      4  C   UNL d   1      16.012  15.784  -0.094  0.00  0.00     0.091 C 
BRANCH   4   5
ATOM      5  N   UNL d   1      15.725  15.016  -0.206  0.00  0.00    -0.299 N 
ATOM      6  C   UNL d   1      16.241  14.376  -0.147  0.00  0.00     0.100 A 
ATOM      7  C   UNL d   1      15.958  13.609  -0.259  0.00  0.00     0.100 A 
ATOM      8  N   UNL d   1      15.161  13.484  -0.430  0.00  0.00    -0.291 N 
ATOM      9  C   UNL d   1      14.641  14.123  -0.490  0.00  0.00     0.100 A 
ATOM     10  C   UNL d   1      14.929  14.891  -0.377  0.00  0.00     0.100 A 
BRANCH   8  11
ATOM     11  C   UNL d   1      14.885  12.721  -0.540  0.00  0.00     0.143 C 
ATOM     12  S   UNL d   1      15.106  12.122  -0.020  0.00  0.00    -0.057 SA
BRANCH  11  13
ATOM     13  C   UNL d   1      14.383  12.548  -1.172  0.00  0.00     0.126 A 
ATOM     14  O   UNL d   1      14.397  12.898  -1.917  0.00  0.00    -0.305 OA
ATOM     15  C   UNL d   1      13.799  12.560  -2.378  0.00  0.00     0.101 A 
ATOM     16  C   UNL d   1      13.414  11.996  -1.910  0.00  0.00     0.027 A 
ATOM     17  C   UNL d   1      13.775  11.991  -1.167  0.00  0.00     0.029 A 
BRANCH  15  18
ATOM     18  C   UNL d   1      13.617  12.747  -3.160  0.00  0.00     0.034 A 
ATOM     19  C   UNL d   1      13.770  13.504  -3.440  0.00  0.00     0.060 A 
ATOM     20  C   UNL d   1      13.590  13.698  -4.222  0.00  0.00     0.012 A 
ATOM     21 CL   UNL d   1      14.104  14.073  -2.940  0.00  0.00    -0.082 Cl
ATOM     22  C   UNL d   1      13.254  13.126  -4.723  0.00  0.00     0.012 A 
ATOM     23  C   UNL d   1      13.104  12.361  -4.429  0.00  0.00     0.058 A 
ATOM     24  C   UNL d   1      13.287  12.178  -3.649  0.00  0.00     0.014 A 
ATOM     25 CL   UNL d   1      12.769  11.792  -4.930  0.00  0.00    -0.082 Cl
ENDBRANCH  15  18
ENDBRANCH  11  13
ENDBRANCH   8  11
ENDBRANCH   4   5
ENDBRANCH   3   4
TORSDOF 5
ENDMDL
