MODEL 1
REMARK VINA RESULT:       4.4      0.000      0.000
REMARK  2 active torsions:
REMARK  status: ('A' for Active; 'I' for Inactive)
REMARK       I    between atoms: N_2  and  C_1 
REMARK    1  A    between atoms: C_4  and  N_2 
REMARK    2  A    between atoms: O_8  and  C_7 
ROOT
ATOM      1  C   UNL d   1      14.332  12.337  -1.663  0.00  0.00     0.102 A 
ATOM      2  C   UNL d   1      14.791  12.916  -1.293  0.00  0.00     0.044 A 
ATOM      3  C   UNL d   1      14.843  12.939  -0.469  0.00  0.00     0.096 A 
ATOM      4  C   UNL d   1      13.978  11.803  -0.386  0.00  0.00     0.004 A 
ATOM      5  C   UNL d   1      13.925  11.780  -1.210  0.00  0.00     0.020 A 
ATOM      6  C   UNL d   1      14.436  12.382  -0.017  0.00  0.00     0.024 A 
ENDROOT
BRANCH   1   7
ATOM      7  N   UNL d   1      14.278  12.311  -2.488  0.00  0.00    -0.056 NA
ATOM      8  C   UNL d   1      13.585  12.040  -2.854  0.00  0.00     0.787 C 
ATOM      9  N   UNL d   1      13.527  12.012  -3.676  0.00  0.00     0.064 N 
ATOM     10  N   UNL d   1      12.949  11.796  -2.385  0.00  0.00     0.064 N 
ENDBRANCH   1   7
BRANCH   3  11
ATOM     11  O   UNL d   1      15.301  13.519  -0.100  0.00  0.00    -0.328 OA
ATOM     12  C   UNL d   1      15.031  14.298  -0.060  0.00  0.00     0.181 C 
ENDBRANCH   3  11
TORSDOF 2
ENDMDL
MODEL 2
REMARK VINA RESULT:       5.1      1.977      2.842
REMARK  2 active torsions:
REMARK  status: ('A' for Active; 'I' for Inactive)
REMARK       I    between atoms: N_2  and  C_1 
REMARK    1  A    between atoms: C_4  and  N_2 
REMARK    2  A    between atoms: O_8  and  C_7 
ROOT
ATOM      1  C   UNL d   1      15.002  12.930  -0.657  0.00  0.00     0.102 A 
ATOM      2  C   UNL d   1      14.824  12.744  -1.442  0.00  0.00     0.044 A 
ATOM      3  C   UNL d   1      14.257  12.168  -1.612  0.00  0.00     0.096 A 
ATOM      4  C   UNL d   1      14.048  11.966  -0.211  0.00  0.00     0.004 A 
ATOM      5  C   UNL d   1      14.614  12.542  -0.041  0.00  0.00     0.020 A 
ATOM      6  C   UNL d   1      13.869  11.779  -0.995  0.00  0.00     0.024 A 
ENDROOT
BRANCH   1   7
ATOM      7  N   UNL d   1      15.569  13.507  -0.483  0.00  0.00    -0.056 NA
ATOM      8  C   UNL d   1      15.338  14.247  -0.189  0.00  0.00     0.787 C 
ATOM      9  N   UNL d   1      15.901  14.824  -0.014  0.00  0.00     0.064 N 
ATOM     10  N   UNL d   1      14.535  14.402  -0.071  0.00  0.00     0.064 N 
ENDBRANCH   1   7
BRANCH   3  11
ATOM     11  O   UNL d   1      14.079  11.981  -2.396  0.00  0.00    -0.328 OA
ATOM     12  C   UNL d   1      13.307  11.784  -2.610  0.00  0.00     0.181 C 
ENDBRANCH   3  11
TORSDOF 2
ENDMDL
MODEL 3
REMARK VINA RESULT:       5.6      1.168      1.498
REMARK  2 active torsions:
REMARK  status: ('A' for Active; 'I' for Inactive)
REMARK       I    between atoms: N_2  and  C_1 
REMARK    1  A    between atoms: C_4  and  N_2 
REMARK    2  A    between atoms: O_8  and  C_7 
ROOT
ATOM      1  C   UNL d   1      13.607  11.796  -2.573  0.00  0.00     0.102 A 
ATOM      2  C   UNL d   1      14.373  11.829  -2.266  0.00  0.00     0.044 A 
ATOM      3  C   UNL d   1      14.492  11.846  -1.449  0.00  0.00     0.096 A 
ATOM      4  C   UNL d   1      13.076  11.796  -1.247  0.00  0.00     0.004 A 
ATOM      5  C   UNL d   1      12.958  11.779  -2.064  0.00  0.00     0.020 A 
ATOM      6  C   UNL d   1      13.843  11.829  -0.940  0.00  0.00     0.024 A 
ENDROOT
BRANCH   1   7
ATOM      7  N   UNL d   1      13.485  11.779  -3.391  0.00  0.00    -0.056 NA
ATOM      8  C   UNL d   1      13.263  12.467  -3.796  0.00  0.00     0.787 C 
ATOM      9  N   UNL d   1      13.140  12.455  -4.611  0.00  0.00     0.064 N 
ATOM     10  N   UNL d   1      13.165  13.171  -3.373  0.00  0.00     0.064 N 
ENDBRANCH   1   7
BRANCH   3  11
ATOM     11  O   UNL d   1      15.258  11.879  -1.142  0.00  0.00    -0.328 OA
ATOM     12  C   UNL d   1      15.378  12.072  -0.349  0.00  0.00     0.181 C 
ENDBRANCH   3  11
TORSDOF 2
ENDMDL
