MODEL 1
REMARK VINA RESULT:      59.5      0.000      0.000
REMARK  5 active torsions:
REMARK  status: ('A' for Active; 'I' for Inactive)
REMARK    1  A    between atoms: C_12  and  N_3 
REMARK    2  A    between atoms: C_11  and  C_5 
REMARK    3  A    between atoms: C_10  and  C_8 
REMARK    4  A    between atoms: O_27  and  C_14 
REMARK    5  A    between atoms: O_28  and  C_21 
ROOT
ATOM      1  C   UNL d   1      14.167  15.372  -2.849  0.00  0.00     0.143 A 
ATOM      2  C   UNL d   1      14.010  14.578  -3.019  0.00  0.00     0.172 A 
ATOM      3  N   UNL d   1      13.699  14.526  -3.787  0.00  0.00    -0.242 N 
ATOM      4  C   UNL d   1      13.665  15.297  -4.091  0.00  0.00     0.355 A 
ATOM      5  C   UNL d   1      14.477  15.585  -2.128  0.00  0.00     0.163 A 
ATOM      6  N   UNL d   1      14.169  13.994  -2.452  0.00  0.00    -0.207 NA
ATOM      7  N   UNL d   1      13.953  15.812  -3.512  0.00  0.00    -0.187 NA
ATOM      8  C   UNL d   1      14.485  14.221  -1.720  0.00  0.00     0.166 A 
ATOM      9  N   UNL d   1      14.639  15.017  -1.558  0.00  0.00    -0.220 NA
ATOM     10  O   UNL d   1      13.390  15.503  -4.843  0.00  0.00    -0.244 OA
ENDROOT
BRANCH   8  11
ATOM     11  C   UNL d   1      14.646  13.649  -1.152  0.00  0.00     0.060 A 
ATOM     12  C   UNL d   1      15.302  13.729  -0.664  0.00  0.00     0.097 A 
ATOM     13  C   UNL d   1      15.464  13.152  -0.092  0.00  0.00     0.026 A 
ATOM     14  C   UNL d   1      14.970  12.505  -0.014  0.00  0.00     0.026 A 
ATOM     15  C   UNL d   1      14.316  12.433  -0.506  0.00  0.00     0.094 A 
ATOM     16  C   UNL d   1      14.147  12.996  -1.074  0.00  0.00     0.029 A 
BRANCH  12  17
ATOM     17  O   UNL d   1      15.797  14.386  -0.748  0.00  0.00    -0.328 OA
ATOM     18  C   UNL d   1      16.383  14.514  -0.175  0.00  0.00     0.181 C 
ENDBRANCH  12  17
BRANCH  15  19
ATOM     19  O   UNL d   1      13.818  11.779  -0.428  0.00  0.00    -0.328 OA
ATOM     20  C   UNL d   1      13.027  11.884  -0.214  0.00  0.00     0.181 C 
ENDBRANCH  15  19
ENDBRANCH   8  11
BRANCH   5  21
ATOM     21  C   UNL d   1      14.634  16.379  -1.958  0.00  0.00     0.316 C 
ATOM     22  O   UNL d   1      15.236  16.781  -2.353  0.00  0.00    -0.262 OA
ATOM     23  N   UNL d   1      14.177  16.769  -1.384  0.00  0.00    -0.101 N 
ENDBRANCH   5  21
BRANCH   3  24
ATOM     24  C   UNL d   1      13.469  13.842  -4.171  0.00  0.00     0.070 A 
ATOM     25  C   UNL d   1      13.696  13.726  -4.942  0.00  0.00     0.020 A 
ATOM     26  C   UNL d   1      13.464  13.032  -5.333  0.00  0.00     0.031 A 
ATOM     27  C   UNL d   1      13.005  12.471  -4.929  0.00  0.00     0.140 A 
ATOM     28  C   UNL d   1      12.779  12.593  -4.151  0.00  0.00     0.031 A 
ATOM     29  F   UNL d   1      12.776  11.780  -5.324  0.00  0.00    -0.204 F 
ATOM     30  C   UNL d   1      13.013  13.283  -3.770  0.00  0.00     0.020 A 
ENDBRANCH   3  24
TORSDOF 5
ENDMDL
