MODEL 1
REMARK VINA RESULT:      11.7      0.000      0.000
REMARK  5 active torsions:
REMARK  status: ('A' for Active; 'I' for Inactive)
REMARK    1  A    between atoms: C_4  and  S_1 
REMARK    2  A    between atoms: N_5  and  S_1 
REMARK    3  A    between atoms: C_2  and  C_9 
REMARK       I    between atoms: N_3  and  C_2 
REMARK    4  A    between atoms: C_14  and  N_5 
REMARK    5  A    between atoms: C_15  and  C_14 
ROOT
ATOM      1  C   UNL d   1      45.663 -14.089  44.362  0.00  0.00     0.057 A 
ATOM      2  C   UNL d   1      46.314 -14.443  43.991  0.00  0.00     0.005 A 
ATOM      3  C   UNL d   1      45.141 -14.551  44.800  0.00  0.00     0.005 A 
ATOM      4  C   UNL d   1      45.909 -15.711  44.501  0.00  0.00     0.020 A 
ATOM      5  C   UNL d   1      46.439 -15.248  44.058  0.00  0.00     0.002 A 
ATOM      6  C   UNL d   1      45.265 -15.364  44.869  0.00  0.00     0.002 A 
ENDROOT
BRANCH   4   7
ATOM      7  C   UNL d   1      46.035 -16.530  44.569  0.00  0.00     0.112 C 
BRANCH   7   8
ATOM      8  N   UNL d   1      46.278 -16.966  43.909  0.00  0.00    -0.157 NA
BRANCH   8   9
ATOM      9  S   UNL d   1      46.294 -17.797  43.945  0.00  0.00     0.285 S 
ATOM     10  O   UNL d   1      46.238 -17.761  44.773  0.00  0.00    -0.198 OA
ATOM     11  O   UNL d   1      46.350 -17.832  43.116  0.00  0.00    -0.198 OA
BRANCH   9  12
ATOM     12  C   UNL d   1      46.310 -18.627  43.982  0.00  0.00     0.106 A 
ATOM     13  C   UNL d   1      46.375 -19.063  43.291  0.00  0.00     0.024 A 
ATOM     14  C   UNL d   1      46.391 -19.890  43.315  0.00  0.00     0.059 A 
ATOM     15 CL   UNL d   1      46.456 -20.330  42.623  0.00  0.00    -0.082 Cl
ATOM     16  C   UNL d   1      46.342 -20.270  44.043  0.00  0.00     0.011 A 
ATOM     17  C   UNL d   1      46.277 -19.830  44.727  0.00  0.00     0.002 A 
ATOM     18  C   UNL d   1      46.261 -19.008  44.701  0.00  0.00     0.013 A 
ENDBRANCH   9  12
ENDBRANCH   8   9
ENDBRANCH   7   8
ENDBRANCH   4   7
BRANCH   1  19
ATOM     19  C   UNL d   1      45.534 -13.269  44.296  0.00  0.00     0.265 C 
ATOM     20  N   UNL d   1      45.278 -12.946  43.575  0.00  0.00    -0.272 N 
ATOM     21  C   UNL d   1      45.132 -13.366  42.884  0.00  0.00     0.083 A 
ATOM     22  C   UNL d   1      45.127 -12.147  43.428  0.00  0.00     0.083 A 
ATOM     23  C   UNL d   1      44.890 -12.829  42.306  0.00  0.00     0.021 A 
ATOM     24  C   UNL d   1      44.887 -12.082  42.638  0.00  0.00     0.021 A 
ATOM     25  O   UNL d   1      45.659 -12.770  44.954  0.00  0.00    -0.267 OA
ENDBRANCH   1  19
TORSDOF 5
ENDMDL
