MODEL 1
REMARK VINA RESULT:      43.4      0.000      0.000
REMARK  3 active torsions:
REMARK  status: ('A' for Active; 'I' for Inactive)
REMARK    1  A    between atoms: C_2  and  C_1 
REMARK       I    between atoms: N_5  and  C_2 
REMARK    2  A    between atoms: C_10  and  N_5 
REMARK    3  A    between atoms: O_16  and  C_11 
ROOT
ATOM      1  C   UNL d   1      14.512  14.076  -2.118  0.00  0.00     0.281 C 
ATOM      2  N   UNL d   1      14.358  14.876  -2.226  0.00  0.00    -0.208 NA
ATOM      3  O   UNL d   1      15.027  13.831  -1.522  0.00  0.00    -0.265 OA
ENDROOT
BRANCH   1   4
ATOM      4  C   UNL d   1      14.155  13.509  -2.601  0.00  0.00     0.083 A 
ATOM      5  C   UNL d   1      13.836  13.724  -3.335  0.00  0.00     0.009 A 
ATOM      6  C   UNL d   1      13.478  13.145  -3.815  0.00  0.00     0.023 A 
ATOM      7  C   UNL d   1      13.160  13.357  -4.544  0.00  0.00     0.002 A 
ATOM      8  C   UNL d   1      13.441  12.350  -3.556  0.00  0.00     0.100 A 
ATOM      9  C   UNL d   1      12.806  12.777  -5.016  0.00  0.00     0.000 A 
ATOM     10  C   UNL d   1      12.770  11.993  -4.760  0.00  0.00     0.002 A 
ATOM     11  C   UNL d   1      13.088  11.782  -4.031  0.00  0.00     0.025 A 
ATOM     12  O   UNL d   1      13.759  12.139  -2.827  0.00  0.00    -0.305 OA
ATOM     13  C   UNL d   1      14.118  12.714  -2.342  0.00  0.00     0.127 A 
ENDBRANCH   1   4
BRANCH   2  14
ATOM     14  C   UNL d   1      14.719  15.437  -1.738  0.00  0.00     0.085 A 
ATOM     15  C   UNL d   1      14.851  16.202  -2.019  0.00  0.00     0.021 A 
ATOM     16  C   UNL d   1      15.211  16.758  -1.531  0.00  0.00     0.026 A 
ATOM     17  C   UNL d   1      15.436  16.553  -0.774  0.00  0.00     0.094 A 
ATOM     18  C   UNL d   1      15.305  15.788  -0.488  0.00  0.00     0.026 A 
ATOM     19  C   UNL d   1      14.943  15.234  -0.984  0.00  0.00     0.021 A 
BRANCH  17  20
ATOM     20  O   UNL d   1      15.798  17.107  -0.278  0.00  0.00    -0.328 OA
ATOM     21  C   UNL d   1      15.781  17.902  -0.461  0.00  0.00     0.181 C 
ENDBRANCH  17  20
ENDBRANCH   2  14
TORSDOF 3
ENDMDL
