MODEL 1
REMARK VINA RESULT:      11.6      0.000      0.000
REMARK  7 active torsions:
REMARK  status: ('A' for Active; 'I' for Inactive)
REMARK    1  A    between atoms: C_2  and  S_1 
REMARK    2  A    between atoms: N_4  and  S_1 
REMARK    3  A    between atoms: C_13  and  N_4 
REMARK    4  A    between atoms: C_14  and  N_4 
REMARK    5  A    between atoms: O_12  and  C_7 
REMARK    6  A    between atoms: C_16  and  C_13 
REMARK    7  A    between atoms: C_17  and  C_14 
ROOT
ATOM      1  S   UNL d   1      13.463  12.228  -3.204  0.00  0.00     0.271 S 
ATOM      2  O   UNL d   1      14.156  12.652  -3.351  0.00  0.00    -0.200 OA
ATOM      3  O   UNL d   1      12.770  11.805  -3.058  0.00  0.00    -0.200 OA
ENDROOT
BRANCH   1   4
ATOM      4  C   UNL d   1      13.694  12.118  -2.429  0.00  0.00     0.106 A 
ATOM      5  C   UNL d   1      14.480  12.233  -2.212  0.00  0.00     0.038 A 
ATOM      6  C   UNL d   1      14.713  12.122  -1.429  0.00  0.00     0.105 A 
ATOM      7  C   UNL d   1      14.161  11.897  -0.866  0.00  0.00     0.080 A 
ATOM      8  C   UNL d   1      13.375  11.781  -1.079  0.00  0.00     0.014 A 
ATOM      9 CL   UNL d   1      14.394  11.785  -0.082  0.00  0.00    -0.080 Cl
ATOM     10  C   UNL d   1      13.142  11.892  -1.861  0.00  0.00     0.014 A 
BRANCH   6  11
ATOM     11  O   UNL d   1      15.499  12.238  -1.216  0.00  0.00    -0.327 OA
ATOM     12  C   UNL d   1      15.705  12.880  -0.742  0.00  0.00     0.181 C 
ENDBRANCH   6  11
ENDBRANCH   1   4
BRANCH   1  13
ATOM     13  N   UNL d   1      13.229  12.339  -3.988  0.00  0.00    -0.229 N 
BRANCH  13  14
ATOM     14  C   UNL d   1      13.433  11.785  -4.561  0.00  0.00     0.092 C 
BRANCH  14  15
ATOM     15  C   UNL d   1      13.048  11.784  -5.290  0.00  0.00     0.020 C 
ATOM     16  C   UNL d   1      13.478  11.883  -5.985  0.00  0.00     0.002 C 
ENDBRANCH  14  15
ENDBRANCH  13  14
BRANCH  13  17
ATOM     17  C   UNL d   1      12.792  13.004  -4.197  0.00  0.00     0.092 C 
BRANCH  17  18
ATOM     18  C   UNL d   1      13.125  13.580  -4.686  0.00  0.00     0.020 C 
ATOM     19  C   UNL d   1      12.780  14.331  -4.733  0.00  0.00     0.002 C 
ENDBRANCH  17  18
ENDBRANCH  13  17
ENDBRANCH   1  13
TORSDOF 7
ENDMDL
