MODEL 1
REMARK VINA RESULT:      -3.0      0.000      0.000
REMARK  2 active torsions:
REMARK  status: ('A' for Active; 'I' for Inactive)
REMARK    1  A    between atoms: N_8  and  C_7 
REMARK    2  A    between atoms: C_9  and  N_8 
ROOT
ATOM      1  N   UNL d   1      30.500  16.766 -24.722  0.00  0.00    -0.245 NA
ENDROOT
BRANCH   1   2
ATOM      2  C   UNL d   1      29.778  16.712 -24.339  0.00  0.00     0.093 A 
ATOM      3  C   UNL d   1      29.185  17.281 -24.337  0.00  0.00     0.118 A 
ATOM      4  S   UNL d   1      28.560  16.985 -23.879  0.00  0.00     0.213 S 
ATOM      5  C   UNL d   1      28.767  16.240 -23.603  0.00  0.00     0.100 A 
ATOM      6  O   UNL d   1      27.978  16.635 -23.415  0.00  0.00    -0.217 OA
ATOM      7  O   UNL d   1      28.437  17.730 -24.197  0.00  0.00    -0.217 OA
ATOM      8  C   UNL d   1      29.522  16.071 -23.888  0.00  0.00     0.032 A 
ENDBRANCH   1   2
BRANCH   1   9
ATOM      9  C   UNL d   1      31.188  16.879 -24.277  0.00  0.00     0.082 A 
ATOM     10  C   UNL d   1      31.480  17.641 -24.154  0.00  0.00     0.030 A 
ATOM     11  C   UNL d   1      32.157  17.754 -23.717  0.00  0.00     0.059 A 
ATOM     12 CL   UNL d   1      32.517  18.467 -23.544  0.00  0.00    -0.082 Cl
ATOM     13  C   UNL d   1      32.555  17.105 -23.396  0.00  0.00     0.011 A 
ATOM     14  C   UNL d   1      32.264  16.343 -23.519  0.00  0.00     0.002 A 
ATOM     15  C   UNL d   1      31.575  16.229 -23.963  0.00  0.00     0.019 A 
ENDBRANCH   1   9
TORSDOF 2
ENDMDL
MODEL 2
REMARK VINA RESULT:      -2.3      3.010      3.975
REMARK  2 active torsions:
REMARK  status: ('A' for Active; 'I' for Inactive)
REMARK    1  A    between atoms: N_8  and  C_7 
REMARK    2  A    between atoms: C_9  and  N_8 
ROOT
ATOM      1  N   UNL d   1      33.054  17.897 -23.533  0.00  0.00    -0.245 NA
ENDROOT
BRANCH   1   2
ATOM      2  C   UNL d   1      33.107  18.646 -23.210  0.00  0.00     0.093 A 
ATOM      3  C   UNL d   1      33.165  18.829 -22.411  0.00  0.00     0.118 A 
ATOM      4  S   UNL d   1      33.205  19.654 -22.347  0.00  0.00     0.213 S 
ATOM      5  C   UNL d   1      33.171  19.977 -23.101  0.00  0.00     0.100 A 
ATOM      6  O   UNL d   1      33.240  20.477 -22.352  0.00  0.00    -0.217 OA
ATOM      7  O   UNL d   1      33.231  19.248 -21.635  0.00  0.00    -0.217 OA
ATOM      8  C   UNL d   1      33.111  19.353 -23.636  0.00  0.00     0.032 A 
ENDBRANCH   1   2
BRANCH   1   9
ATOM      9  C   UNL d   1      32.370  17.677 -23.943  0.00  0.00     0.082 A 
ATOM     10  C   UNL d   1      31.840  17.142 -23.606  0.00  0.00     0.030 A 
ATOM     11  C   UNL d   1      31.166  16.925 -24.008  0.00  0.00     0.059 A 
ATOM     12 CL   UNL d   1      30.589  16.405 -23.753  0.00  0.00    -0.082 Cl
ATOM     13  C   UNL d   1      31.012  17.240 -24.755  0.00  0.00     0.011 A 
ATOM     14  C   UNL d   1      31.541  17.775 -25.093  0.00  0.00     0.002 A 
ATOM     15  C   UNL d   1      32.226  17.995 -24.683  0.00  0.00     0.019 A 
ENDBRANCH   1   9
TORSDOF 2
ENDMDL
