MODEL 1
REMARK VINA RESULT:      -6.1      0.000      0.000
REMARK  4 active torsions:
REMARK  status: ('A' for Active; 'I' for Inactive)
REMARK    1  A    between atoms: C_6  and  C_1 
REMARK    2  A    between atoms: C_8  and  C_5 
REMARK    3  A    between atoms: C_9  and  C_8 
REMARK    4  A    between atoms: C_13  and  C_9 
ROOT
ATOM      1  C   UNL d   1      58.563  -0.716  29.524  0.00  0.00     0.210 A 
ATOM      2  N   UNL d   1      58.233  -0.023  29.219  0.00  0.00    -0.120 NA
ATOM      3  O   UNL d   1      58.294  -0.832  30.266  0.00  0.00    -0.268 OA
ATOM      4  N   UNL d   1      57.746   0.280  29.815  0.00  0.00    -0.121 NA
ATOM      5  C   UNL d   1      57.756  -0.183  30.468  0.00  0.00     0.205 A 
ENDROOT
BRANCH   5   6
ATOM      6  C   UNL d   1      57.332  -0.035  31.156  0.00  0.00     0.046 C 
BRANCH   6   7
ATOM      7  C   UNL d   1      56.997  -0.655  31.567  0.00  0.00     0.004 C 
BRANCH   7   8
ATOM      8  C   UNL d   1      56.471  -0.511  32.189  0.00  0.00     0.000 A 
ATOM      9  C   UNL d   1      56.281   0.279  32.411  0.00  0.00     0.002 A 
ATOM     10  C   UNL d   1      55.753   0.422  33.035  0.00  0.00     0.030 A 
ATOM     11  C   UNL d   1      55.418  -0.214  33.433  0.00  0.00     0.140 A 
ATOM     12  C   UNL d   1      55.605  -1.006  33.215  0.00  0.00     0.030 A 
ATOM     13  F   UNL d   1      54.888  -0.072  34.059  0.00  0.00    -0.204 F 
ATOM     14  C   UNL d   1      56.127  -1.132  32.597  0.00  0.00     0.002 A 
ENDBRANCH   7   8
ENDBRANCH   6   7
ENDBRANCH   5   6
BRANCH   1  15
ATOM     15  C   UNL d   1      59.092  -1.218  29.128  0.00  0.00     0.072 A 
ATOM     16  S   UNL d   1      59.841  -1.022  28.836  0.00  0.00    -0.083 SA
ATOM     17  C   UNL d   1      60.166  -1.695  28.485  0.00  0.00     0.035 A 
ATOM     18  C   UNL d   1      59.620  -2.308  28.558  0.00  0.00     0.008 A 
ATOM     19  C   UNL d   1      58.953  -2.010  28.958  0.00  0.00     0.011 A 
ENDBRANCH   1  15
TORSDOF 4
ENDMDL
MODEL 2
REMARK VINA RESULT:      -5.1      2.865      5.066
REMARK  4 active torsions:
REMARK  status: ('A' for Active; 'I' for Inactive)
REMARK    1  A    between atoms: C_6  and  C_1 
REMARK    2  A    between atoms: C_8  and  C_5 
REMARK    3  A    between atoms: C_9  and  C_8 
REMARK    4  A    between atoms: C_13  and  C_9 
ROOT
ATOM      1  C   UNL d   1      56.001  -0.313  32.862  0.00  0.00     0.210 A 
ATOM      2  N   UNL d   1      56.095  -1.132  32.794  0.00  0.00    -0.120 NA
ATOM      3  O   UNL d   1      56.393   0.048  32.268  0.00  0.00    -0.268 OA
ATOM      4  N   UNL d   1      56.566  -1.252  32.125  0.00  0.00    -0.121 NA
ATOM      5  C   UNL d   1      56.768  -0.559  31.777  0.00  0.00     0.205 A 
ENDROOT
BRANCH   5   6
ATOM      6  C   UNL d   1      57.232  -0.489  31.103  0.00  0.00     0.046 C 
BRANCH   6   7
ATOM      7  C   UNL d   1      57.755   0.134  31.033  0.00  0.00     0.004 C 
BRANCH   7   8
ATOM      8  C   UNL d   1      58.274   0.176  30.390  0.00  0.00     0.000 A 
ATOM      9  C   UNL d   1      59.092   0.337  30.514  0.00  0.00     0.002 A 
ATOM     10  C   UNL d   1      59.611   0.379  29.868  0.00  0.00     0.030 A 
ATOM     11  C   UNL d   1      59.320   0.263  29.108  0.00  0.00     0.140 A 
ATOM     12  C   UNL d   1      58.502   0.102  28.980  0.00  0.00     0.030 A 
ATOM     13  F   UNL d   1      59.839   0.305  28.459  0.00  0.00    -0.204 F 
ATOM     14  C   UNL d   1      58.002   0.063  29.626  0.00  0.00     0.002 A 
ENDBRANCH   7   8
ENDBRANCH   6   7
ENDBRANCH   5   6
BRANCH   1  15
ATOM     15  C   UNL d   1      55.569   0.079  33.452  0.00  0.00     0.072 A 
ATOM     16  S   UNL d   1      55.841   0.310  34.198  0.00  0.00    -0.083 SA
ATOM     17  C   UNL d   1      55.220   0.681  34.597  0.00  0.00     0.035 A 
ATOM     18  C   UNL d   1      54.563   0.680  34.099  0.00  0.00     0.008 A 
ATOM     19  C   UNL d   1      54.782   0.305  33.388  0.00  0.00     0.011 A 
ENDBRANCH   1  15
TORSDOF 4
ENDMDL
MODEL 3
REMARK VINA RESULT:      -4.7      2.444      4.831
REMARK  4 active torsions:
REMARK  status: ('A' for Active; 'I' for Inactive)
REMARK    1  A    between atoms: C_6  and  C_1 
REMARK    2  A    between atoms: C_8  and  C_5 
REMARK    3  A    between atoms: C_9  and  C_8 
REMARK    4  A    between atoms: C_13  and  C_9 
ROOT
ATOM      1  C   UNL d   1      56.858   0.011  31.610  0.00  0.00     0.210 A 
ATOM      2  N   UNL d   1      56.805   0.617  31.050  0.00  0.00    -0.120 NA
ATOM      3  O   UNL d   1      57.456  -0.478  31.414  0.00  0.00    -0.268 OA
ATOM      4  N   UNL d   1      57.405   0.471  30.500  0.00  0.00    -0.121 NA
ATOM      5  C   UNL d   1      57.823  -0.185  30.686  0.00  0.00     0.205 A 
ENDROOT
BRANCH   5   6
ATOM      6  C   UNL d   1      58.455  -0.480  30.251  0.00  0.00     0.046 C 
BRANCH   6   7
ATOM      7  C   UNL d   1      58.314  -0.914  29.574  0.00  0.00     0.004 C 
BRANCH   7   8
ATOM      8  C   UNL d   1      58.878  -1.451  29.296  0.00  0.00     0.000 A 
ATOM      9  C   UNL d   1      59.640  -1.183  29.056  0.00  0.00     0.002 A 
ATOM     10  C   UNL d   1      60.205  -1.723  28.776  0.00  0.00     0.030 A 
ATOM     11  C   UNL d   1      60.013  -2.522  28.737  0.00  0.00     0.140 A 
ATOM     12  C   UNL d   1      59.253  -2.795  28.976  0.00  0.00     0.030 A 
ATOM     13  F   UNL d   1      60.579  -3.065  28.457  0.00  0.00    -0.204 F 
ATOM     14  C   UNL d   1      58.706  -2.251  29.249  0.00  0.00     0.002 A 
ENDBRANCH   7   8
ENDBRANCH   6   7
ENDBRANCH   5   6
BRANCH   1  15
ATOM     15  C   UNL d   1      56.368  -0.080  32.275  0.00  0.00     0.072 A 
ATOM     16  S   UNL d   1      55.987   0.520  32.699  0.00  0.00    -0.083 SA
ATOM     17  C   UNL d   1      55.562   0.170  33.314  0.00  0.00     0.035 A 
ATOM     18  C   UNL d   1      55.678  -0.645  33.273  0.00  0.00     0.008 A 
ATOM     19  C   UNL d   1      56.181  -0.798  32.626  0.00  0.00     0.011 A 
ENDBRANCH   1  15
TORSDOF 4
ENDMDL
