MODEL 1
REMARK VINA RESULT:      -6.9      0.000      0.000
REMARK  5 active torsions:
REMARK  status: ('A' for Active; 'I' for Inactive)
REMARK    1  A    between atoms: C_2  and  S_1 
REMARK    2  A    between atoms: N_4  and  S_1 
REMARK    3  A    between atoms: C_10  and  N_4 
REMARK    4  A    between atoms: C_14  and  C_5 
REMARK    5  A    between atoms: C_13  and  C_10 
ROOT
ATOM      1  S   UNL d   1     -48.566  12.539  22.983  0.00  0.00     0.285 S 
ATOM      2  O   UNL d   1     -48.507  12.927  23.698  0.00  0.00    -0.198 OA
ATOM      3  O   UNL d   1     -48.626  12.145  22.257  0.00  0.00    -0.198 OA
ENDROOT
BRANCH   1   4
ATOM      4  C   UNL d   1     -49.382  12.662  22.984  0.00  0.00     0.105 A 
ATOM      5  C   UNL d   1     -49.699  13.334  22.627  0.00  0.00     0.013 A 
ATOM      6  C   UNL d   1     -50.514  13.457  22.628  0.00  0.00     0.001 A 
ATOM      7  C   UNL d   1     -51.014  12.907  22.986  0.00  0.00     0.000 A 
ATOM      8  C   UNL d   1     -50.695  12.242  23.339  0.00  0.00     0.001 A 
ATOM      9  C   UNL d   1     -49.881  12.120  23.338  0.00  0.00     0.012 A 
ATOM     10  C   UNL d   1     -49.563  11.447  23.695  0.00  0.00     0.001 C 
BRANCH   6  11
ATOM     11  C   UNL d   1     -50.830  14.133  22.268  0.00  0.00     0.000 C 
ATOM     12  C   UNL d   1     -51.064  14.107  21.478  0.00  0.00     0.000 C 
ATOM     13  C   UNL d   1     -50.912  14.832  22.700  0.00  0.00     0.000 C 
ENDBRANCH   6  11
ENDBRANCH   1   4
BRANCH   1  14
ATOM     14  N   UNL d   1     -47.750  12.417  22.983  0.00  0.00    -0.155 NA
BRANCH  14  15
ATOM     15  C   UNL d   1     -47.237  13.062  22.987  0.00  0.00     0.131 C 
BRANCH  15  16
ATOM     16  C   UNL d   1     -46.446  12.961  22.775  0.00  0.00     0.101 A 
ATOM     17  N   UNL d   1     -45.978  12.412  23.175  0.00  0.00    -0.242 NA
ATOM     18  C   UNL d   1     -45.187  12.311  22.963  0.00  0.00     0.099 A 
ATOM     19  C   UNL d   1     -44.864  12.758  22.350  0.00  0.00     0.021 A 
ATOM     20  C   UNL d   1     -45.332  13.310  21.946  0.00  0.00     0.003 A 
ATOM     21  C   UNL d   1     -46.123  13.411  22.158  0.00  0.00     0.021 A 
ENDBRANCH  15  16
ENDBRANCH  14  15
ENDBRANCH   1  14
TORSDOF 5
ENDMDL
MODEL 2
REMARK VINA RESULT:      -6.5      1.254      1.769
REMARK  5 active torsions:
REMARK  status: ('A' for Active; 'I' for Inactive)
REMARK    1  A    between atoms: C_2  and  S_1 
REMARK    2  A    between atoms: N_4  and  S_1 
REMARK    3  A    between atoms: C_10  and  N_4 
REMARK    4  A    between atoms: C_14  and  C_5 
REMARK    5  A    between atoms: C_13  and  C_10 
ROOT
ATOM      1  S   UNL d   1     -49.210  12.809  22.885  0.00  0.00     0.285 S 
ATOM      2  O   UNL d   1     -48.908  12.993  22.151  0.00  0.00    -0.198 OA
ATOM      3  O   UNL d   1     -49.517  12.621  23.632  0.00  0.00    -0.198 OA
ENDROOT
BRANCH   1   4
ATOM      4  C   UNL d   1     -49.820  13.353  22.771  0.00  0.00     0.105 A 
ATOM      5  C   UNL d   1     -49.791  14.089  23.141  0.00  0.00     0.013 A 
ATOM      6  C   UNL d   1     -50.400  14.632  23.027  0.00  0.00     0.001 A 
ATOM      7  C   UNL d   1     -51.039  14.440  22.542  0.00  0.00     0.000 A 
ATOM      8  C   UNL d   1     -51.064  13.710  22.177  0.00  0.00     0.001 A 
ATOM      9  C   UNL d   1     -50.455  13.167  22.291  0.00  0.00     0.012 A 
ATOM     10  C   UNL d   1     -50.483  12.430  21.921  0.00  0.00     0.001 C 
BRANCH   6  11
ATOM     11  C   UNL d   1     -50.369  15.372  23.401  0.00  0.00     0.000 C 
ATOM     12  C   UNL d   1     -51.063  15.719  23.682  0.00  0.00     0.000 C 
ATOM     13  C   UNL d   1     -49.646  15.761  23.491  0.00  0.00     0.000 C 
ENDBRANCH   6  11
ENDBRANCH   1   4
BRANCH   1  14
ATOM     14  N   UNL d   1     -48.600  12.265  23.000  0.00  0.00    -0.155 NA
BRANCH  14  15
ATOM     15  C   UNL d   1     -48.000  12.427  23.540  0.00  0.00     0.131 C 
BRANCH  15  16
ATOM     16  C   UNL d   1     -47.336  11.938  23.578  0.00  0.00     0.101 A 
ATOM     17  N   UNL d   1     -47.428  11.122  23.659  0.00  0.00    -0.242 NA
ATOM     18  C   UNL d   1     -46.765  10.633  23.697  0.00  0.00     0.099 A 
ATOM     19  C   UNL d   1     -46.009  10.960  23.655  0.00  0.00     0.021 A 
ATOM     20  C   UNL d   1     -45.913  11.779  23.574  0.00  0.00     0.003 A 
ATOM     21  C   UNL d   1     -46.577  12.268  23.536  0.00  0.00     0.021 A 
ENDBRANCH  15  16
ENDBRANCH  14  15
ENDBRANCH   1  14
TORSDOF 5
ENDMDL
MODEL 3
REMARK VINA RESULT:      -6.4      1.412      4.253
REMARK  5 active torsions:
REMARK  status: ('A' for Active; 'I' for Inactive)
REMARK    1  A    between atoms: C_2  and  S_1 
REMARK    2  A    between atoms: N_4  and  S_1 
REMARK    3  A    between atoms: C_10  and  N_4 
REMARK    4  A    between atoms: C_14  and  C_5 
REMARK    5  A    between atoms: C_13  and  C_10 
ROOT
ATOM      1  S   UNL d   1     -48.042  13.134  22.958  0.00  0.00     0.285 S 
ATOM      2  O   UNL d   1     -47.868  13.514  23.658  0.00  0.00    -0.198 OA
ATOM      3  O   UNL d   1     -48.219  12.747  22.247  0.00  0.00    -0.198 OA
ENDROOT
BRANCH   1   4
ATOM      4  C   UNL d   1     -47.291  12.792  22.957  0.00  0.00     0.105 A 
ATOM      5  C   UNL d   1     -46.663  13.175  22.584  0.00  0.00     0.013 A 
ATOM      6  C   UNL d   1     -45.914  12.833  22.582  0.00  0.00     0.001 A 
ATOM      7  C   UNL d   1     -45.790  12.108  22.955  0.00  0.00     0.000 A 
ATOM      8  C   UNL d   1     -46.415  11.731  23.323  0.00  0.00     0.001 A 
ATOM      9  C   UNL d   1     -47.164  12.073  23.324  0.00  0.00     0.012 A 
ATOM     10  C   UNL d   1     -47.792  11.690  23.698  0.00  0.00     0.001 C 
BRANCH   6  11
ATOM     11  C   UNL d   1     -45.284  13.220  22.206  0.00  0.00     0.000 C 
ATOM     12  C   UNL d   1     -44.769  12.794  21.723  0.00  0.00     0.000 C 
ATOM     13  C   UNL d   1     -45.172  14.031  22.315  0.00  0.00     0.000 C 
ENDBRANCH   6  11
ENDBRANCH   1   4
BRANCH   1  14
ATOM     14  N   UNL d   1     -48.793  13.476  22.959  0.00  0.00    -0.155 NA
BRANCH  14  15
ATOM     15  C   UNL d   1     -48.904  14.227  22.639  0.00  0.00     0.131 C 
BRANCH  15  16
ATOM     16  C   UNL d   1     -49.624  14.617  22.740  0.00  0.00     0.101 A 
ATOM     17  N   UNL d   1     -50.281  14.392  22.296  0.00  0.00    -0.242 NA
ATOM     18  C   UNL d   1     -51.002  14.781  22.398  0.00  0.00     0.099 A 
ATOM     19  C   UNL d   1     -51.064  15.396  22.944  0.00  0.00     0.021 A 
ATOM     20  C   UNL d   1     -50.405  15.624  23.392  0.00  0.00     0.003 A 
ATOM     21  C   UNL d   1     -49.685  15.234  23.290  0.00  0.00     0.021 A 
ENDBRANCH  15  16
ENDBRANCH  14  15
ENDBRANCH   1  14
TORSDOF 5
ENDMDL
MODEL 4
REMARK VINA RESULT:      -5.5      9.035     10.424
REMARK  5 active torsions:
REMARK  status: ('A' for Active; 'I' for Inactive)
REMARK    1  A    between atoms: C_2  and  S_1 
REMARK    2  A    between atoms: N_4  and  S_1 
REMARK    3  A    between atoms: C_10  and  N_4 
REMARK    4  A    between atoms: C_14  and  C_5 
REMARK    5  A    between atoms: C_13  and  C_10 
ROOT
ATOM      1  S   UNL d   1     -39.753  14.982  18.764  0.00  0.00     0.285 S 
ATOM      2  O   UNL d   1     -39.243  15.617  18.793  0.00  0.00    -0.198 OA
ATOM      3  O   UNL d   1     -40.272  14.336  18.734  0.00  0.00    -0.198 OA
ENDROOT
BRANCH   1   4
ATOM      4  C   UNL d   1     -40.019  15.161  19.524  0.00  0.00     0.105 A 
ATOM      5  C   UNL d   1     -39.617  14.867  20.182  0.00  0.00     0.013 A 
ATOM      6  C   UNL d   1     -39.882  15.045  20.941  0.00  0.00     0.001 A 
ATOM      7  C   UNL d   1     -40.551  15.518  21.044  0.00  0.00     0.000 A 
ATOM      8  C   UNL d   1     -40.946  15.807  20.390  0.00  0.00     0.001 A 
ATOM      9  C   UNL d   1     -40.680  15.628  19.631  0.00  0.00     0.012 A 
ATOM     10  C   UNL d   1     -41.082  15.922  18.973  0.00  0.00     0.001 C 
BRANCH   6  11
ATOM     11  C   UNL d   1     -39.477  14.749  21.601  0.00  0.00     0.000 C 
ATOM     12  C   UNL d   1     -39.567  13.958  21.817  0.00  0.00     0.000 C 
ATOM     13  C   UNL d   1     -38.984  15.244  22.040  0.00  0.00     0.000 C 
ENDBRANCH   6  11
ENDBRANCH   1   4
BRANCH   1  14
ATOM     14  N   UNL d   1     -39.487  14.803  18.003  0.00  0.00    -0.155 NA
BRANCH  14  15
ATOM     15  C   UNL d   1     -38.727  14.504  17.892  0.00  0.00     0.131 C 
BRANCH  15  16
ATOM     16  C   UNL d   1     -38.483  14.266  17.141  0.00  0.00     0.101 A 
ATOM     17  N   UNL d   1     -38.526  14.792  16.507  0.00  0.00    -0.242 NA
ATOM     18  C   UNL d   1     -38.282  14.554  15.756  0.00  0.00     0.099 A 
ATOM     19  C   UNL d   1     -37.995  13.789  15.639  0.00  0.00     0.021 A 
ATOM     20  C   UNL d   1     -37.952  13.259  16.274  0.00  0.00     0.003 A 
ATOM     21  C   UNL d   1     -38.195  13.497  17.025  0.00  0.00     0.021 A 
ENDBRANCH  15  16
ENDBRANCH  14  15
ENDBRANCH   1  14
TORSDOF 5
ENDMDL
MODEL 5
REMARK VINA RESULT:      -5.4      9.341     10.669
REMARK  5 active torsions:
REMARK  status: ('A' for Active; 'I' for Inactive)
REMARK    1  A    between atoms: C_2  and  S_1 
REMARK    2  A    between atoms: N_4  and  S_1 
REMARK    3  A    between atoms: C_10  and  N_4 
REMARK    4  A    between atoms: C_14  and  C_5 
REMARK    5  A    between atoms: C_13  and  C_10 
ROOT
ATOM      1  S   UNL d   1     -39.576  14.385  18.852  0.00  0.00     0.285 S 
ATOM      2  O   UNL d   1     -39.256  15.120  19.001  0.00  0.00    -0.198 OA
ATOM      3  O   UNL d   1     -39.902  13.638  18.701  0.00  0.00    -0.198 OA
ENDROOT
BRANCH   1   4
ATOM      4  C   UNL d   1     -39.645  14.577  18.053  0.00  0.00     0.105 A 
ATOM      5  C   UNL d   1     -39.009  14.454  17.542  0.00  0.00     0.013 A 
ATOM      6  C   UNL d   1     -39.078  14.646  16.744  0.00  0.00     0.001 A 
ATOM      7  C   UNL d   1     -39.783  14.961  16.454  0.00  0.00     0.000 A 
ATOM      8  C   UNL d   1     -40.411  15.081  16.963  0.00  0.00     0.001 A 
ATOM      9  C   UNL d   1     -40.342  14.889  17.762  0.00  0.00     0.012 A 
ATOM     10  C   UNL d   1     -40.978  15.012  18.273  0.00  0.00     0.001 C 
BRANCH   6  11
ATOM     11  C   UNL d   1     -38.438  14.522  16.232  0.00  0.00     0.000 C 
ATOM     12  C   UNL d   1     -38.008  15.166  15.948  0.00  0.00     0.000 C 
ATOM     13  C   UNL d   1     -38.229  13.755  16.007  0.00  0.00     0.000 C 
ENDBRANCH   6  11
ENDBRANCH   1   4
BRANCH   1  14
ATOM     14  N   UNL d   1     -39.507  14.193  19.652  0.00  0.00    -0.155 NA
BRANCH  14  15
ATOM     15  C   UNL d   1     -38.764  14.185  20.010  0.00  0.00     0.131 C 
BRANCH  15  16
ATOM     16  C   UNL d   1     -38.680  13.888  20.776  0.00  0.00     0.101 A 
ATOM     17  N   UNL d   1     -39.220  14.099  21.362  0.00  0.00    -0.242 NA
ATOM     18  C   UNL d   1     -39.135  13.803  22.128  0.00  0.00     0.099 A 
ATOM     19  C   UNL d   1     -38.511  13.294  22.306  0.00  0.00     0.021 A 
ATOM     20  C   UNL d   1     -37.967  13.080  21.718  0.00  0.00     0.003 A 
ATOM     21  C   UNL d   1     -38.052  13.377  20.953  0.00  0.00     0.021 A 
ENDBRANCH  15  16
ENDBRANCH  14  15
ENDBRANCH   1  14
TORSDOF 5
ENDMDL
