MODEL 1
REMARK VINA RESULT:      -7.2      0.000      0.000
REMARK  5 active torsions:
REMARK  status: ('A' for Active; 'I' for Inactive)
REMARK    1  A    between atoms: C_2  and  C_1 
REMARK    2  A    between atoms: C_3  and  C_1 
REMARK    3  A    between atoms: C_4  and  C_2 
REMARK    4  A    between atoms: C_6  and  C_3 
REMARK    5  A    between atoms: P_5  and  C_4 
ROOT
ATOM      1  C   UNL d   1     -48.114  13.077  22.157  0.00  0.00     0.389 C 
ATOM      2  F   UNL d   1     -47.790  12.982  21.410  0.00  0.00    -0.191 F 
ATOM      3  F   UNL d   1     -48.444  13.174  22.925  0.00  0.00    -0.191 F 
ENDROOT
BRANCH   1   4
ATOM      4  C   UNL d   1     -47.374  13.377  22.443  0.00  0.00     0.387 C 
ATOM      5  F   UNL d   1     -47.742  13.586  23.152  0.00  0.00    -0.190 F 
ATOM      6  F   UNL d   1     -47.004  13.161  21.715  0.00  0.00    -0.190 F 
BRANCH   4   7
ATOM      7  C   UNL d   1     -46.661  13.670  22.728  0.00  0.00     0.329 C 
ATOM      8  O   UNL d   1     -46.540  14.485  22.810  0.00  0.00    -0.275 OA
BRANCH   7   9
ATOM      9  P   UNL d   1     -46.040  13.146  22.941  0.00  0.00     0.339 P 
ATOM     10  O   UNL d   1     -46.356  13.063  23.693  0.00  0.00    -0.634 OA
ATOM     11  O   UNL d   1     -45.717  13.226  22.180  0.00  0.00    -0.634 OA
ATOM     12  O   UNL d   1     -45.430  12.638  23.131  0.00  0.00    -0.634 OA
ENDBRANCH   7   9
ENDBRANCH   4   7
ENDBRANCH   1   4
BRANCH   1  13
ATOM     13  C   UNL d   1     -48.835  12.787  21.890  0.00  0.00     0.393 C 
ATOM     14  F   UNL d   1     -49.031  13.537  21.606  0.00  0.00    -0.188 F 
ATOM     15  F   UNL d   1     -48.643  12.020  22.176  0.00  0.00    -0.188 F 
BRANCH  13  16
ATOM     16  C   UNL d   1     -49.560  12.500  21.619  0.00  0.00     0.322 C 
ATOM     17  F   UNL d   1     -49.821  11.754  21.860  0.00  0.00    -0.171 F 
ATOM     18  F   UNL d   1     -50.027  12.954  21.110  0.00  0.00    -0.171 F 
ENDBRANCH  13  16
ENDBRANCH   1  13
TORSDOF 5
ENDMDL
MODEL 2
REMARK VINA RESULT:      -7.1      2.113      3.118
REMARK  5 active torsions:
REMARK  status: ('A' for Active; 'I' for Inactive)
REMARK    1  A    between atoms: C_2  and  C_1 
REMARK    2  A    between atoms: C_3  and  C_1 
REMARK    3  A    between atoms: C_4  and  C_2 
REMARK    4  A    between atoms: C_6  and  C_3 
REMARK    5  A    between atoms: P_5  and  C_4 
ROOT
ATOM      1  C   UNL d   1     -47.519  12.961  22.684  0.00  0.00     0.389 C 
ATOM      2  F   UNL d   1     -47.643  13.077  21.881  0.00  0.00    -0.191 F 
ATOM      3  F   UNL d   1     -47.394  12.840  23.507  0.00  0.00    -0.191 F 
ENDROOT
BRANCH   1   4
ATOM      4  C   UNL d   1     -48.138  12.382  22.699  0.00  0.00     0.387 C 
ATOM      5  F   UNL d   1     -47.948  12.211  23.484  0.00  0.00    -0.190 F 
ATOM      6  F   UNL d   1     -48.327  12.562  21.895  0.00  0.00    -0.190 F 
BRANCH   4   7
ATOM      7  C   UNL d   1     -48.736  11.819  22.722  0.00  0.00     0.329 C 
ATOM      8  O   UNL d   1     -48.564  11.013  22.642  0.00  0.00    -0.275 OA
BRANCH   7   9
ATOM      9  P   UNL d   1     -49.536  12.052  22.828  0.00  0.00     0.339 P 
ATOM     10  O   UNL d   1     -49.442  12.037  23.643  0.00  0.00    -0.634 OA
ATOM     11  O   UNL d   1     -49.637  12.070  22.004  0.00  0.00    -0.634 OA
ATOM     12  O   UNL d   1     -50.316  12.280  22.914  0.00  0.00    -0.634 OA
ENDBRANCH   7   9
ENDBRANCH   4   7
ENDBRANCH   1   4
BRANCH   1  13
ATOM     13  C   UNL d   1     -46.917  13.521  22.679  0.00  0.00     0.393 C 
ATOM     14  F   UNL d   1     -46.397  12.958  22.372  0.00  0.00    -0.188 F 
ATOM     15  F   UNL d   1     -47.441  14.099  22.992  0.00  0.00    -0.188 F 
BRANCH  13  16
ATOM     16  C   UNL d   1     -46.310  14.080  22.672  0.00  0.00     0.322 C 
ATOM     17  F   UNL d   1     -46.477  14.868  22.859  0.00  0.00    -0.171 F 
ATOM     18  F   UNL d   1     -45.538  13.858  22.481  0.00  0.00    -0.171 F 
ENDBRANCH  13  16
ENDBRANCH   1  13
TORSDOF 5
ENDMDL
MODEL 3
REMARK VINA RESULT:      -7.0      2.257      3.193
REMARK  5 active torsions:
REMARK  status: ('A' for Active; 'I' for Inactive)
REMARK    1  A    between atoms: C_2  and  C_1 
REMARK    2  A    between atoms: C_3  and  C_1 
REMARK    3  A    between atoms: C_4  and  C_2 
REMARK    4  A    between atoms: C_6  and  C_3 
REMARK    5  A    between atoms: P_5  and  C_4 
ROOT
ATOM      1  C   UNL d   1     -47.430  13.771  22.781  0.00  0.00     0.389 C 
ATOM      2  F   UNL d   1     -47.187  14.316  23.344  0.00  0.00    -0.191 F 
ATOM      3  F   UNL d   1     -47.682  13.213  22.204  0.00  0.00    -0.191 F 
ENDROOT
BRANCH   1   4
ATOM      4  C   UNL d   1     -48.237  14.004  22.902  0.00  0.00     0.387 C 
ATOM      5  F   UNL d   1     -48.468  13.217  22.806  0.00  0.00    -0.190 F 
ATOM      6  F   UNL d   1     -47.992  14.806  22.998  0.00  0.00    -0.190 F 
BRANCH   4   7
ATOM      7  C   UNL d   1     -49.021  14.220  23.017  0.00  0.00     0.329 C 
ATOM      8  O   UNL d   1     -49.523  13.760  23.488  0.00  0.00    -0.275 OA
BRANCH   7   9
ATOM      9  P   UNL d   1     -49.328  14.914  22.658  0.00  0.00     0.339 P 
ATOM     10  O   UNL d   1     -49.432  14.513  21.950  0.00  0.00    -0.634 OA
ATOM     11  O   UNL d   1     -49.224  15.325  23.372  0.00  0.00    -0.634 OA
ATOM     12  O   UNL d   1     -49.624  15.598  22.324  0.00  0.00    -0.634 OA
ENDBRANCH   7   9
ENDBRANCH   4   7
ENDBRANCH   1   4
BRANCH   1  13
ATOM     13  C   UNL d   1     -46.651  13.539  22.658  0.00  0.00     0.393 C 
ATOM     14  F   UNL d   1     -46.822  13.389  21.864  0.00  0.00    -0.188 F 
ATOM     15  F   UNL d   1     -46.469  13.691  23.465  0.00  0.00    -0.188 F 
BRANCH  13  16
ATOM     16  C   UNL d   1     -45.870  13.306  22.529  0.00  0.00     0.322 C 
ATOM     17  F   UNL d   1     -45.593  12.602  22.862  0.00  0.00    -0.171 F 
ATOM     18  F   UNL d   1     -45.363  13.770  22.071  0.00  0.00    -0.171 F 
ENDBRANCH  13  16
ENDBRANCH   1  13
TORSDOF 5
ENDMDL
