MODEL 1
REMARK VINA RESULT:      39.1      0.000      0.000
REMARK  2 active torsions:
REMARK  status: ('A' for Active; 'I' for Inactive)
REMARK    1  A    between atoms: C_8  and  N_1 
REMARK    2  A    between atoms: C_12  and  C_8 
ROOT
ATOM      1  N   UNL d   1      13.551  13.000  -2.500  0.00  0.00    -0.238 N 
ATOM      2  C   UNL d   1      13.320  12.551  -2.945  0.00  0.00     0.267 A 
ATOM      3  C   UNL d   1      13.767  13.738  -2.659  0.00  0.00     0.267 A 
ATOM      4  C   UNL d   1      13.753  14.104  -3.400  0.00  0.00     0.057 A 
ATOM      5  C   UNL d   1      13.178  12.560  -3.734  0.00  0.00     0.057 A 
ATOM      6  C   UNL d   1      13.510  13.769  -4.121  0.00  0.00     0.005 A 
ATOM      7  C   UNL d   1      13.250  13.046  -4.225  0.00  0.00     0.005 A 
ATOM      8  O   UNL d   1      13.132  11.779  -2.569  0.00  0.00    -0.267 OA
ATOM      9  O   UNL d   1      14.021  14.175  -2.061  0.00  0.00    -0.267 OA
ATOM     10  C   UNL d   1      12.942  11.935  -3.889  0.00  0.00     0.005 A 
ATOM     11  C   UNL d   1      14.020  14.885  -3.359  0.00  0.00     0.005 A 
ATOM     12  C   UNL d   1      13.539  14.230  -4.802  0.00  0.00     0.000 A 
ATOM     13  C   UNL d   1      13.079  12.895  -4.885  0.00  0.00     0.000 A 
ATOM     14  C   UNL d   1      14.046  15.342  -4.051  0.00  0.00     0.000 A 
ATOM     15  C   UNL d   1      13.804  15.011  -4.771  0.00  0.00     0.000 A 
ATOM     16  C   UNL d   1      12.841  12.262  -5.039  0.00  0.00     0.000 A 
ATOM     17  C   UNL d   1      12.772  11.784  -4.546  0.00  0.00     0.000 A 
ENDROOT
BRANCH   1  18
ATOM     18  C   UNL d   1      13.618  12.738  -1.654  0.00  0.00     0.111 C 
BRANCH  18  19
ATOM     19  C   UNL d   1      14.381  12.415  -1.354  0.00  0.00     0.118 A 
ATOM     20  O   UNL d   1      14.995  12.010  -1.840  0.00  0.00    -0.304 OA
ATOM     21  C   UNL d   1      15.658  11.783  -1.305  0.00  0.00     0.123 A 
ATOM     22  C   UNL d   1      15.453  12.049  -0.487  0.00  0.00     0.029 A 
ATOM     23  C   UNL d   1      14.663  12.438  -0.522  0.00  0.00     0.028 A 
ENDBRANCH  18  19
ENDBRANCH   1  18
TORSDOF 2
ENDMDL
