MODEL 1
REMARK VINA RESULT:      28.1      0.000      0.000
REMARK  4 active torsions:
REMARK  status: ('A' for Active; 'I' for Inactive)
REMARK    1  A    between atoms: C_6  and  C_1 
REMARK       I    between atoms: N_9  and  C_6 
REMARK    2  A    between atoms: C_13  and  N_9 
REMARK    3  A    between atoms: O_12  and  C_14 
REMARK    4  A    between atoms: C_14  and  C_13 
ROOT
ATOM      1  C   UNL d   1     -55.800 -99.735 -44.463  0.00  0.00     0.084 A 
ATOM      2  C   UNL d   1     -55.206 -99.505 -44.992  0.00  0.00     0.137 A 
ATOM      3  S   UNL d   1     -54.711-100.155 -45.115  0.00  0.00    -0.066 SA
ATOM      4  C   UNL d   1     -55.670-100.521 -44.263  0.00  0.00     0.013 A 
ATOM      5  C   UNL d   1     -55.003-100.782 -44.661  0.00  0.00     0.031 A 
ATOM      6  N   UNL d   1     -55.122 -98.755 -45.339  0.00  0.00    -0.141 N 
ATOM      7  C   UNL d   1     -56.078-101.038 -43.763  0.00  0.00     0.001 A 
ATOM      8  C   UNL d   1     -54.731-101.557 -44.570  0.00  0.00     0.006 A 
ATOM      9  C   UNL d   1     -55.808-101.814 -43.671  0.00  0.00     0.000 A 
ATOM     10  C   UNL d   1     -55.137-102.070 -44.073  0.00  0.00     0.001 A 
ENDROOT
BRANCH   1  11
ATOM     11  C   UNL d   1     -56.413 -99.250 -44.190  0.00  0.00     0.281 C 
ATOM     12  O   UNL d   1     -56.295 -98.774 -43.528  0.00  0.00    -0.265 OA
ATOM     13  N   UNL d   1     -57.141 -99.239 -44.575  0.00  0.00    -0.204 NA
BRANCH  13  14
ATOM     14  C   UNL d   1     -57.753 -98.755 -44.302  0.00  0.00     0.128 C 
BRANCH  14  15
ATOM     15  C   UNL d   1     -58.498 -98.787 -44.653  0.00  0.00     0.137 C 
BRANCH  15  16
ATOM     16  O   UNL d   1     -59.172 -98.876 -44.189  0.00  0.00    -0.325 OA
ATOM     17  C   UNL d   1     -59.921 -98.762 -44.515  0.00  0.00     0.182 C 
ENDBRANCH  15  16
ENDBRANCH  14  15
ENDBRANCH  13  14
ENDBRANCH   1  11
TORSDOF 4
ENDMDL
