MODEL 1
REMARK VINA RESULT:       8.3      0.000      0.000
REMARK  4 active torsions:
REMARK  status: ('A' for Active; 'I' for Inactive)
REMARK    1  A    between atoms: N_7  and  C_2 
REMARK    2  A    between atoms: C_5  and  C_10 
REMARK    3  A    between atoms: N_6  and  N_7 
REMARK    4  A    between atoms: C_10  and  N_6 
ROOT
ATOM      1  C   UNL d   1      45.769 -17.466  43.499  0.00  0.00     0.125 C 
ENDROOT
BRANCH   1   2
ATOM      2  C   UNL d   1      46.063 -18.250  43.486  0.00  0.00     0.060 A 
ATOM      3  C   UNL d   1      46.289 -18.595  42.766  0.00  0.00     0.197 A 
ATOM      4  C   UNL d   1      46.582 -19.376  42.757  0.00  0.00     0.043 A 
ATOM      5  O   UNL d   1      46.232 -18.185  42.055  0.00  0.00    -0.286 OA
ATOM      6  C   UNL d   1      46.644 -19.796  43.455  0.00  0.00     0.010 A 
ATOM      7  C   UNL d   1      46.418 -19.446  44.166  0.00  0.00     0.035 A 
ATOM      8  C   UNL d   1      46.128 -18.680  44.198  0.00  0.00     0.011 A 
ATOM      9 BR   UNL d   1      46.480 -19.875  44.893  0.00  0.00    -0.049 Br
ENDBRANCH   1   2
BRANCH   1  10
ATOM     10  N   UNL d   1      45.988 -16.923  44.106  0.00  0.00    -0.144 NA
BRANCH  10  11
ATOM     11  N   UNL d   1      45.432 -16.465  44.467  0.00  0.00    -0.121 NA
BRANCH  11  12
ATOM     12  C   UNL d   1      45.540 -15.645  44.519  0.00  0.00     0.217 A 
ATOM     13  N   UNL d   1      46.102 -15.155  44.220  0.00  0.00    -0.181 NA
ATOM     14  C   UNL d   1      45.921 -14.412  44.452  0.00  0.00     0.288 A 
ATOM     15  O   UNL d   1      46.352 -13.734  44.267  0.00  0.00    -0.265 OA
ATOM     16  C   UNL d   1      45.261 -14.406  44.890  0.00  0.00     0.101 A 
ATOM     17  S   UNL d   1      44.996 -15.186  44.949  0.00  0.00    -0.041 SA
ENDBRANCH  11  12
ENDBRANCH  10  11
ENDBRANCH   1  10
TORSDOF 4
ENDMDL
