MODEL 1
REMARK VINA RESULT:      -6.7      0.000      0.000
REMARK  7 active torsions:
REMARK  status: ('A' for Active; 'I' for Inactive)
REMARK    1  A    between atoms: C_8  and  N_2 
REMARK    2  A    between atoms: C_13  and  C_8 
REMARK    3  A    between atoms: O_17  and  C_13 
REMARK    4  A    between atoms: O_18  and  C_15 
REMARK    5  A    between atoms: C_21  and  O_17 
REMARK    6  A    between atoms: C_23  and  C_21 
REMARK    7  A    between atoms: C_24  and  C_23 
ROOT
ATOM      1  C   UNL d   1     -47.121  12.642  23.266  0.00  0.00     0.166 A 
ATOM      2  N   UNL d   1     -47.325  11.884  23.496  0.00  0.00    -0.285 N 
ATOM      3  C   UNL d   1     -46.304  12.657  23.136  0.00  0.00     0.117 A 
ATOM      4  C   UNL d   1     -46.006  11.905  23.287  0.00  0.00     0.039 A 
ATOM      5  C   UNL d   1     -46.638  11.422  23.511  0.00  0.00     0.067 A 
ATOM      6  N   UNL d   1     -47.567  13.320  23.158  0.00  0.00    -0.225 NA
ATOM      7  N   UNL d   1     -45.929  13.358  22.895  0.00  0.00    -0.241 NA
ATOM      8  C   UNL d   1     -47.199  14.027  22.916  0.00  0.00     0.101 A 
ATOM      9  C   UNL d   1     -46.382  14.043  22.786  0.00  0.00     0.099 A 
ATOM     10  C   UNL d   1     -46.506  10.629  23.698  0.00  0.00     0.020 A 
ATOM     11  C   UNL d   1     -45.243  11.595  23.251  0.00  0.00     0.027 A 
ATOM     12  C   UNL d   1     -45.112  10.802  23.438  0.00  0.00     0.094 A 
ATOM     13  C   UNL d   1     -45.743  10.319  23.661  0.00  0.00     0.026 A 
ATOM     14  C   UNL d   1     -46.019  14.740  22.548  0.00  0.00     0.021 A 
ATOM     15  C   UNL d   1     -47.651  14.704  22.809  0.00  0.00     0.021 A 
ATOM     16  C   UNL d   1     -46.472  15.420  22.440  0.00  0.00     0.002 A 
ATOM     17  C   UNL d   1     -47.290  15.409  22.569  0.00  0.00     0.002 A 
ENDROOT
BRANCH   2  18
ATOM     18  C   UNL d   1     -48.082  11.621  23.682  0.00  0.00     0.151 C 
BRANCH  18  19
ATOM     19  C   UNL d   1     -48.604  11.432  23.072  0.00  0.00     0.318 C 
ATOM     20  O   UNL d   1     -48.324  11.153  22.352  0.00  0.00    -0.257 OA
BRANCH  19  21
ATOM     21  O   UNL d   1     -49.414  11.525  23.187  0.00  0.00    -0.270 OA
BRANCH  21  22
ATOM     22  C   UNL d   1     -49.901  11.691  22.547  0.00  0.00     0.126 C 
BRANCH  22  23
ATOM     23  C   UNL d   1     -50.554  12.181  22.652  0.00  0.00     0.027 C 
BRANCH  23  24
ATOM     24  C   UNL d   1     -50.725  12.763  22.093  0.00  0.00     0.002 C 
ATOM     25  C   UNL d   1     -51.064  13.476  22.327  0.00  0.00     0.000 C 
ENDBRANCH  23  24
ENDBRANCH  22  23
ENDBRANCH  21  22
ENDBRANCH  19  21
ENDBRANCH  18  19
ENDBRANCH   2  18
BRANCH  12  26
ATOM     26  O   UNL d   1     -44.351  10.495  23.400  0.00  0.00    -0.328 OA
ATOM     27  C   UNL d   1     -44.216   9.709  23.573  0.00  0.00     0.181 C 
ENDBRANCH  12  26
TORSDOF 7
ENDMDL
MODEL 2
REMARK VINA RESULT:      -5.7      1.923      5.013
REMARK  7 active torsions:
REMARK  status: ('A' for Active; 'I' for Inactive)
REMARK    1  A    between atoms: C_8  and  N_2 
REMARK    2  A    between atoms: C_13  and  C_8 
REMARK    3  A    between atoms: O_17  and  C_13 
REMARK    4  A    between atoms: O_18  and  C_15 
REMARK    5  A    between atoms: C_21  and  O_17 
REMARK    6  A    between atoms: C_23  and  C_21 
REMARK    7  A    between atoms: C_24  and  C_23 
ROOT
ATOM      1  C   UNL d   1     -47.947  13.351  23.144  0.00  0.00     0.166 A 
ATOM      2  N   UNL d   1     -47.593  14.073  22.994  0.00  0.00    -0.285 N 
ATOM      3  C   UNL d   1     -48.766  13.463  23.141  0.00  0.00     0.117 A 
ATOM      4  C   UNL d   1     -48.915  14.258  22.988  0.00  0.00     0.039 A 
ATOM      5  C   UNL d   1     -48.189  14.639  22.897  0.00  0.00     0.067 A 
ATOM      6  N   UNL d   1     -47.634  12.606  23.282  0.00  0.00    -0.225 NA
ATOM      7  N   UNL d   1     -49.279  12.825  23.278  0.00  0.00    -0.241 NA
ATOM      8  C   UNL d   1     -48.142  11.960  23.421  0.00  0.00     0.101 A 
ATOM      9  C   UNL d   1     -48.961  12.073  23.418  0.00  0.00     0.099 A 
ATOM     10  C   UNL d   1     -48.163  15.449  22.737  0.00  0.00     0.020 A 
ATOM     11  C   UNL d   1     -49.616  14.686  22.921  0.00  0.00     0.027 A 
ATOM     12  C   UNL d   1     -49.590  15.495  22.762  0.00  0.00     0.094 A 
ATOM     13  C   UNL d   1     -48.865  15.877  22.670  0.00  0.00     0.026 A 
ATOM     14  C   UNL d   1     -49.462  11.437  23.555  0.00  0.00     0.021 A 
ATOM     15  C   UNL d   1     -47.824  11.216  23.560  0.00  0.00     0.021 A 
ATOM     16  C   UNL d   1     -49.144  10.689  23.694  0.00  0.00     0.002 A 
ATOM     17  C   UNL d   1     -48.324  10.572  23.698  0.00  0.00     0.002 A 
ENDROOT
BRANCH   2  18
ATOM     18  C   UNL d   1     -46.784  14.216  22.947  0.00  0.00     0.151 C 
BRANCH  18  19
ATOM     19  C   UNL d   1     -46.339  13.831  22.368  0.00  0.00     0.318 C 
ATOM     20  O   UNL d   1     -46.640  13.723  21.612  0.00  0.00    -0.257 OA
BRANCH  19  21
ATOM     21  O   UNL d   1     -45.587  13.553  22.552  0.00  0.00    -0.270 OA
BRANCH  21  22
ATOM     22  C   UNL d   1     -45.001  13.549  21.977  0.00  0.00     0.126 C 
BRANCH  22  23
ATOM     23  C   UNL d   1     -44.388  13.002  22.027  0.00  0.00     0.027 C 
BRANCH  23  24
ATOM     24  C   UNL d   1     -43.688  13.129  21.609  0.00  0.00     0.002 C 
ATOM     25  C   UNL d   1     -43.253  12.490  21.325  0.00  0.00     0.000 C 
ENDBRANCH  23  24
ENDBRANCH  22  23
ENDBRANCH  21  22
ENDBRANCH  19  21
ENDBRANCH  18  19
ENDBRANCH   2  18
BRANCH  12  26
ATOM     26  O   UNL d   1     -50.291  15.919  22.695  0.00  0.00    -0.328 OA
ATOM     27  C   UNL d   1     -50.876  15.838  23.258  0.00  0.00     0.181 C 
ENDBRANCH  12  26
TORSDOF 7
ENDMDL
MODEL 3
REMARK VINA RESULT:      -5.7      8.365      9.865
REMARK  7 active torsions:
REMARK  status: ('A' for Active; 'I' for Inactive)
REMARK    1  A    between atoms: C_8  and  N_2 
REMARK    2  A    between atoms: C_13  and  C_8 
REMARK    3  A    between atoms: O_17  and  C_13 
REMARK    4  A    between atoms: O_18  and  C_15 
REMARK    5  A    between atoms: C_21  and  O_17 
REMARK    6  A    between atoms: C_23  and  C_21 
REMARK    7  A    between atoms: C_24  and  C_23 
ROOT
ATOM      1  C   UNL d   1     -39.776  13.962  18.652  0.00  0.00     0.166 A 
ATOM      2  N   UNL d   1     -40.257  14.530  18.991  0.00  0.00    -0.285 N 
ATOM      3  C   UNL d   1     -39.838  14.034  17.830  0.00  0.00     0.117 A 
ATOM      4  C   UNL d   1     -40.359  14.649  17.664  0.00  0.00     0.039 A 
ATOM      5  C   UNL d   1     -40.621  14.959  18.383  0.00  0.00     0.067 A 
ATOM      6  N   UNL d   1     -39.291  13.388  18.979  0.00  0.00    -0.225 NA
ATOM      7  N   UNL d   1     -39.410  13.527  17.330  0.00  0.00    -0.241 NA
ATOM      8  C   UNL d   1     -38.858  12.877  18.485  0.00  0.00     0.101 A 
ATOM      9  C   UNL d   1     -38.920  12.948  17.663  0.00  0.00     0.099 A 
ATOM     10  C   UNL d   1     -41.154  15.590  18.392  0.00  0.00     0.020 A 
ATOM     11  C   UNL d   1     -40.630  14.969  16.955  0.00  0.00     0.027 A 
ATOM     12  C   UNL d   1     -41.162  15.598  16.964  0.00  0.00     0.094 A 
ATOM     13  C   UNL d   1     -41.425  15.909  17.682  0.00  0.00     0.026 A 
ATOM     14  C   UNL d   1     -38.493  12.444  17.175  0.00  0.00     0.021 A 
ATOM     15  C   UNL d   1     -38.373  12.304  18.818  0.00  0.00     0.021 A 
ATOM     16  C   UNL d   1     -38.006  11.868  17.509  0.00  0.00     0.002 A 
ATOM     17  C   UNL d   1     -37.942  11.793  18.331  0.00  0.00     0.002 A 
ENDROOT
BRANCH   2  18
ATOM     18  C   UNL d   1     -40.363  14.657  19.797  0.00  0.00     0.151 C 
BRANCH  18  19
ATOM     19  C   UNL d   1     -39.841  15.151  20.200  0.00  0.00     0.318 C 
ATOM     20  O   UNL d   1     -39.387  15.702  19.794  0.00  0.00    -0.257 OA
BRANCH  19  21
ATOM     21  O   UNL d   1     -39.774  15.090  21.018  0.00  0.00    -0.270 OA
BRANCH  21  22
ATOM     22  C   UNL d   1     -39.547  15.746  21.459  0.00  0.00     0.126 C 
BRANCH  22  23
ATOM     23  C   UNL d   1     -38.892  15.693  21.955  0.00  0.00     0.027 C 
BRANCH  23  24
ATOM     24  C   UNL d   1     -38.984  15.791  22.769  0.00  0.00     0.002 C 
ATOM     25  C   UNL d   1     -38.329  15.760  23.266  0.00  0.00     0.000 C 
ENDBRANCH  23  24
ENDBRANCH  22  23
ENDBRANCH  21  22
ENDBRANCH  19  21
ENDBRANCH  18  19
ENDBRANCH   2  18
BRANCH  12  26
ATOM     26  O   UNL d   1     -41.431  15.915  16.255  0.00  0.00    -0.328 OA
ATOM     27  C   UNL d   1     -42.159  15.697  15.957  0.00  0.00     0.181 C 
ENDBRANCH  12  26
TORSDOF 7
ENDMDL
MODEL 4
REMARK VINA RESULT:      -5.2      1.306      4.055
REMARK  7 active torsions:
REMARK  status: ('A' for Active; 'I' for Inactive)
REMARK    1  A    between atoms: C_8  and  N_2 
REMARK    2  A    between atoms: C_13  and  C_8 
REMARK    3  A    between atoms: O_17  and  C_13 
REMARK    4  A    between atoms: O_18  and  C_15 
REMARK    5  A    between atoms: C_21  and  O_17 
REMARK    6  A    between atoms: C_23  and  C_21 
REMARK    7  A    between atoms: C_24  and  C_23 
ROOT
ATOM      1  C   UNL d   1     -48.350  12.689  22.968  0.00  0.00     0.166 A 
ATOM      2  N   UNL d   1     -47.612  12.558  23.296  0.00  0.00    -0.285 N 
ATOM      3  C   UNL d   1     -48.347  13.443  22.627  0.00  0.00     0.117 A 
ATOM      4  C   UNL d   1     -47.603  13.775  22.747  0.00  0.00     0.039 A 
ATOM      5  C   UNL d   1     -47.145  13.228  23.161  0.00  0.00     0.067 A 
ATOM      6  N   UNL d   1     -49.025  12.225  22.934  0.00  0.00    -0.225 NA
ATOM      7  N   UNL d   1     -49.025  13.737  22.248  0.00  0.00    -0.241 NA
ATOM      8  C   UNL d   1     -49.709  12.512  22.555  0.00  0.00     0.101 A 
ATOM      9  C   UNL d   1     -49.706  13.266  22.215  0.00  0.00     0.099 A 
ATOM     10  C   UNL d   1     -46.365  13.409  23.363  0.00  0.00     0.020 A 
ATOM     11  C   UNL d   1     -47.282  14.504  22.533  0.00  0.00     0.027 A 
ATOM     12  C   UNL d   1     -46.503  14.684  22.734  0.00  0.00     0.094 A 
ATOM     13  C   UNL d   1     -46.044  14.138  23.148  0.00  0.00     0.026 A 
ATOM     14  C   UNL d   1     -50.380  13.550  21.841  0.00  0.00     0.021 A 
ATOM     15  C   UNL d   1     -50.383  12.044  22.523  0.00  0.00     0.021 A 
ATOM     16  C   UNL d   1     -51.057  13.080  21.808  0.00  0.00     0.002 A 
ATOM     17  C   UNL d   1     -51.064  12.324  22.148  0.00  0.00     0.002 A 
ENDROOT
BRANCH   2  18
ATOM     18  C   UNL d   1     -47.372  11.877  23.691  0.00  0.00     0.151 C 
BRANCH  18  19
ATOM     19  C   UNL d   1     -46.939  11.306  23.285  0.00  0.00     0.318 C 
ATOM     20  O   UNL d   1     -47.316  10.758  22.803  0.00  0.00    -0.257 OA
BRANCH  19  21
ATOM     21  O   UNL d   1     -46.120  11.286  23.363  0.00  0.00    -0.270 OA
BRANCH  21  22
ATOM     22  C   UNL d   1     -45.746  10.584  23.571  0.00  0.00     0.126 C 
BRANCH  22  23
ATOM     23  C   UNL d   1     -44.932  10.578  23.689  0.00  0.00     0.027 C 
BRANCH  23  24
ATOM     24  C   UNL d   1     -44.501   9.889  23.547  0.00  0.00     0.002 C 
ATOM     25  C   UNL d   1     -43.692   9.929  23.398  0.00  0.00     0.000 C 
ENDBRANCH  23  24
ENDBRANCH  22  23
ENDBRANCH  21  22
ENDBRANCH  19  21
ENDBRANCH  18  19
ENDBRANCH   2  18
BRANCH  12  26
ATOM     26  O   UNL d   1     -46.185  15.411  22.520  0.00  0.00    -0.328 OA
ATOM     27  C   UNL d   1     -45.471  15.447  22.126  0.00  0.00     0.181 C 
ENDBRANCH  12  26
TORSDOF 7
ENDMDL
MODEL 5
REMARK VINA RESULT:      -5.1      6.234      7.892
REMARK  7 active torsions:
REMARK  status: ('A' for Active; 'I' for Inactive)
REMARK    1  A    between atoms: C_8  and  N_2 
REMARK    2  A    between atoms: C_13  and  C_8 
REMARK    3  A    between atoms: O_17  and  C_13 
REMARK    4  A    between atoms: O_18  and  C_15 
REMARK    5  A    between atoms: C_21  and  O_17 
REMARK    6  A    between atoms: C_23  and  C_21 
REMARK    7  A    between atoms: C_24  and  C_23 
ROOT
ATOM      1  C   UNL d   1     -40.171  14.279  21.014  0.00  0.00     0.166 A 
ATOM      2  N   UNL d   1     -40.803  14.504  20.546  0.00  0.00    -0.285 N 
ATOM      3  C   UNL d   1     -39.475  14.423  20.590  0.00  0.00     0.117 A 
ATOM      4  C   UNL d   1     -39.681  14.738  19.858  0.00  0.00     0.039 A 
ATOM      5  C   UNL d   1     -40.505  14.790  19.828  0.00  0.00     0.067 A 
ATOM      6  N   UNL d   1     -40.134  13.963  21.769  0.00  0.00    -0.225 NA
ATOM      7  N   UNL d   1     -38.735  14.249  20.924  0.00  0.00    -0.241 NA
ATOM      8  C   UNL d   1     -39.396  13.785  22.111  0.00  0.00     0.101 A 
ATOM      9  C   UNL d   1     -38.701  13.929  21.687  0.00  0.00     0.099 A 
ATOM     10  C   UNL d   1     -40.876  15.088  19.153  0.00  0.00     0.020 A 
ATOM     11  C   UNL d   1     -39.229  14.985  19.215  0.00  0.00     0.027 A 
ATOM     12  C   UNL d   1     -39.600  15.283  18.541  0.00  0.00     0.094 A 
ATOM     13  C   UNL d   1     -40.423  15.335  18.510  0.00  0.00     0.026 A 
ATOM     14  C   UNL d   1     -37.972  13.754  22.024  0.00  0.00     0.021 A 
ATOM     15  C   UNL d   1     -39.365  13.468  22.868  0.00  0.00     0.021 A 
ATOM     16  C   UNL d   1     -37.940  13.436  22.785  0.00  0.00     0.002 A 
ATOM     17  C   UNL d   1     -38.634  13.290  23.212  0.00  0.00     0.002 A 
ENDROOT
BRANCH   2  18
ATOM     18  C   UNL d   1     -41.599  14.457  20.749  0.00  0.00     0.151 C 
BRANCH  18  19
ATOM     19  C   UNL d   1     -41.994  13.739  20.666  0.00  0.00     0.318 C 
ATOM     20  O   UNL d   1     -41.902  13.286  19.987  0.00  0.00    -0.257 OA
BRANCH  19  21
ATOM     21  O   UNL d   1     -42.486  13.473  21.270  0.00  0.00    -0.270 OA
BRANCH  21  22
ATOM     22  C   UNL d   1     -43.234  13.185  21.090  0.00  0.00     0.126 C 
BRANCH  22  23
ATOM     23  C   UNL d   1     -43.727  12.931  21.698  0.00  0.00     0.027 C 
BRANCH  23  24
ATOM     24  C   UNL d   1     -44.543  12.896  21.580  0.00  0.00     0.002 C 
ATOM     25  C   UNL d   1     -45.059  13.023  22.208  0.00  0.00     0.000 C 
ENDBRANCH  23  24
ENDBRANCH  22  23
ENDBRANCH  21  22
ENDBRANCH  19  21
ENDBRANCH  18  19
ENDBRANCH   2  18
BRANCH  12  26
ATOM     26  O   UNL d   1     -39.147  15.528  17.902  0.00  0.00    -0.328 OA
ATOM     27  C   UNL d   1     -39.129  15.085  17.217  0.00  0.00     0.181 C 
ENDBRANCH  12  26
TORSDOF 7
ENDMDL
MODEL 6
REMARK VINA RESULT:      -5.0      1.402      2.973
REMARK  7 active torsions:
REMARK  status: ('A' for Active; 'I' for Inactive)
REMARK    1  A    between atoms: C_8  and  N_2 
REMARK    2  A    between atoms: C_13  and  C_8 
REMARK    3  A    between atoms: O_17  and  C_13 
REMARK    4  A    between atoms: O_18  and  C_15 
REMARK    5  A    between atoms: C_21  and  O_17 
REMARK    6  A    between atoms: C_23  and  C_21 
REMARK    7  A    between atoms: C_24  and  C_23 
ROOT
ATOM      1  C   UNL d   1     -47.960  12.505  23.511  0.00  0.00     0.166 A 
ATOM      2  N   UNL d   1     -47.232  12.875  23.458  0.00  0.00    -0.285 N 
ATOM      3  C   UNL d   1     -47.827  11.690  23.570  0.00  0.00     0.117 A 
ATOM      4  C   UNL d   1     -47.014  11.560  23.553  0.00  0.00     0.039 A 
ATOM      5  C   UNL d   1     -46.643  12.294  23.484  0.00  0.00     0.067 A 
ATOM      6  N   UNL d   1     -48.725  12.798  23.513  0.00  0.00    -0.225 NA
ATOM      7  N   UNL d   1     -48.466  11.163  23.632  0.00  0.00    -0.241 NA
ATOM      8  C   UNL d   1     -49.371  12.277  23.575  0.00  0.00     0.101 A 
ATOM      9  C   UNL d   1     -49.239  11.462  23.634  0.00  0.00     0.099 A 
ATOM     10  C   UNL d   1     -45.819  12.340  23.453  0.00  0.00     0.020 A 
ATOM     11  C   UNL d   1     -46.563  10.872  23.592  0.00  0.00     0.027 A 
ATOM     12  C   UNL d   1     -45.740  10.917  23.562  0.00  0.00     0.094 A 
ATOM     13  C   UNL d   1     -45.368  11.650  23.492  0.00  0.00     0.026 A 
ATOM     14  C   UNL d   1     -49.876  10.947  23.696  0.00  0.00     0.021 A 
ATOM     15  C   UNL d   1     -50.136  12.575  23.577  0.00  0.00     0.021 A 
ATOM     16  C   UNL d   1     -50.644  11.247  23.697  0.00  0.00     0.002 A 
ATOM     17  C   UNL d   1     -50.781  12.062  23.638  0.00  0.00     0.002 A 
ENDROOT
BRANCH   2  18
ATOM     18  C   UNL d   1     -47.104  13.685  23.390  0.00  0.00     0.151 C 
BRANCH  18  19
ATOM     19  C   UNL d   1     -47.362  14.079  22.713  0.00  0.00     0.318 C 
ATOM     20  O   UNL d   1     -47.223  13.765  21.967  0.00  0.00    -0.257 OA
BRANCH  19  21
ATOM     21  O   UNL d   1     -47.764  14.793  22.788  0.00  0.00    -0.270 OA
BRANCH  21  22
ATOM     22  C   UNL d   1     -48.240  15.060  22.173  0.00  0.00     0.126 C 
BRANCH  22  23
ATOM     23  C   UNL d   1     -48.763  15.682  22.307  0.00  0.00     0.027 C 
BRANCH  23  24
ATOM     24  C   UNL d   1     -49.568  15.581  22.158  0.00  0.00     0.002 C 
ATOM     25  C   UNL d   1     -50.128  15.916  22.659  0.00  0.00     0.000 C 
ENDBRANCH  23  24
ENDBRANCH  22  23
ENDBRANCH  21  22
ENDBRANCH  19  21
ENDBRANCH  18  19
ENDBRANCH   2  18
BRANCH  12  26
ATOM     26  O   UNL d   1     -45.293  10.229  23.601  0.00  0.00    -0.328 OA
ATOM     27  C   UNL d   1     -44.503  10.241  23.397  0.00  0.00     0.181 C 
ENDBRANCH  12  26
TORSDOF 7
ENDMDL
MODEL 7
REMARK VINA RESULT:      -4.7      1.788      3.864
REMARK  7 active torsions:
REMARK  status: ('A' for Active; 'I' for Inactive)
REMARK    1  A    between atoms: C_8  and  N_2 
REMARK    2  A    between atoms: C_13  and  C_8 
REMARK    3  A    between atoms: O_17  and  C_13 
REMARK    4  A    between atoms: O_18  and  C_15 
REMARK    5  A    between atoms: C_21  and  O_17 
REMARK    6  A    between atoms: C_23  and  C_21 
REMARK    7  A    between atoms: C_24  and  C_23 
ROOT
ATOM      1  C   UNL d   1     -47.783  13.848  22.880  0.00  0.00     0.166 A 
ATOM      2  N   UNL d   1     -47.081  13.447  23.006  0.00  0.00    -0.285 N 
ATOM      3  C   UNL d   1     -48.405  13.313  22.989  0.00  0.00     0.117 A 
ATOM      4  C   UNL d   1     -48.083  12.581  23.183  0.00  0.00     0.039 A 
ATOM      5  C   UNL d   1     -47.261  12.661  23.195  0.00  0.00     0.067 A 
ATOM      6  N   UNL d   1     -47.940  14.627  22.680  0.00  0.00    -0.225 NA
ATOM      7  N   UNL d   1     -49.193  13.560  22.897  0.00  0.00    -0.241 NA
ATOM      8  C   UNL d   1     -48.728  14.882  22.586  0.00  0.00     0.101 A 
ATOM      9  C   UNL d   1     -49.349  14.348  22.695  0.00  0.00     0.099 A 
ATOM     10  C   UNL d   1     -46.785  12.011  23.375  0.00  0.00     0.020 A 
ATOM     11  C   UNL d   1     -48.429  11.852  23.351  0.00  0.00     0.027 A 
ATOM     12  C   UNL d   1     -47.953  11.203  23.531  0.00  0.00     0.094 A 
ATOM     13  C   UNL d   1     -47.131  11.282  23.543  0.00  0.00     0.026 A 
ATOM     14  C   UNL d   1     -50.126  14.599  22.603  0.00  0.00     0.021 A 
ATOM     15  C   UNL d   1     -48.880  15.664  22.386  0.00  0.00     0.021 A 
ATOM     16  C   UNL d   1     -50.280  15.384  22.402  0.00  0.00     0.002 A 
ATOM     17  C   UNL d   1     -49.660  15.922  22.292  0.00  0.00     0.002 A 
ENDROOT
BRANCH   2  18
ATOM     18  C   UNL d   1     -46.325  13.766  22.956  0.00  0.00     0.151 C 
BRANCH  18  19
ATOM     19  C   UNL d   1     -45.850  13.578  22.309  0.00  0.00     0.318 C 
ATOM     20  O   UNL d   1     -46.166  13.546  21.552  0.00  0.00    -0.257 OA
BRANCH  19  21
ATOM     21  O   UNL d   1     -45.050  13.419  22.425  0.00  0.00    -0.270 OA
BRANCH  21  22
ATOM     22  C   UNL d   1     -44.569  13.256  21.779  0.00  0.00     0.126 C 
BRANCH  22  23
ATOM     23  C   UNL d   1     -43.843  12.887  21.899  0.00  0.00     0.027 C 
BRANCH  23  24
ATOM     24  C   UNL d   1     -43.421  12.590  21.255  0.00  0.00     0.002 C 
ATOM     25  C   UNL d   1     -42.729  12.961  21.006  0.00  0.00     0.000 C 
ENDBRANCH  23  24
ENDBRANCH  22  23
ENDBRANCH  21  22
ENDBRANCH  19  21
ENDBRANCH  18  19
ENDBRANCH   2  18
BRANCH  12  26
ATOM     26  O   UNL d   1     -48.300  10.478  23.698  0.00  0.00    -0.328 OA
ATOM     27  C   UNL d   1     -49.101  10.371  23.588  0.00  0.00     0.181 C 
ENDBRANCH  12  26
TORSDOF 7
ENDMDL
MODEL 8
REMARK VINA RESULT:      -4.0      8.986     11.012
REMARK  7 active torsions:
REMARK  status: ('A' for Active; 'I' for Inactive)
REMARK    1  A    between atoms: C_8  and  N_2 
REMARK    2  A    between atoms: C_13  and  C_8 
REMARK    3  A    between atoms: O_17  and  C_13 
REMARK    4  A    between atoms: O_18  and  C_15 
REMARK    5  A    between atoms: C_21  and  O_17 
REMARK    6  A    between atoms: C_23  and  C_21 
REMARK    7  A    between atoms: C_24  and  C_23 
ROOT
ATOM      1  C   UNL d   1     -37.960  13.447  18.266  0.00  0.00     0.166 A 
ATOM      2  N   UNL d   1     -37.964  14.214  18.549  0.00  0.00    -0.285 N 
ATOM      3  C   UNL d   1     -37.962  13.480  17.439  0.00  0.00     0.117 A 
ATOM      4  C   UNL d   1     -37.967  14.272  17.214  0.00  0.00     0.039 A 
ATOM      5  C   UNL d   1     -37.969  14.730  17.901  0.00  0.00     0.067 A 
ATOM      6  N   UNL d   1     -37.954  12.722  18.649  0.00  0.00    -0.225 NA
ATOM      7  N   UNL d   1     -37.958  12.782  16.990  0.00  0.00    -0.241 NA
ATOM      8  C   UNL d   1     -37.951  12.017  18.205  0.00  0.00     0.101 A 
ATOM      9  C   UNL d   1     -37.952  12.050  17.379  0.00  0.00     0.099 A 
ATOM     10  C   UNL d   1     -37.974  15.554  17.849  0.00  0.00     0.020 A 
ATOM     11  C   UNL d   1     -37.971  14.637  16.475  0.00  0.00     0.027 A 
ATOM     12  C   UNL d   1     -37.977  15.460  16.423  0.00  0.00     0.094 A 
ATOM     13  C   UNL d   1     -37.978  15.919  17.109  0.00  0.00     0.026 A 
ATOM     14  C   UNL d   1     -37.949  11.355  16.941  0.00  0.00     0.021 A 
ATOM     15  C   UNL d   1     -37.945  11.293  18.593  0.00  0.00     0.021 A 
ATOM     16  C   UNL d   1     -37.943  10.628  17.330  0.00  0.00     0.002 A 
ATOM     17  C   UNL d   1     -37.941  10.590  18.157  0.00  0.00     0.002 A 
ENDROOT
BRANCH   2  18
ATOM     18  C   UNL d   1     -37.964  14.439  19.340  0.00  0.00     0.151 C 
BRANCH  18  19
ATOM     19  C   UNL d   1     -38.677  14.462  19.753  0.00  0.00     0.318 C 
ATOM     20  O   UNL d   1     -39.326  14.862  19.447  0.00  0.00    -0.257 OA
BRANCH  19  21
ATOM     21  O   UNL d   1     -38.739  14.079  20.479  0.00  0.00    -0.270 OA
BRANCH  21  22
ATOM     22  C   UNL d   1     -38.816  14.520  21.168  0.00  0.00     0.126 C 
BRANCH  22  23
ATOM     23  C   UNL d   1     -38.580  14.194  21.886  0.00  0.00     0.027 C 
BRANCH  23  24
ATOM     24  C   UNL d   1     -39.123  14.124  22.504  0.00  0.00     0.002 C 
ATOM     25  C   UNL d   1     -38.874  14.195  23.285  0.00  0.00     0.000 C 
ENDBRANCH  23  24
ENDBRANCH  22  23
ENDBRANCH  21  22
ENDBRANCH  19  21
ENDBRANCH  18  19
ENDBRANCH   2  18
BRANCH  12  26
ATOM     26  O   UNL d   1     -37.980  15.821  15.686  0.00  0.00    -0.328 OA
ATOM     27  C   UNL d   1     -38.681  15.912  15.277  0.00  0.00     0.181 C 
ENDBRANCH  12  26
TORSDOF 7
ENDMDL
MODEL 9
REMARK VINA RESULT:      -3.8      2.345      5.338
REMARK  7 active torsions:
REMARK  status: ('A' for Active; 'I' for Inactive)
REMARK    1  A    between atoms: C_8  and  N_2 
REMARK    2  A    between atoms: C_13  and  C_8 
REMARK    3  A    between atoms: O_17  and  C_13 
REMARK    4  A    between atoms: O_18  and  C_15 
REMARK    5  A    between atoms: C_21  and  O_17 
REMARK    6  A    between atoms: C_23  and  C_21 
REMARK    7  A    between atoms: C_24  and  C_23 
ROOT
ATOM      1  C   UNL d   1     -44.918  12.269  22.746  0.00  0.00     0.166 A 
ATOM      2  N   UNL d   1     -44.992  13.038  22.477  0.00  0.00    -0.285 N 
ATOM      3  C   UNL d   1     -45.657  12.024  23.024  0.00  0.00     0.117 A 
ATOM      4  C   UNL d   1     -46.187  12.645  22.926  0.00  0.00     0.039 A 
ATOM      5  C   UNL d   1     -45.777  13.276  22.586  0.00  0.00     0.067 A 
ATOM      6  N   UNL d   1     -44.277  11.758  22.775  0.00  0.00    -0.225 NA
ATOM      7  N   UNL d   1     -45.758  11.260  23.335  0.00  0.00    -0.241 NA
ATOM      8  C   UNL d   1     -44.370  10.991  23.085  0.00  0.00     0.101 A 
ATOM      9  C   UNL d   1     -45.109  10.746  23.363  0.00  0.00     0.099 A 
ATOM     10  C   UNL d   1     -46.169  13.984  22.421  0.00  0.00     0.020 A 
ATOM     11  C   UNL d   1     -46.989  12.721  23.100  0.00  0.00     0.027 A 
ATOM     12  C   UNL d   1     -47.381  13.428  22.935  0.00  0.00     0.094 A 
ATOM     13  C   UNL d   1     -46.972  14.059  22.595  0.00  0.00     0.026 A 
ATOM     14  C   UNL d   1     -45.201   9.989  23.669  0.00  0.00     0.021 A 
ATOM     15  C   UNL d   1     -43.725  10.483  23.112  0.00  0.00     0.021 A 
ATOM     16  C   UNL d   1     -44.554   9.478  23.697  0.00  0.00     0.002 A 
ATOM     17  C   UNL d   1     -43.812   9.720  23.419  0.00  0.00     0.002 A 
ENDROOT
BRANCH   2  18
ATOM     18  C   UNL d   1     -44.391  13.498  22.153  0.00  0.00     0.151 C 
BRANCH  18  19
ATOM     19  C   UNL d   1     -43.976  13.217  21.500  0.00  0.00     0.318 C 
ATOM     20  O   UNL d   1     -44.373  12.974  20.823  0.00  0.00    -0.257 OA
BRANCH  19  21
ATOM     21  O   UNL d   1     -43.154  13.179  21.527  0.00  0.00    -0.270 OA
BRANCH  21  22
ATOM     22  C   UNL d   1     -42.706  13.675  21.049  0.00  0.00     0.126 C 
BRANCH  22  23
ATOM     23  C   UNL d   1     -41.886  13.666  21.111  0.00  0.00     0.027 C 
BRANCH  23  24
ATOM     24  C   UNL d   1     -41.447  14.323  20.872  0.00  0.00     0.002 C 
ATOM     25  C   UNL d   1     -40.861  14.243  20.300  0.00  0.00     0.000 C 
ENDBRANCH  23  24
ENDBRANCH  22  23
ENDBRANCH  21  22
ENDBRANCH  19  21
ENDBRANCH  18  19
ENDBRANCH   2  18
BRANCH  12  26
ATOM     26  O   UNL d   1     -48.180  13.501  23.109  0.00  0.00    -0.328 OA
ATOM     27  C   UNL d   1     -48.642  14.039  22.704  0.00  0.00     0.181 C 
ENDBRANCH  12  26
TORSDOF 7
ENDMDL
