MODEL 1
REMARK VINA RESULT:      55.5      0.000      0.000
REMARK  4 active torsions:
REMARK  status: ('A' for Active; 'I' for Inactive)
REMARK    1  A    between atoms: C_8  and  N_1 
REMARK    2  A    between atoms: N_7  and  C_4 
REMARK    3  A    between atoms: N_6  and  C_10 
REMARK    4  A    between atoms: C_15  and  N_7 
ROOT
ATOM      1  N   UNL d   1     -51.328  25.308  33.341  0.00  0.00    -0.241 N 
ATOM      2  C   UNL d   1     -50.518  25.295  33.352  0.00  0.00     0.269 A 
ATOM      3  C   UNL d   1     -51.569  26.090  33.322  0.00  0.00     0.285 A 
ATOM      4  C   UNL d   1     -50.877  26.542  33.323  0.00  0.00     0.142 A 
ATOM      5  C   UNL d   1     -50.257  26.066  33.341  0.00  0.00     0.085 A 
ATOM      6  O   UNL d   1     -50.010  24.624  33.372  0.00  0.00    -0.267 OA
ATOM      7  O   UNL d   1     -52.360  26.373  33.306  0.00  0.00    -0.265 OA
ENDROOT
BRANCH   4   8
ATOM      8  N   UNL d   1     -50.807  27.401  33.307  0.00  0.00    -0.241 NA
BRANCH   8   9
ATOM      9  C   UNL d   1     -50.204  27.797  33.718  0.00  0.00     0.082 A 
ATOM     10  C   UNL d   1     -49.938  27.486  34.441  0.00  0.00     0.021 A 
ATOM     11  C   UNL d   1     -49.331  27.891  34.846  0.00  0.00     0.019 A 
ATOM     12  C   UNL d   1     -49.006  28.571  34.546  0.00  0.00     0.064 A 
ATOM     13  C   UNL d   1     -49.261  28.877  33.844  0.00  0.00     0.019 A 
ATOM     14  C   UNL d   1     -49.865  28.489  33.424  0.00  0.00     0.021 A 
BRANCH  12  15
ATOM     15  N   UNL d   1     -48.403  28.955  34.969  0.00  0.00    -0.300 N 
ATOM     16  C   UNL d   1     -48.430  29.776  35.052  0.00  0.00     0.107 A 
ATOM     17  C   UNL d   1     -47.826  30.150  35.474  0.00  0.00     0.142 A 
ATOM     18  O   UNL d   1     -47.218  29.708  35.800  0.00  0.00    -0.300 OA
ATOM     19  C   UNL d   1     -47.211  28.899  35.705  0.00  0.00     0.142 A 
ATOM     20  C   UNL d   1     -47.806  28.500  35.286  0.00  0.00     0.107 A 
ENDBRANCH  12  15
ENDBRANCH   8   9
ENDBRANCH   4   8
BRANCH   1  21
ATOM     21  C   UNL d   1     -51.760  24.620  33.348  0.00  0.00     0.070 A 
ATOM     22  C   UNL d   1     -52.601  24.636  33.397  0.00  0.00     0.018 A 
ATOM     23  C   UNL d   1     -53.030  23.937  33.404  0.00  0.00     0.002 A 
ATOM     24  C   UNL d   1     -52.633  23.211  33.363  0.00  0.00     0.000 A 
ATOM     25  C   UNL d   1     -51.821  23.188  33.315  0.00  0.00     0.002 A 
ATOM     26  C   UNL d   1     -51.390  23.892  33.308  0.00  0.00     0.018 A 
ENDBRANCH   1  21
TORSDOF 4
ENDMDL
MODEL 2
REMARK VINA RESULT:      56.1      0.797      1.332
REMARK  4 active torsions:
REMARK  status: ('A' for Active; 'I' for Inactive)
REMARK    1  A    between atoms: C_8  and  N_1 
REMARK    2  A    between atoms: N_7  and  C_4 
REMARK    3  A    between atoms: N_6  and  C_10 
REMARK    4  A    between atoms: C_15  and  N_7 
ROOT
ATOM      1  N   UNL d   1     -51.581  25.085  33.317  0.00  0.00    -0.241 N 
ATOM      2  C   UNL d   1     -51.727  25.883  33.310  0.00  0.00     0.269 A 
ATOM      3  C   UNL d   1     -50.770  24.977  33.317  0.00  0.00     0.285 A 
ATOM      4  C   UNL d   1     -50.438  25.735  33.310  0.00  0.00     0.142 A 
ATOM      5  C   UNL d   1     -51.010  26.267  33.306  0.00  0.00     0.085 A 
ATOM      6  O   UNL d   1     -52.473  26.273  33.308  0.00  0.00    -0.267 OA
ATOM      7  O   UNL d   1     -50.360  24.243  33.323  0.00  0.00    -0.265 OA
ENDROOT
BRANCH   4   8
ATOM      8  N   UNL d   1     -49.602  25.945  33.307  0.00  0.00    -0.241 NA
BRANCH   8   9
ATOM      9  C   UNL d   1     -49.317  26.602  33.727  0.00  0.00     0.082 A 
ATOM     10  C   UNL d   1     -48.538  26.588  34.014  0.00  0.00     0.021 A 
ATOM     11  C   UNL d   1     -48.260  27.253  34.436  0.00  0.00     0.019 A 
ATOM     12  C   UNL d   1     -48.735  27.898  34.563  0.00  0.00     0.064 A 
ATOM     13  C   UNL d   1     -49.493  27.916  34.286  0.00  0.00     0.019 A 
ATOM     14  C   UNL d   1     -49.789  27.264  33.864  0.00  0.00     0.021 A 
BRANCH  12  15
ATOM     15  N   UNL d   1     -48.435  28.547  34.985  0.00  0.00    -0.300 N 
ATOM     16  C   UNL d   1     -48.450  28.533  35.811  0.00  0.00     0.107 A 
ATOM     17  C   UNL d   1     -48.150  29.184  36.222  0.00  0.00     0.142 A 
ATOM     18  O   UNL d   1     -47.846  29.825  35.813  0.00  0.00    -0.300 OA
ATOM     19  C   UNL d   1     -47.841  29.818  34.998  0.00  0.00     0.142 A 
ATOM     20  C   UNL d   1     -48.137  29.176  34.562  0.00  0.00     0.107 A 
ENDBRANCH  12  15
ENDBRANCH   8   9
ENDBRANCH   4   8
BRANCH   1  21
ATOM     21  C   UNL d   1     -52.188  24.546  33.323  0.00  0.00     0.070 A 
ATOM     22  C   UNL d   1     -52.992  24.798  33.332  0.00  0.00     0.018 A 
ATOM     23  C   UNL d   1     -53.600  24.247  33.337  0.00  0.00     0.002 A 
ATOM     24  C   UNL d   1     -53.421  23.438  33.335  0.00  0.00     0.000 A 
ATOM     25  C   UNL d   1     -52.647  23.188  33.326  0.00  0.00     0.002 A 
ATOM     26  C   UNL d   1     -52.036  23.743  33.320  0.00  0.00     0.018 A 
ENDBRANCH   1  21
TORSDOF 4
ENDMDL
