MODEL 1
REMARK VINA RESULT:      -6.5      0.000      0.000
REMARK  1 active torsions:
REMARK  status: ('A' for Active; 'I' for Inactive)
REMARK       I    between atoms: N_4  and  C_1 
REMARK    1  A    between atoms: C_9  and  N_4 
ROOT
ATOM      1  C   UNL d   1     -47.227  12.210  23.366  0.00  0.00     0.121 A 
ATOM      2  C   UNL d   1     -47.951  12.563  23.195  0.00  0.00     0.046 A 
ATOM      3  C   UNL d   1     -46.532  12.646  23.291  0.00  0.00     0.119 A 
ATOM      4  O   UNL d   1     -47.024  11.454  23.618  0.00  0.00    -0.299 OA
ATOM      5  O   UNL d   1     -45.898  12.153  23.497  0.00  0.00    -0.300 OA
ATOM      6  C   UNL d   1     -47.981  13.357  22.946  0.00  0.00     0.102 A 
ATOM      7  C   UNL d   1     -46.200  11.423  23.698  0.00  0.00     0.304 A 
ATOM      8  C   UNL d   1     -46.561  13.433  23.045  0.00  0.00     0.028 A 
ATOM      9  C   UNL d   1     -47.286  13.793  22.871  0.00  0.00     0.022 A 
ENDROOT
BRANCH   6  10
ATOM     10  N   UNL d   1     -48.718  13.713  22.773  0.00  0.00    -0.056 NA
ATOM     11  C   UNL d   1     -49.029  13.678  22.004  0.00  0.00     0.787 C 
ATOM     12  N   UNL d   1     -49.755  14.029  21.836  0.00  0.00     0.064 N 
ATOM     13  N   UNL d   1     -48.613  13.292  21.406  0.00  0.00     0.064 N 
ENDBRANCH   6  10
TORSDOF 1
ENDMDL
MODEL 2
REMARK VINA RESULT:      -6.2      2.468      3.511
REMARK  1 active torsions:
REMARK  status: ('A' for Active; 'I' for Inactive)
REMARK       I    between atoms: N_4  and  C_1 
REMARK    1  A    between atoms: C_9  and  N_4 
ROOT
ATOM      1  C   UNL d   1     -49.542  12.247  22.195  0.00  0.00     0.121 A 
ATOM      2  C   UNL d   1     -48.842  11.840  22.347  0.00  0.00     0.046 A 
ATOM      3  C   UNL d   1     -50.105  12.330  22.790  0.00  0.00     0.119 A 
ATOM      4  O   UNL d   1     -49.830  12.622  21.522  0.00  0.00    -0.299 OA
ATOM      5  O   UNL d   1     -50.742  12.759  22.481  0.00  0.00    -0.300 OA
ATOM      6  C   UNL d   1     -48.704  11.513  23.100  0.00  0.00     0.102 A 
ATOM      7  C   UNL d   1     -50.575  12.939  21.704  0.00  0.00     0.304 A 
ATOM      8  C   UNL d   1     -49.968  12.006  23.537  0.00  0.00     0.028 A 
ATOM      9  C   UNL d   1     -49.266  11.596  23.696  0.00  0.00     0.022 A 
ENDROOT
BRANCH   6  10
ATOM     10  N   UNL d   1     -47.993  11.101  23.252  0.00  0.00    -0.056 NA
ATOM     11  C   UNL d   1     -47.330  11.504  23.550  0.00  0.00     0.787 C 
ATOM     12  N   UNL d   1     -46.631  11.095  23.698  0.00  0.00     0.064 N 
ATOM     13  N   UNL d   1     -47.371  12.313  23.698  0.00  0.00     0.064 N 
ENDBRANCH   6  10
TORSDOF 1
ENDMDL
MODEL 3
REMARK VINA RESULT:      -6.1      1.838      2.570
REMARK  1 active torsions:
REMARK  status: ('A' for Active; 'I' for Inactive)
REMARK       I    between atoms: N_4  and  C_1 
REMARK    1  A    between atoms: C_9  and  N_4 
ROOT
ATOM      1  C   UNL d   1     -48.860  12.382  23.380  0.00  0.00     0.121 A 
ATOM      2  C   UNL d   1     -48.261  12.941  23.307  0.00  0.00     0.046 A 
ATOM      3  C   UNL d   1     -48.672  11.604  23.576  0.00  0.00     0.119 A 
ATOM      4  O   UNL d   1     -49.677  12.430  23.294  0.00  0.00    -0.299 OA
ATOM      5  O   UNL d   1     -49.378  11.172  23.610  0.00  0.00    -0.300 OA
ATOM      6  C   UNL d   1     -47.467  12.722  23.430  0.00  0.00     0.102 A 
ATOM      7  C   UNL d   1     -49.994  11.677  23.438  0.00  0.00     0.304 A 
ATOM      8  C   UNL d   1     -47.886  11.387  23.698  0.00  0.00     0.028 A 
ATOM      9  C   UNL d   1     -47.279  11.945  23.625  0.00  0.00     0.022 A 
ENDROOT
BRANCH   6  10
ATOM     10  N   UNL d   1     -46.860  13.292  23.354  0.00  0.00    -0.056 NA
ATOM     11  C   UNL d   1     -46.492  13.419  22.620  0.00  0.00     0.787 C 
ATOM     12  N   UNL d   1     -45.895  13.981  22.549  0.00  0.00     0.064 N 
ATOM     13  N   UNL d   1     -46.725  12.982  21.961  0.00  0.00     0.064 N 
ENDBRANCH   6  10
TORSDOF 1
ENDMDL
