MODEL 1
REMARK VINA RESULT:      83.0      0.000      0.000
REMARK  7 active torsions:
REMARK  status: ('A' for Active; 'I' for Inactive)
REMARK    1  A    between atoms: C_2  and  S_1 
REMARK    2  A    between atoms: N_6  and  S_1 
REMARK    3  A    between atoms: C_14  and  C_4 
REMARK    4  A    between atoms: O_15  and  C_5 
REMARK    5  A    between atoms: C_12  and  N_6 
REMARK    6  A    between atoms: C_13  and  C_12 
REMARK    7  A    between atoms: C_20  and  O_15 
ROOT
ATOM      1  C   UNL d   1      57.911  39.552  54.950  0.00  0.00     0.128 A 
ATOM      2  C   UNL d   1      58.506  40.117  55.030  0.00  0.00     0.015 A 
ATOM      3  C   UNL d   1      59.171  39.954  55.486  0.00  0.00     0.001 A 
ATOM      4  C   UNL d   1      57.984  38.822  55.327  0.00  0.00     0.112 A 
ATOM      5  C   UNL d   1      59.245  39.224  55.863  0.00  0.00     0.002 A 
ATOM      6  C   UNL d   1      58.649  38.658  55.783  0.00  0.00     0.025 A 
ATOM      7  C   UNL d   1      59.912  39.060  56.321  0.00  0.00     0.000 C 
ENDROOT
BRANCH   1   8
ATOM      8  S   UNL d   1      57.243  39.716  54.492  0.00  0.00     0.287 S 
ATOM      9  O   UNL d   1      56.899  40.108  55.134  0.00  0.00    -0.198 OA
ATOM     10  O   UNL d   1      57.586  39.324  53.850  0.00  0.00    -0.198 OA
BRANCH   8  11
ATOM     11  N   UNL d   1      56.574  39.881  54.034  0.00  0.00    -0.155 NA
BRANCH  11  12
ATOM     12  C   UNL d   1      56.508  40.605  53.644  0.00  0.00     0.131 C 
BRANCH  12  13
ATOM     13  C   UNL d   1      56.350  40.625  52.833  0.00  0.00     0.101 A 
ATOM     14  N   UNL d   1      56.194  41.344  52.469  0.00  0.00    -0.242 NA
ATOM     15  C   UNL d   1      56.036  41.373  51.662  0.00  0.00     0.099 A 
ATOM     16  C   UNL d   1      56.034  40.666  51.219  0.00  0.00     0.021 A 
ATOM     17  C   UNL d   1      56.191  39.947  51.591  0.00  0.00     0.003 A 
ATOM     18  C   UNL d   1      56.348  39.926  52.395  0.00  0.00     0.021 A 
ENDBRANCH  12  13
ENDBRANCH  11  12
ENDBRANCH   8  11
ENDBRANCH   1   8
BRANCH   4  19
ATOM     19  O   UNL d   1      57.387  38.253  55.247  0.00  0.00    -0.304 OA
BRANCH  19  20
ATOM     20  C   UNL d   1      57.547  37.539  54.865  0.00  0.00     0.123 C 
ATOM     21  C   UNL d   1      56.942  36.976  54.762  0.00  0.00     0.029 C 
ENDBRANCH  19  20
ENDBRANCH   4  19
BRANCH   3  22
ATOM     22  C   UNL d   1      59.767  40.519  55.567  0.00  0.00     0.000 C 
ATOM     23  C   UNL d   1      60.046  40.716  56.318  0.00  0.00     0.000 C 
ATOM     24  C   UNL d   1      60.082  40.887  54.898  0.00  0.00     0.000 C 
ENDBRANCH   3  22
TORSDOF 7
ENDMDL
MODEL 2
REMARK VINA RESULT:      83.3      8.180     10.187
REMARK  7 active torsions:
REMARK  status: ('A' for Active; 'I' for Inactive)
REMARK    1  A    between atoms: C_2  and  S_1 
REMARK    2  A    between atoms: N_6  and  S_1 
REMARK    3  A    between atoms: C_14  and  C_4 
REMARK    4  A    between atoms: O_15  and  C_5 
REMARK    5  A    between atoms: C_12  and  N_6 
REMARK    6  A    between atoms: C_13  and  C_12 
REMARK    7  A    between atoms: C_20  and  O_15 
ROOT
ATOM      1  C   UNL d   1      57.549  48.451  50.849  0.00  0.00     0.128 A 
ATOM      2  C   UNL d   1      57.817  47.673  50.909  0.00  0.00     0.015 A 
ATOM      3  C   UNL d   1      57.314  47.048  50.727  0.00  0.00     0.001 A 
ATOM      4  C   UNL d   1      56.775  48.600  50.605  0.00  0.00     0.112 A 
ATOM      5  C   UNL d   1      56.540  47.198  50.483  0.00  0.00     0.002 A 
ATOM      6  C   UNL d   1      56.272  47.976  50.422  0.00  0.00     0.025 A 
ATOM      7  C   UNL d   1      56.035  46.570  50.299  0.00  0.00     0.000 C 
ENDROOT
BRANCH   1   8
ATOM      8  S   UNL d   1      58.054  49.078  51.032  0.00  0.00     0.287 S 
ATOM      9  O   UNL d   1      58.569  48.840  50.430  0.00  0.00    -0.198 OA
ATOM     10  O   UNL d   1      57.540  49.317  51.634  0.00  0.00    -0.198 OA
BRANCH   8  11
ATOM     11  N   UNL d   1      58.560  49.706  51.215  0.00  0.00    -0.155 NA
BRANCH  11  12
ATOM     12  C   UNL d   1      59.091  49.639  51.843  0.00  0.00     0.131 C 
BRANCH  12  13
ATOM     13  C   UNL d   1      59.905  49.646  51.699  0.00  0.00     0.101 A 
ATOM     14  N   UNL d   1      60.180  49.697  50.927  0.00  0.00    -0.242 NA
ATOM     15  C   UNL d   1      60.989  49.705  50.775  0.00  0.00     0.099 A 
ATOM     16  C   UNL d   1      61.525  49.661  51.412  0.00  0.00     0.021 A 
ATOM     17  C   UNL d   1      61.243  49.610  52.185  0.00  0.00     0.003 A 
ATOM     18  C   UNL d   1      60.437  49.603  52.328  0.00  0.00     0.021 A 
ENDBRANCH  12  13
ENDBRANCH  11  12
ENDBRANCH   8  11
ENDBRANCH   1   8
BRANCH   4  19
ATOM     19  O   UNL d   1      56.504  49.381  50.544  0.00  0.00    -0.304 OA
BRANCH  19  20
ATOM     20  C   UNL d   1      56.050  49.610  49.894  0.00  0.00     0.123 C 
ATOM     21  C   UNL d   1      56.055  49.151  49.199  0.00  0.00     0.029 C 
ENDBRANCH  19  20
ENDBRANCH   4  19
BRANCH   3  22
ATOM     22  C   UNL d   1      57.582  46.270  50.787  0.00  0.00     0.000 C 
ATOM     23  C   UNL d   1      58.381  46.121  50.935  0.00  0.00     0.000 C 
ATOM     24  C   UNL d   1      57.053  45.642  50.700  0.00  0.00     0.000 C 
ENDBRANCH   3  22
TORSDOF 7
ENDMDL
MODEL 3
REMARK VINA RESULT:      84.5      7.743      9.244
REMARK  7 active torsions:
REMARK  status: ('A' for Active; 'I' for Inactive)
REMARK    1  A    between atoms: C_2  and  S_1 
REMARK    2  A    between atoms: N_6  and  S_1 
REMARK    3  A    between atoms: C_14  and  C_4 
REMARK    4  A    between atoms: O_15  and  C_5 
REMARK    5  A    between atoms: C_12  and  N_6 
REMARK    6  A    between atoms: C_13  and  C_12 
REMARK    7  A    between atoms: C_20  and  O_15 
ROOT
ATOM      1  C   UNL d   1      60.905  47.435  51.049  0.00  0.00     0.128 A 
ATOM      2  C   UNL d   1      60.438  48.030  51.380  0.00  0.00     0.015 A 
ATOM      3  C   UNL d   1      60.440  48.784  51.054  0.00  0.00     0.001 A 
ATOM      4  C   UNL d   1      61.373  47.600  50.390  0.00  0.00     0.112 A 
ATOM      5  C   UNL d   1      60.909  48.949  50.395  0.00  0.00     0.002 A 
ATOM      6  C   UNL d   1      61.375  48.354  50.064  0.00  0.00     0.025 A 
ATOM      7  C   UNL d   1      60.911  49.708  50.067  0.00  0.00     0.000 C 
ENDROOT
BRANCH   1   8
ATOM      8  S   UNL d   1      60.903  46.676  51.376  0.00  0.00     0.287 S 
ATOM      9  O   UNL d   1      61.562  46.873  51.836  0.00  0.00    -0.198 OA
ATOM     10  O   UNL d   1      60.244  46.480  50.917  0.00  0.00    -0.198 OA
BRANCH   8  11
ATOM     11  N   UNL d   1      60.901  45.917  51.704  0.00  0.00    -0.155 NA
BRANCH  11  12
ATOM     12  C   UNL d   1      60.638  45.275  51.258  0.00  0.00     0.131 C 
BRANCH  12  13
ATOM     13  C   UNL d   1      60.986  44.531  51.357  0.00  0.00     0.101 A 
ATOM     14  N   UNL d   1      61.293  44.138  50.706  0.00  0.00    -0.242 NA
ATOM     15  C   UNL d   1      61.641  43.397  50.797  0.00  0.00     0.099 A 
ATOM     16  C   UNL d   1      61.678  43.052  51.555  0.00  0.00     0.021 A 
ATOM     17  C   UNL d   1      61.367  43.453  52.205  0.00  0.00     0.003 A 
ATOM     18  C   UNL d   1      61.022  44.189  52.107  0.00  0.00     0.021 A 
ENDBRANCH  12  13
ENDBRANCH  11  12
ENDBRANCH   8  11
ENDBRANCH   1   8
BRANCH   4  19
ATOM     19  O   UNL d   1      61.843  47.004  50.056  0.00  0.00    -0.304 OA
BRANCH  19  20
ATOM     20  C   UNL d   1      62.125  47.085  49.285  0.00  0.00     0.123 C 
ATOM     21  C   UNL d   1      62.300  46.410  48.831  0.00  0.00     0.029 C 
ENDBRANCH  19  20
ENDBRANCH   4  19
BRANCH   3  22
ATOM     22  C   UNL d   1      59.974  49.379  51.385  0.00  0.00     0.000 C 
ATOM     23  C   UNL d   1      60.130  49.645  52.150  0.00  0.00     0.000 C 
ATOM     24  C   UNL d   1      59.352  49.707  50.951  0.00  0.00     0.000 C 
ENDBRANCH   3  22
TORSDOF 7
ENDMDL
