MODEL 1
REMARK VINA RESULT:      42.6      0.000      0.000
REMARK  3 active torsions:
REMARK  status: ('A' for Active; 'I' for Inactive)
REMARK    1  A    between atoms: C_6  and  C_1 
REMARK    2  A    between atoms: C_7  and  C_3 
REMARK    3  A    between atoms: C_11  and  C_7 
ROOT
ATOM      1  C   UNL d   1     -47.850  32.611  33.968  0.00  0.00     0.085 A 
ATOM      2  C   UNL d   1     -48.467  32.070  33.930  0.00  0.00     0.137 A 
ATOM      3  C   UNL d   1     -47.572  31.609  34.794  0.00  0.00     0.031 A 
ATOM      4  S   UNL d   1     -48.288  31.451  34.446  0.00  0.00    -0.066 SA
ATOM      5  C   UNL d   1     -47.289  32.330  34.504  0.00  0.00     0.013 A 
ATOM      6  N   UNL d   1     -49.141  32.161  33.447  0.00  0.00    -0.141 N 
ATOM      7  C   UNL d   1     -46.603  32.682  34.706  0.00  0.00     0.001 C 
ENDROOT
BRANCH   3   8
ATOM      8  C   UNL d   1     -47.123  31.188  35.350  0.00  0.00     0.006 C 
BRANCH   8   9
ATOM      9  C   UNL d   1     -47.322  30.419  35.560  0.00  0.00     0.001 A 
ATOM     10  C   UNL d   1     -47.304  29.826  34.998  0.00  0.00     0.000 A 
ATOM     11  C   UNL d   1     -47.508  29.045  35.218  0.00  0.00     0.000 A 
ATOM     12  C   UNL d   1     -47.721  28.894  35.990  0.00  0.00     0.000 A 
ATOM     13  C   UNL d   1     -47.740  29.494  36.563  0.00  0.00     0.000 A 
ATOM     14  C   UNL d   1     -47.542  30.241  36.341  0.00  0.00     0.000 A 
ENDBRANCH   8   9
ENDBRANCH   3   8
BRANCH   1  15
ATOM     15  C   UNL d   1     -47.816  33.321  33.527  0.00  0.00     0.299 C 
ATOM     16  O   UNL d   1     -47.105  33.658  33.306  0.00  0.00    -0.264 OA
ATOM     17  N   UNL d   1     -48.552  33.688  33.313  0.00  0.00    -0.102 N 
ENDBRANCH   1  15
TORSDOF 3
ENDMDL
MODEL 2
REMARK VINA RESULT:      44.5      5.610      6.720
REMARK  3 active torsions:
REMARK  status: ('A' for Active; 'I' for Inactive)
REMARK    1  A    between atoms: C_6  and  C_1 
REMARK    2  A    between atoms: C_7  and  C_3 
REMARK    3  A    between atoms: C_11  and  C_7 
ROOT
ATOM      1  C   UNL d   1     -50.246  27.180  34.158  0.00  0.00     0.085 A 
ATOM      2  C   UNL d   1     -49.866  26.456  34.234  0.00  0.00     0.137 A 
ATOM      3  C   UNL d   1     -51.044  26.241  33.664  0.00  0.00     0.031 A 
ATOM      4  S   UNL d   1     -50.367  25.877  33.926  0.00  0.00    -0.066 SA
ATOM      5  C   UNL d   1     -50.980  27.054  33.804  0.00  0.00     0.013 A 
ATOM      6  N   UNL d   1     -49.108  26.357  34.569  0.00  0.00    -0.141 N 
ATOM      7  C   UNL d   1     -51.527  27.606  33.627  0.00  0.00     0.001 C 
ENDROOT
BRANCH   3   8
ATOM      8  C   UNL d   1     -51.731  25.941  33.309  0.00  0.00     0.006 C 
BRANCH   8   9
ATOM      9  C   UNL d   1     -51.891  25.135  33.313  0.00  0.00     0.001 A 
ATOM     10  C   UNL d   1     -52.665  24.874  33.323  0.00  0.00     0.000 A 
ATOM     11  C   UNL d   1     -52.822  24.051  33.327  0.00  0.00     0.000 A 
ATOM     12  C   UNL d   1     -52.195  23.529  33.321  0.00  0.00     0.000 A 
ATOM     13  C   UNL d   1     -51.408  23.792  33.311  0.00  0.00     0.000 A 
ATOM     14  C   UNL d   1     -51.269  24.584  33.307  0.00  0.00     0.000 A 
ENDBRANCH   8   9
ENDBRANCH   3   8
BRANCH   1  15
ATOM     15  C   UNL d   1     -49.924  27.912  34.405  0.00  0.00     0.299 C 
ATOM     16  O   UNL d   1     -49.986  28.172  35.177  0.00  0.00    -0.264 OA
ATOM     17  N   UNL d   1     -49.523  28.383  33.822  0.00  0.00    -0.102 N 
ENDBRANCH   1  15
TORSDOF 3
ENDMDL
MODEL 3
REMARK VINA RESULT:      45.3      1.953      3.600
REMARK  3 active torsions:
REMARK  status: ('A' for Active; 'I' for Inactive)
REMARK    1  A    between atoms: C_6  and  C_1 
REMARK    2  A    between atoms: C_7  and  C_3 
REMARK    3  A    between atoms: C_11  and  C_7 
ROOT
ATOM      1  C   UNL d   1     -47.665  30.048  35.497  0.00  0.00     0.085 A 
ATOM      2  C   UNL d   1     -48.136  30.091  34.826  0.00  0.00     0.137 A 
ATOM      3  C   UNL d   1     -47.513  31.254  34.962  0.00  0.00     0.031 A 
ATOM      4  S   UNL d   1     -48.038  30.842  34.499  0.00  0.00    -0.066 SA
ATOM      5  C   UNL d   1     -47.273  30.769  35.588  0.00  0.00     0.013 A 
ATOM      6  N   UNL d   1     -48.618  29.468  34.552  0.00  0.00    -0.141 N 
ATOM      7  C   UNL d   1     -46.762  30.966  36.165  0.00  0.00     0.001 C 
ENDROOT
BRANCH   3   8
ATOM      8  C   UNL d   1     -47.210  32.023  34.902  0.00  0.00     0.006 C 
BRANCH   8   9
ATOM      9  C   UNL d   1     -47.526  32.563  34.368  0.00  0.00     0.001 A 
ATOM     10  C   UNL d   1     -47.035  32.955  33.847  0.00  0.00     0.000 A 
ATOM     11  C   UNL d   1     -47.364  33.503  33.306  0.00  0.00     0.000 A 
ATOM     12  C   UNL d   1     -48.169  33.632  33.313  0.00  0.00     0.000 A 
ATOM     13  C   UNL d   1     -48.670  33.234  33.842  0.00  0.00     0.000 A 
ATOM     14  C   UNL d   1     -48.343  32.710  34.358  0.00  0.00     0.000 A 
ENDBRANCH   8   9
ENDBRANCH   3   8
BRANCH   1  15
ATOM     15  C   UNL d   1     -47.605  29.376  35.992  0.00  0.00     0.299 C 
ATOM     16  O   UNL d   1     -47.628  29.437  36.807  0.00  0.00    -0.264 OA
ATOM     17  N   UNL d   1     -47.520  28.618  35.618  0.00  0.00    -0.102 N 
ENDBRANCH   1  15
TORSDOF 3
ENDMDL
