MODEL 1
REMARK VINA RESULT:      54.9      0.000      0.000
REMARK  6 active torsions:
REMARK  status: ('A' for Active; 'I' for Inactive)
REMARK    1  A    between atoms: C_22  and  C_3 
REMARK    2  A    between atoms: S_17  and  C_5 
REMARK    3  A    between atoms: C_11  and  C_16 
REMARK       I    between atoms: N_14  and  C_11 
REMARK    4  A    between atoms: C_19  and  N_14 
REMARK    5  A    between atoms: C_16  and  C_20 
REMARK    6  A    between atoms: C_20  and  S_17 
ROOT
ATOM      1  C   UNL d   1     -50.200  25.161  33.306  0.00  0.00     0.092 A 
ATOM      2  C   UNL d   1     -51.545  24.691  33.306  0.00  0.00     0.057 A 
ATOM      3  C   UNL d   1     -50.736  24.536  33.306  0.00  0.00     0.016 A 
ATOM      4  N   UNL d   1     -51.280  26.094  33.306  0.00  0.00    -0.239 NA
ATOM      5  C   UNL d   1     -50.472  25.940  33.306  0.00  0.00     0.120 A 
ATOM      6  C   UNL d   1     -51.817  25.470  33.306  0.00  0.00     0.081 A 
ATOM      7  C   UNL d   1     -52.081  24.066  33.306  0.00  0.00     0.193 A 
ATOM      8  C   UNL d   1     -49.378  25.006  33.306  0.00  0.00     0.103 C 
ATOM      9  N   UNL d   1     -48.561  24.841  33.306  0.00  0.00    -0.191 NA
ATOM     10  C   UNL d   1     -53.170  24.997  33.306  0.00  0.00     0.042 A 
ATOM     11  C   UNL d   1     -52.898  24.218  33.306  0.00  0.00     0.019 A 
ATOM     12  C   UNL d   1     -52.625  25.624  33.306  0.00  0.00    -0.003 A 
ATOM     13  O   UNL d   1     -51.809  23.288  33.306  0.00  0.00    -0.287 OA
ATOM     14  C   UNL d   1     -53.692  25.644  33.306  0.00  0.00     0.009 C 
ATOM     15  C   UNL d   1     -53.714  24.379  33.306  0.00  0.00     0.009 C 
ENDROOT
BRANCH   3  16
ATOM     16  C   UNL d   1     -50.464  23.758  33.306  0.00  0.00     0.001 C 
ATOM     17  C   UNL d   1     -50.788  23.208  33.827  0.00  0.00     0.000 C 
ENDBRANCH   3  16
BRANCH   5  18
ATOM     18  S   UNL d   1     -49.924  26.568  33.306  0.00  0.00    -0.067 SA
BRANCH  18  19
ATOM     19  C   UNL d   1     -49.997  27.182  33.853  0.00  0.00     0.042 C 
BRANCH  19  20
ATOM     20  C   UNL d   1     -49.446  27.256  34.465  0.00  0.00     0.070 C 
BRANCH  20  21
ATOM     21  C   UNL d   1     -49.032  27.976  34.563  0.00  0.00     0.280 C 
ATOM     22  N   UNL d   1     -48.638  28.126  35.274  0.00  0.00    -0.208 NA
ATOM     23  O   UNL d   1     -49.022  28.528  33.950  0.00  0.00    -0.265 OA
BRANCH  22  24
ATOM     24  C   UNL d   1     -48.224  28.847  35.373  0.00  0.00     0.085 A 
ATOM     25  C   UNL d   1     -47.428  28.831  35.579  0.00  0.00     0.021 A 
ATOM     26  C   UNL d   1     -47.015  29.536  35.678  0.00  0.00     0.031 A 
ATOM     27  C   UNL d   1     -47.399  30.258  35.569  0.00  0.00     0.140 A 
ATOM     28  C   UNL d   1     -48.203  30.271  35.361  0.00  0.00     0.031 A 
ATOM     29  F   UNL d   1     -46.989  30.976  35.667  0.00  0.00    -0.204 F 
ATOM     30  C   UNL d   1     -48.615  29.565  35.263  0.00  0.00     0.021 A 
ENDBRANCH  22  24
ENDBRANCH  20  21
ENDBRANCH  19  20
ENDBRANCH  18  19
ENDBRANCH   5  18
TORSDOF 6
ENDMDL
