MODEL 1
REMARK VINA RESULT:      -9.4      0.000      0.000
REMARK  1 active torsions:
REMARK  status: ('A' for Active; 'I' for Inactive)
REMARK    1  A    between atoms: C_4  and  C_1 
ROOT
ATOM      1  C   UNL d   1      53.838  31.914  53.975  0.00  0.00     0.112 A 
ATOM      2  N   UNL d   1      53.735  32.173  54.758  0.00  0.00    -0.238 NA
ATOM      3  S   UNL d   1      54.415  32.395  53.615  0.00  0.00    -0.066 SA
ATOM      4  C   UNL d   1      54.248  32.814  54.883  0.00  0.00     0.088 A 
ATOM      5  C   UNL d   1      54.667  32.950  54.178  0.00  0.00     0.049 A 
ATOM      6  C   UNL d   1      54.386  33.287  55.544  0.00  0.00     0.020 A 
ATOM      7  C   UNL d   1      55.223  33.560  54.139  0.00  0.00     0.008 A 
ATOM      8  C   UNL d   1      55.360  34.033  54.801  0.00  0.00     0.001 A 
ATOM      9  C   UNL d   1      54.940  33.896  55.505  0.00  0.00     0.002 A 
ENDROOT
BRANCH   1  10
ATOM     10  C   UNL d   1      53.439  31.287  53.611  0.00  0.00     0.043 A 
ATOM     11  C   UNL d   1      52.800  31.445  53.107  0.00  0.00     0.105 A 
ATOM     12  N   UNL d   1      52.566  32.225  52.971  0.00  0.00    -0.148 N 
ATOM     13  C   UNL d   1      52.401  30.819  52.744  0.00  0.00     0.021 A 
ATOM     14  C   UNL d   1      52.636  30.040  52.880  0.00  0.00     0.002 A 
ATOM     15  C   UNL d   1      53.278  29.894  53.388  0.00  0.00     0.000 A 
ATOM     16  C   UNL d   1      53.673  30.508  53.747  0.00  0.00     0.004 A 
ENDBRANCH   1  10
TORSDOF 1
ENDMDL
MODEL 2
REMARK VINA RESULT:      -9.1      2.260      3.649
REMARK  1 active torsions:
REMARK  status: ('A' for Active; 'I' for Inactive)
REMARK    1  A    between atoms: C_4  and  C_1 
ROOT
ATOM      1  C   UNL d   1      52.762  33.713  53.773  0.00  0.00     0.112 A 
ATOM      2  N   UNL d   1      51.987  33.502  53.988  0.00  0.00    -0.238 NA
ATOM      3  S   UNL d   1      52.736  34.078  53.024  0.00  0.00    -0.066 SA
ATOM      4  C   UNL d   1      51.481  33.737  53.372  0.00  0.00     0.088 A 
ATOM      5  C   UNL d   1      51.942  34.091  52.779  0.00  0.00     0.049 A 
ATOM      6  C   UNL d   1      50.664  33.673  53.277  0.00  0.00     0.020 A 
ATOM      7  C   UNL d   1      51.584  34.380  52.093  0.00  0.00     0.008 A 
ATOM      8  C   UNL d   1      50.767  34.316  51.999  0.00  0.00     0.001 A 
ATOM      9  C   UNL d   1      50.306  33.961  52.593  0.00  0.00     0.002 A 
ENDROOT
BRANCH   1  10
ATOM     10  C   UNL d   1      53.445  33.584  54.222  0.00  0.00     0.043 A 
ATOM     11  C   UNL d   1      53.851  32.865  54.155  0.00  0.00     0.105 A 
ATOM     12  N   UNL d   1      53.572  32.281  53.642  0.00  0.00    -0.148 N 
ATOM     13  C   UNL d   1      54.533  32.736  54.603  0.00  0.00     0.021 A 
ATOM     14  C   UNL d   1      54.812  33.320  55.115  0.00  0.00     0.002 A 
ATOM     15  C   UNL d   1      54.396  34.038  55.174  0.00  0.00     0.000 A 
ATOM     16  C   UNL d   1      53.724  34.168  54.734  0.00  0.00     0.004 A 
ENDBRANCH   1  10
TORSDOF 1
ENDMDL
MODEL 3
REMARK VINA RESULT:      -9.0      2.234      2.669
REMARK  1 active torsions:
REMARK  status: ('A' for Active; 'I' for Inactive)
REMARK    1  A    between atoms: C_4  and  C_1 
ROOT
ATOM      1  C   UNL d   1      52.557  33.677  53.646  0.00  0.00     0.112 A 
ATOM      2  N   UNL d   1      52.823  34.077  54.324  0.00  0.00    -0.238 NA
ATOM      3  S   UNL d   1      53.153  33.144  53.407  0.00  0.00    -0.066 SA
ATOM      4  C   UNL d   1      53.582  33.792  54.505  0.00  0.00     0.088 A 
ATOM      5  C   UNL d   1      53.785  33.217  53.941  0.00  0.00     0.049 A 
ATOM      6  C   UNL d   1      54.110  33.982  55.110  0.00  0.00     0.020 A 
ATOM      7  C   UNL d   1      54.515  32.835  53.983  0.00  0.00     0.008 A 
ATOM      8  C   UNL d   1      55.044  33.026  54.588  0.00  0.00     0.001 A 
ATOM      9  C   UNL d   1      54.841  33.601  55.152  0.00  0.00     0.002 A 
ENDROOT
BRANCH   1  10
ATOM     10  C   UNL d   1      51.830  33.785  53.268  0.00  0.00     0.043 A 
ATOM     11  C   UNL d   1      51.767  34.326  52.644  0.00  0.00     0.105 A 
ATOM     12  N   UNL d   1      52.430  34.754  52.403  0.00  0.00    -0.148 N 
ATOM     13  C   UNL d   1      51.040  34.434  52.267  0.00  0.00     0.021 A 
ATOM     14  C   UNL d   1      50.377  34.006  52.509  0.00  0.00     0.002 A 
ATOM     15  C   UNL d   1      50.452  33.465  53.136  0.00  0.00     0.000 A 
ATOM     16  C   UNL d   1      51.167  33.356  53.510  0.00  0.00     0.004 A 
ENDBRANCH   1  10
TORSDOF 1
ENDMDL
MODEL 4
REMARK VINA RESULT:      -8.9      1.605      3.506
REMARK  1 active torsions:
REMARK  status: ('A' for Active; 'I' for Inactive)
REMARK    1  A    between atoms: C_4  and  C_1 
ROOT
ATOM      1  C   UNL d   1      53.109  32.844  53.608  0.00  0.00     0.112 A 
ATOM      2  N   UNL d   1      53.734  32.345  53.837  0.00  0.00    -0.238 NA
ATOM      3  S   UNL d   1      52.536  32.381  53.217  0.00  0.00    -0.066 SA
ATOM      4  C   UNL d   1      53.547  31.575  53.588  0.00  0.00     0.088 A 
ATOM      5  C   UNL d   1      52.809  31.597  53.207  0.00  0.00     0.049 A 
ATOM      6  C   UNL d   1      53.953  30.860  53.661  0.00  0.00     0.020 A 
ATOM      7  C   UNL d   1      52.481  30.905  52.900  0.00  0.00     0.008 A 
ATOM      8  C   UNL d   1      52.887  30.191  52.973  0.00  0.00     0.001 A 
ATOM      9  C   UNL d   1      53.625  30.168  53.354  0.00  0.00     0.002 A 
ENDROOT
BRANCH   1  10
ATOM     10  C   UNL d   1      53.060  33.658  53.741  0.00  0.00     0.043 A 
ATOM     11  C   UNL d   1      53.268  33.966  54.482  0.00  0.00     0.105 A 
ATOM     12  N   UNL d   1      53.522  33.459  55.082  0.00  0.00    -0.148 N 
ATOM     13  C   UNL d   1      53.219  34.780  54.616  0.00  0.00     0.021 A 
ATOM     14  C   UNL d   1      52.965  35.287  54.016  0.00  0.00     0.002 A 
ATOM     15  C   UNL d   1      52.760  34.967  53.277  0.00  0.00     0.000 A 
ATOM     16  C   UNL d   1      52.806  34.165  53.141  0.00  0.00     0.004 A 
ENDBRANCH   1  10
TORSDOF 1
ENDMDL
MODEL 5
REMARK VINA RESULT:      -8.7      1.509      1.725
REMARK  1 active torsions:
REMARK  status: ('A' for Active; 'I' for Inactive)
REMARK    1  A    between atoms: C_4  and  C_1 
ROOT
ATOM      1  C   UNL d   1      53.183  32.602  53.622  0.00  0.00     0.112 A 
ATOM      2  N   UNL d   1      52.966  33.206  53.093  0.00  0.00    -0.238 NA
ATOM      3  S   UNL d   1      53.353  32.949  54.360  0.00  0.00    -0.066 SA
ATOM      4  C   UNL d   1      53.002  33.927  53.504  0.00  0.00     0.088 A 
ATOM      5  C   UNL d   1      53.240  33.769  54.285  0.00  0.00     0.049 A 
ATOM      6  C   UNL d   1      52.849  34.702  53.268  0.00  0.00     0.020 A 
ATOM      7  C   UNL d   1      53.324  34.387  54.825  0.00  0.00     0.008 A 
ATOM      8  C   UNL d   1      53.170  35.162  54.588  0.00  0.00     0.001 A 
ATOM      9  C   UNL d   1      52.932  35.320  53.808  0.00  0.00     0.002 A 
ENDROOT
BRANCH   1  10
ATOM     10  C   UNL d   1      53.225  31.794  53.450  0.00  0.00     0.043 A 
ATOM     11  C   UNL d   1      52.570  31.411  53.115  0.00  0.00     0.105 A 
ATOM     12  N   UNL d   1      51.882  31.837  52.955  0.00  0.00    -0.148 N 
ATOM     13  C   UNL d   1      52.612  30.604  52.943  0.00  0.00     0.021 A 
ATOM     14  C   UNL d   1      53.301  30.178  53.103  0.00  0.00     0.002 A 
ATOM     15  C   UNL d   1      53.951  30.573  53.438  0.00  0.00     0.000 A 
ATOM     16  C   UNL d   1      53.914  31.368  53.609  0.00  0.00     0.004 A 
ENDBRANCH   1  10
TORSDOF 1
ENDMDL
