MODEL 1
REMARK VINA RESULT:      29.9      0.000      0.000
REMARK  5 active torsions:
REMARK  status: ('A' for Active; 'I' for Inactive)
REMARK    1  A    between atoms: N_7  and  C_1 
REMARK    2  A    between atoms: C_14  and  N_4 
REMARK    3  A    between atoms: C_6  and  N_7 
REMARK    4  A    between atoms: C_13  and  N_8 
REMARK    5  A    between atoms: C_17  and  C_13 
ROOT
ATOM      1  C   UNL d   1      46.242 -16.594  43.882  0.00  0.00     0.159 A 
ATOM      2  C   UNL d   1      46.327 -17.362  44.162  0.00  0.00     0.298 A 
ATOM      3  N   UNL d   1      46.273 -17.413  42.842  0.00  0.00    -0.238 N 
ATOM      4  N   UNL d   1      46.347 -17.869  43.516  0.00  0.00    -0.209 N 
ATOM      5  C   UNL d   1      46.208 -16.626  43.063  0.00  0.00     0.104 A 
ATOM      6  O   UNL d   1      46.384 -17.585  44.953  0.00  0.00    -0.263 OA
ATOM      7  C   UNL d   1      46.265 -17.694  42.066  0.00  0.00     0.120 C 
ATOM      8  C   UNL d   1      46.124 -15.985  42.558  0.00  0.00     0.022 C 
ENDROOT
BRANCH   1   9
ATOM      9  N   UNL d   1      46.198 -15.917  44.344  0.00  0.00    -0.216 NA
BRANCH   9  10
ATOM     10  C   UNL d   1      45.464 -15.584  44.520  0.00  0.00     0.180 A 
ATOM     11  N   UNL d   1      45.306 -14.785  44.633  0.00  0.00    -0.285 N 
ATOM     12  C   UNL d   1      44.504 -14.708  44.796  0.00  0.00     0.072 A 
ATOM     13  C   UNL d   1      44.110 -13.997  44.945  0.00  0.00     0.020 C 
ATOM     14  C   UNL d   1      44.166 -15.452  44.784  0.00  0.00     0.056 A 
ATOM     15  S   UNL d   1      44.756 -16.001  44.613  0.00  0.00    -0.048 SA
BRANCH  11  16
ATOM     16  C   UNL d   1      45.848 -14.173  44.592  0.00  0.00     0.082 C 
BRANCH  16  17
ATOM     17  C   UNL d   1      45.715 -13.521  44.092  0.00  0.00     0.018 A 
ATOM     18  C   UNL d   1      45.347 -13.528  43.349  0.00  0.00     0.002 A 
ATOM     19  C   UNL d   1      45.255 -12.816  42.913  0.00  0.00     0.000 A 
ATOM     20  C   UNL d   1      45.537 -12.097  43.233  0.00  0.00     0.000 A 
ATOM     21  C   UNL d   1      45.909 -12.089  43.985  0.00  0.00     0.000 A 
ATOM     22  C   UNL d   1      45.999 -12.800  44.416  0.00  0.00     0.002 A 
ENDBRANCH  16  17
ENDBRANCH  11  16
ENDBRANCH   9  10
ENDBRANCH   1   9
BRANCH   4  23
ATOM     23  C   UNL d   1      46.426 -18.688  43.544  0.00  0.00     0.085 A 
ATOM     24  C   UNL d   1      46.553 -19.061  44.261  0.00  0.00     0.019 A 
ATOM     25  C   UNL d   1      46.632 -19.878  44.287  0.00  0.00     0.002 A 
ATOM     26  C   UNL d   1      46.585 -20.329  43.599  0.00  0.00     0.000 A 
ATOM     27  C   UNL d   1      46.456 -19.950  42.876  0.00  0.00     0.002 A 
ATOM     28  C   UNL d   1      46.377 -19.130  42.848  0.00  0.00     0.019 A 
ENDBRANCH   4  23
TORSDOF 5
ENDMDL
MODEL 2
REMARK VINA RESULT:      30.3      1.017      5.095
REMARK  5 active torsions:
REMARK  status: ('A' for Active; 'I' for Inactive)
REMARK    1  A    between atoms: N_7  and  C_1 
REMARK    2  A    between atoms: C_14  and  N_4 
REMARK    3  A    between atoms: C_6  and  N_7 
REMARK    4  A    between atoms: C_13  and  N_8 
REMARK    5  A    between atoms: C_17  and  C_13 
ROOT
ATOM      1  C   UNL d   1      45.882 -15.853  44.060  0.00  0.00     0.159 A 
ATOM      2  C   UNL d   1      46.021 -15.092  43.783  0.00  0.00     0.298 A 
ATOM      3  N   UNL d   1      44.939 -15.058  44.543  0.00  0.00    -0.238 N 
ATOM      4  N   UNL d   1      45.436 -14.600  44.083  0.00  0.00    -0.209 N 
ATOM      5  C   UNL d   1      45.211 -15.832  44.532  0.00  0.00     0.104 A 
ATOM      6  O   UNL d   1      46.640 -14.862  43.290  0.00  0.00    -0.263 OA
ATOM      7  C   UNL d   1      44.274 -14.791  44.952  0.00  0.00     0.120 C 
ATOM      8  C   UNL d   1      44.874 -16.471  44.921  0.00  0.00     0.022 C 
ENDROOT
BRANCH   1   9
ATOM      9  N   UNL d   1      46.337 -16.516  43.893  0.00  0.00    -0.216 NA
BRANCH   9  10
ATOM     10  C   UNL d   1      46.111 -17.255  44.181  0.00  0.00     0.180 A 
ATOM     11  N   UNL d   1      46.254 -17.981  43.824  0.00  0.00    -0.285 N 
ATOM     12  C   UNL d   1      45.931 -18.565  44.304  0.00  0.00     0.072 A 
ATOM     13  C   UNL d   1      45.950 -19.377  44.152  0.00  0.00     0.020 C 
ATOM     14  C   UNL d   1      45.591 -18.206  44.954  0.00  0.00     0.056 A 
ATOM     15  S   UNL d   1      45.699 -17.392  44.885  0.00  0.00    -0.048 SA
BRANCH  11  16
ATOM     16  C   UNL d   1      46.646 -18.104  43.116  0.00  0.00     0.082 C 
BRANCH  16  17
ATOM     17  C   UNL d   1      46.427 -18.731  42.613  0.00  0.00     0.018 A 
ATOM     18  C   UNL d   1      46.310 -19.524  42.825  0.00  0.00     0.002 A 
ATOM     19  C   UNL d   1      46.089 -20.091  42.246  0.00  0.00     0.000 A 
ATOM     20  C   UNL d   1      45.987 -19.851  41.452  0.00  0.00     0.000 A 
ATOM     21  C   UNL d   1      46.106 -19.049  41.236  0.00  0.00     0.000 A 
ATOM     22  C   UNL d   1      46.326 -18.487  41.815  0.00  0.00     0.002 A 
ENDBRANCH  16  17
ENDBRANCH  11  16
ENDBRANCH   9  10
ENDBRANCH   1   9
BRANCH   4  23
ATOM     23  C   UNL d   1      45.363 -13.791  43.945  0.00  0.00     0.085 A 
ATOM     24  C   UNL d   1      44.902 -13.523  43.325  0.00  0.00     0.019 A 
ATOM     25  C   UNL d   1      44.831 -12.717  43.188  0.00  0.00     0.002 A 
ATOM     26  C   UNL d   1      45.219 -12.172  43.668  0.00  0.00     0.000 A 
ATOM     27  C   UNL d   1      45.685 -12.444  44.295  0.00  0.00     0.002 A 
ATOM     28  C   UNL d   1      45.757 -13.254  44.433  0.00  0.00     0.019 A 
ENDBRANCH   4  23
TORSDOF 5
ENDMDL
