MODEL 1
REMARK VINA RESULT:      -7.6      0.000      0.000
REMARK  6 active torsions:
REMARK  status: ('A' for Active; 'I' for Inactive)
REMARK    1  A    between atoms: C_14  and  N_1 
REMARK    2  A    between atoms: S_12  and  C_3 
REMARK    3  A    between atoms: C_5  and  N_11 
REMARK    4  A    between atoms: C_15  and  C_8 
REMARK       I    between atoms: N_11  and  C_13 
REMARK    5  A    between atoms: C_17  and  S_12 
REMARK    6  A    between atoms: C_13  and  C_17 
ROOT
ATOM      1  N   UNL d   1     -46.546  13.662  23.032  0.00  0.00    -0.181 NA
ATOM      2  C   UNL d   1     -47.171  13.780  22.491  0.00  0.00     0.288 C 
ATOM      3  O   UNL d   1     -47.220  13.314  21.825  0.00  0.00    -0.265 OA
ENDROOT
BRANCH   2   4
ATOM      4  C   UNL d   1     -47.727  14.368  22.641  0.00  0.00     0.101 C 
BRANCH   4   5
ATOM      5  S   UNL d   1     -48.511  14.154  22.773  0.00  0.00    -0.041 SA
BRANCH   5   6
ATOM      6  C   UNL d   1     -49.087  14.736  22.796  0.00  0.00     0.219 A 
ATOM      7  N   UNL d   1     -49.885  14.535  22.869  0.00  0.00    -0.186 N 
ATOM      8  N   UNL d   1     -50.325  15.225  22.878  0.00  0.00    -0.038 NA
ATOM      9  N   UNL d   1     -49.814  15.855  22.811  0.00  0.00    -0.022 NA
ATOM     10  N   UNL d   1     -49.040  15.561  22.760  0.00  0.00    -0.101 NA
BRANCH   7  11
ATOM     11  C   UNL d   1     -50.218  13.787  22.926  0.00  0.00     0.087 A 
ATOM     12  C   UNL d   1     -50.556  13.430  22.253  0.00  0.00     0.019 A 
ATOM     13  C   UNL d   1     -50.889  12.683  22.310  0.00  0.00     0.002 A 
ATOM     14  C   UNL d   1     -50.894  12.279  23.027  0.00  0.00     0.000 A 
ATOM     15  C   UNL d   1     -50.558  12.633  23.698  0.00  0.00     0.002 A 
ATOM     16  C   UNL d   1     -50.220  13.388  23.649  0.00  0.00     0.019 A 
ENDBRANCH   7  11
ENDBRANCH   5   6
ENDBRANCH   4   5
ENDBRANCH   2   4
BRANCH   1  17
ATOM     17  C   UNL d   1     -45.977  13.069  22.890  0.00  0.00     0.216 A 
ATOM     18  N   UNL d   1     -45.812  12.414  23.366  0.00  0.00    -0.200 NA
ATOM     19  C   UNL d   1     -45.213  11.987  23.004  0.00  0.00     0.172 A 
ATOM     20  N   UNL d   1     -45.007  12.370  22.312  0.00  0.00    -0.187 NA
ATOM     21  S   UNL d   1     -45.488  13.047  22.246  0.00  0.00     0.054 SA
BRANCH  19  22
ATOM     22  C   UNL d   1     -44.822  11.289  23.219  0.00  0.00     0.036 A 
ATOM     23  C   UNL d   1     -44.005  11.246  23.166  0.00  0.00     0.003 A 
ATOM     24  C   UNL d   1     -43.611  10.546  23.381  0.00  0.00     0.000 A 
ATOM     25  C   UNL d   1     -44.038   9.902  23.645  0.00  0.00     0.000 A 
ATOM     26  C   UNL d   1     -44.869   9.949  23.698  0.00  0.00     0.000 A 
ATOM     27  C   UNL d   1     -45.263  10.637  23.487  0.00  0.00     0.003 A 
ENDBRANCH  19  22
ENDBRANCH   1  17
TORSDOF 6
ENDMDL
MODEL 2
REMARK VINA RESULT:      -6.5      1.773      2.385
REMARK  6 active torsions:
REMARK  status: ('A' for Active; 'I' for Inactive)
REMARK    1  A    between atoms: C_14  and  N_1 
REMARK    2  A    between atoms: S_12  and  C_3 
REMARK    3  A    between atoms: C_5  and  N_11 
REMARK    4  A    between atoms: C_15  and  C_8 
REMARK       I    between atoms: N_11  and  C_13 
REMARK    5  A    between atoms: C_17  and  S_12 
REMARK    6  A    between atoms: C_13  and  C_17 
ROOT
ATOM      1  N   UNL d   1     -46.985  12.644  23.193  0.00  0.00    -0.181 NA
ATOM      2  C   UNL d   1     -47.678  12.504  22.747  0.00  0.00     0.288 C 
ATOM      3  O   UNL d   1     -47.673  12.634  21.944  0.00  0.00    -0.265 OA
ENDROOT
BRANCH   2   4
ATOM      4  C   UNL d   1     -48.355  12.236  23.131  0.00  0.00     0.101 C 
BRANCH   4   5
ATOM      5  S   UNL d   1     -49.092  12.498  22.874  0.00  0.00    -0.041 SA
BRANCH   5   6
ATOM      6  C   UNL d   1     -49.769  12.144  23.169  0.00  0.00     0.219 A 
ATOM      7  N   UNL d   1     -50.489  12.549  23.169  0.00  0.00    -0.186 N 
ATOM      8  N   UNL d   1     -51.060  12.059  23.494  0.00  0.00    -0.038 NA
ATOM      9  N   UNL d   1     -50.707  11.355  23.696  0.00  0.00    -0.022 NA
ATOM     10  N   UNL d   1     -49.902  11.397  23.498  0.00  0.00    -0.101 NA
BRANCH   7  11
ATOM     11  C   UNL d   1     -50.646  13.308  22.900  0.00  0.00     0.087 A 
ATOM     12  C   UNL d   1     -50.870  13.430  22.106  0.00  0.00     0.019 A 
ATOM     13  C   UNL d   1     -51.027  14.189  21.839  0.00  0.00     0.002 A 
ATOM     14  C   UNL d   1     -50.967  14.834  22.345  0.00  0.00     0.000 A 
ATOM     15  C   UNL d   1     -50.745  14.714  23.135  0.00  0.00     0.002 A 
ATOM     16  C   UNL d   1     -50.584  13.951  23.415  0.00  0.00     0.019 A 
ENDBRANCH   7  11
ENDBRANCH   5   6
ENDBRANCH   4   5
ENDBRANCH   2   4
BRANCH   1  17
ATOM     17  C   UNL d   1     -46.294  12.916  22.815  0.00  0.00     0.216 A 
ATOM     18  N   UNL d   1     -45.610  12.481  22.657  0.00  0.00    -0.200 NA
ATOM     19  C   UNL d   1     -45.079  12.977  22.279  0.00  0.00     0.172 A 
ATOM     20  N   UNL d   1     -45.427  13.713  22.201  0.00  0.00    -0.187 NA
ATOM     21  S   UNL d   1     -46.187  13.669  22.539  0.00  0.00     0.054 SA
BRANCH  19  22
ATOM     22  C   UNL d   1     -44.313  12.853  21.990  0.00  0.00     0.036 A 
ATOM     23  C   UNL d   1     -43.901  12.177  22.205  0.00  0.00     0.003 A 
ATOM     24  C   UNL d   1     -43.132  12.049  21.916  0.00  0.00     0.000 A 
ATOM     25  C   UNL d   1     -42.786  12.598  21.419  0.00  0.00     0.000 A 
ATOM     26  C   UNL d   1     -43.207  13.285  21.203  0.00  0.00     0.000 A 
ATOM     27  C   UNL d   1     -43.966  13.415  21.484  0.00  0.00     0.003 A 
ENDBRANCH  19  22
ENDBRANCH   1  17
TORSDOF 6
ENDMDL
MODEL 3
REMARK VINA RESULT:      -5.1      3.353      4.874
REMARK  6 active torsions:
REMARK  status: ('A' for Active; 'I' for Inactive)
REMARK    1  A    between atoms: C_14  and  N_1 
REMARK    2  A    between atoms: S_12  and  C_3 
REMARK    3  A    between atoms: C_5  and  N_11 
REMARK    4  A    between atoms: C_15  and  C_8 
REMARK       I    between atoms: N_11  and  C_13 
REMARK    5  A    between atoms: C_17  and  S_12 
REMARK    6  A    between atoms: C_13  and  C_17 
ROOT
ATOM      1  N   UNL d   1     -43.055  12.713  21.370  0.00  0.00    -0.181 NA
ATOM      2  C   UNL d   1     -43.792  13.015  21.622  0.00  0.00     0.288 C 
ATOM      3  O   UNL d   1     -43.925  13.818  21.605  0.00  0.00    -0.265 OA
ENDROOT
BRANCH   2   4
ATOM      4  C   UNL d   1     -44.372  12.493  21.884  0.00  0.00     0.101 C 
BRANCH   4   5
ATOM      5  S   UNL d   1     -45.028  12.790  22.283  0.00  0.00    -0.041 SA
BRANCH   5   6
ATOM      6  C   UNL d   1     -45.420  12.314  22.822  0.00  0.00     0.219 A 
ATOM      7  N   UNL d   1     -46.192  12.490  23.055  0.00  0.00    -0.186 N 
ATOM      8  N   UNL d   1     -46.436  11.922  23.592  0.00  0.00    -0.038 NA
ATOM      9  N   UNL d   1     -45.827  11.393  23.698  0.00  0.00    -0.022 NA
ATOM     10  N   UNL d   1     -45.188  11.628  23.223  0.00  0.00    -0.101 NA
BRANCH   7  11
ATOM     11  C   UNL d   1     -46.667  13.115  22.814  0.00  0.00     0.087 A 
ATOM     12  C   UNL d   1     -46.630  13.844  23.217  0.00  0.00     0.019 A 
ATOM     13  C   UNL d   1     -47.105  14.468  22.976  0.00  0.00     0.002 A 
ATOM     14  C   UNL d   1     -47.618  14.383  22.339  0.00  0.00     0.000 A 
ATOM     15  C   UNL d   1     -47.656  13.659  21.937  0.00  0.00     0.002 A 
ATOM     16  C   UNL d   1     -47.180  13.022  22.174  0.00  0.00     0.019 A 
ENDBRANCH   7  11
ENDBRANCH   5   6
ENDBRANCH   4   5
ENDBRANCH   2   4
BRANCH   1  17
ATOM     17  C   UNL d   1     -42.461  13.232  21.103  0.00  0.00     0.216 A 
ATOM     18  N   UNL d   1     -41.887  13.610  21.562  0.00  0.00    -0.200 NA
ATOM     19  C   UNL d   1     -41.425  14.065  21.061  0.00  0.00     0.172 A 
ATOM     20  N   UNL d   1     -41.705  13.972  20.299  0.00  0.00    -0.187 NA
ATOM     21  S   UNL d   1     -42.353  13.450  20.331  0.00  0.00     0.054 SA
BRANCH  19  22
ATOM     22  C   UNL d   1     -40.775  14.559  21.202  0.00  0.00     0.036 A 
ATOM     23  C   UNL d   1     -40.060  14.233  21.439  0.00  0.00     0.003 A 
ATOM     24  C   UNL d   1     -39.406  14.727  21.581  0.00  0.00     0.000 A 
ATOM     25  C   UNL d   1     -39.476  15.535  21.485  0.00  0.00     0.000 A 
ATOM     26  C   UNL d   1     -40.204  15.862  21.244  0.00  0.00     0.000 A 
ATOM     27  C   UNL d   1     -40.852  15.380  21.102  0.00  0.00     0.003 A 
ENDBRANCH  19  22
ENDBRANCH   1  17
TORSDOF 6
ENDMDL
MODEL 4
REMARK VINA RESULT:      -5.0      4.140      7.386
REMARK  6 active torsions:
REMARK  status: ('A' for Active; 'I' for Inactive)
REMARK    1  A    between atoms: C_14  and  N_1 
REMARK    2  A    between atoms: S_12  and  C_3 
REMARK    3  A    between atoms: C_5  and  N_11 
REMARK    4  A    between atoms: C_15  and  C_8 
REMARK       I    between atoms: N_11  and  C_13 
REMARK    5  A    between atoms: C_17  and  S_12 
REMARK    6  A    between atoms: C_13  and  C_17 
ROOT
ATOM      1  N   UNL d   1     -43.346  12.744  21.016  0.00  0.00    -0.181 NA
ATOM      2  C   UNL d   1     -42.701  13.259  21.144  0.00  0.00     0.288 C 
ATOM      3  O   UNL d   1     -42.673  13.708  21.823  0.00  0.00    -0.265 OA
ENDROOT
BRANCH   2   4
ATOM      4  C   UNL d   1     -42.104  13.304  20.580  0.00  0.00     0.101 C 
BRANCH   4   5
ATOM      5  S   UNL d   1     -41.525  13.885  20.653  0.00  0.00    -0.041 SA
BRANCH   5   6
ATOM      6  C   UNL d   1     -41.043  14.055  20.013  0.00  0.00     0.219 A 
ATOM      7  N   UNL d   1     -40.353  14.496  20.112  0.00  0.00    -0.186 N 
ATOM      8  N   UNL d   1     -39.990  14.577  19.381  0.00  0.00    -0.038 NA
ATOM      9  N   UNL d   1     -40.445  14.192  18.827  0.00  0.00    -0.022 NA
ATOM     10  N   UNL d   1     -41.104  13.863  19.210  0.00  0.00    -0.101 NA
BRANCH   7  11
ATOM     11  C   UNL d   1     -40.048  14.816  20.803  0.00  0.00     0.087 A 
ATOM     12  C   UNL d   1     -40.245  15.596  21.023  0.00  0.00     0.019 A 
ATOM     13  C   UNL d   1     -39.940  15.915  21.714  0.00  0.00     0.002 A 
ATOM     14  C   UNL d   1     -39.439  15.474  22.195  0.00  0.00     0.000 A 
ATOM     15  C   UNL d   1     -39.242  14.698  21.978  0.00  0.00     0.002 A 
ATOM     16  C   UNL d   1     -39.546  14.367  21.281  0.00  0.00     0.019 A 
ENDBRANCH   7  11
ENDBRANCH   5   6
ENDBRANCH   4   5
ENDBRANCH   2   4
BRANCH   1  17
ATOM     17  C   UNL d   1     -43.956  12.691  21.581  0.00  0.00     0.216 A 
ATOM     18  N   UNL d   1     -44.642  13.151  21.618  0.00  0.00    -0.200 NA
ATOM     19  C   UNL d   1     -45.077  12.901  22.265  0.00  0.00     0.172 A 
ATOM     20  N   UNL d   1     -44.669  12.293  22.629  0.00  0.00    -0.187 NA
ATOM     21  S   UNL d   1     -43.968  12.166  22.197  0.00  0.00     0.054 SA
BRANCH  19  22
ATOM     22  C   UNL d   1     -45.803  13.152  22.576  0.00  0.00     0.036 A 
ATOM     23  C   UNL d   1     -46.014  13.943  22.529  0.00  0.00     0.003 A 
ATOM     24  C   UNL d   1     -46.742  14.197  22.840  0.00  0.00     0.000 A 
ATOM     25  C   UNL d   1     -47.246  13.659  23.192  0.00  0.00     0.000 A 
ATOM     26  C   UNL d   1     -47.028  12.855  23.239  0.00  0.00     0.000 A 
ATOM     27  C   UNL d   1     -46.311  12.599  22.933  0.00  0.00     0.003 A 
ENDBRANCH  19  22
ENDBRANCH   1  17
TORSDOF 6
ENDMDL
MODEL 5
REMARK VINA RESULT:      -4.9      2.833      4.069
REMARK  6 active torsions:
REMARK  status: ('A' for Active; 'I' for Inactive)
REMARK    1  A    between atoms: C_14  and  N_1 
REMARK    2  A    between atoms: S_12  and  C_3 
REMARK    3  A    between atoms: C_5  and  N_11 
REMARK    4  A    between atoms: C_15  and  C_8 
REMARK       I    between atoms: N_11  and  C_13 
REMARK    5  A    between atoms: C_17  and  S_12 
REMARK    6  A    between atoms: C_13  and  C_17 
ROOT
ATOM      1  N   UNL d   1     -43.968  12.436  21.993  0.00  0.00    -0.181 NA
ATOM      2  C   UNL d   1     -44.657  12.855  22.213  0.00  0.00     0.288 C 
ATOM      3  O   UNL d   1     -44.747  13.631  21.985  0.00  0.00    -0.265 OA
ENDROOT
BRANCH   2   4
ATOM      4  C   UNL d   1     -45.235  12.472  22.657  0.00  0.00     0.101 C 
BRANCH   4   5
ATOM      5  S   UNL d   1     -46.005  12.764  22.651  0.00  0.00    -0.041 SA
BRANCH   5   6
ATOM      6  C   UNL d   1     -46.598  12.340  23.025  0.00  0.00     0.219 A 
ATOM      7  N   UNL d   1     -47.377  12.614  23.021  0.00  0.00    -0.186 N 
ATOM      8  N   UNL d   1     -47.840  12.080  23.435  0.00  0.00    -0.038 NA
ATOM      9  N   UNL d   1     -47.362  11.477  23.698  0.00  0.00    -0.022 NA
ATOM     10  N   UNL d   1     -46.585  11.629  23.448  0.00  0.00    -0.101 NA
BRANCH   7  11
ATOM     11  C   UNL d   1     -47.675  13.295  22.674  0.00  0.00     0.087 A 
ATOM     12  C   UNL d   1     -47.624  14.023  23.077  0.00  0.00     0.019 A 
ATOM     13  C   UNL d   1     -47.923  14.704  22.731  0.00  0.00     0.002 A 
ATOM     14  C   UNL d   1     -48.273  14.678  21.987  0.00  0.00     0.000 A 
ATOM     15  C   UNL d   1     -48.324  13.954  21.584  0.00  0.00     0.002 A 
ATOM     16  C   UNL d   1     -48.025  13.261  21.927  0.00  0.00     0.019 A 
ENDBRANCH   7  11
ENDBRANCH   5   6
ENDBRANCH   4   5
ENDBRANCH   2   4
BRANCH   1  17
ATOM     17  C   UNL d   1     -43.377  12.814  21.543  0.00  0.00     0.216 A 
ATOM     18  N   UNL d   1     -42.794  13.330  21.821  0.00  0.00    -0.200 NA
ATOM     19  C   UNL d   1     -42.340  13.562  21.179  0.00  0.00     0.172 A 
ATOM     20  N   UNL d   1     -42.634  13.197  20.510  0.00  0.00    -0.187 NA
ATOM     21  S   UNL d   1     -43.283  12.730  20.743  0.00  0.00     0.054 SA
BRANCH  19  22
ATOM     22  C   UNL d   1     -41.686  14.067  21.118  0.00  0.00     0.036 A 
ATOM     23  C   UNL d   1     -40.932  13.775  21.255  0.00  0.00     0.003 A 
ATOM     24  C   UNL d   1     -40.274  14.280  21.194  0.00  0.00     0.000 A 
ATOM     25  C   UNL d   1     -40.379  15.065  20.996  0.00  0.00     0.000 A 
ATOM     26  C   UNL d   1     -41.146  15.359  20.857  0.00  0.00     0.000 A 
ATOM     27  C   UNL d   1     -41.799  14.866  20.916  0.00  0.00     0.003 A 
ENDBRANCH  19  22
ENDBRANCH   1  17
TORSDOF 6
ENDMDL
