MODEL 1
REMARK VINA RESULT:      36.5      0.000      0.000
REMARK  1 active torsions:
REMARK  status: ('A' for Active; 'I' for Inactive)
REMARK    1  A    between atoms: C_7  and  C_4 
ROOT
ATOM      1  N   UNL d   1     -54.734-101.797 -43.218  0.00  0.00    -0.211 NA
ATOM      2  C   UNL d   1     -54.734-101.445 -43.964  0.00  0.00     0.140 A 
ATOM      3  C   UNL d   1     -54.738-100.622 -44.030  0.00  0.00     0.051 A 
ATOM      4  C   UNL d   1     -54.739-101.325 -42.534  0.00  0.00     0.183 A 
ATOM      5  C   UNL d   1     -54.742-100.150 -43.346  0.00  0.00     0.104 A 
ATOM      6  O   UNL d   1     -54.743-100.503 -42.600  0.00  0.00    -0.289 OA
ATOM      7  S   UNL d   1     -54.729-101.911 -44.646  0.00  0.00    -0.057 SA
ATOM      8  C   UNL d   1     -54.738-100.267 -44.772  0.00  0.00     0.004 A 
ATOM      9  C   UNL d   1     -54.746 -99.341 -43.417  0.00  0.00     0.025 A 
ATOM     10  C   UNL d   1     -54.741 -99.458 -44.834  0.00  0.00     0.000 A 
ATOM     11  C   UNL d   1     -54.746 -98.989 -44.164  0.00  0.00     0.002 A 
ENDROOT
BRANCH   4  12
ATOM     12  C   UNL d   1     -54.739-101.678 -41.789  0.00  0.00     0.041 A 
ATOM     13  C   UNL d   1     -54.762-102.502 -41.726  0.00  0.00     0.004 A 
ATOM     14  C   UNL d   1     -54.763-102.859 -40.987  0.00  0.00     0.007 A 
ATOM     15  C   UNL d   1     -54.740-102.391 -40.295  0.00  0.00     0.035 A 
ATOM     16  C   UNL d   1     -54.718-101.569 -40.361  0.00  0.00     0.007 A 
ATOM     17 BR   UNL d   1     -54.741-102.747 -39.547  0.00  0.00    -0.049 Br
ATOM     18  C   UNL d   1     -54.717-101.208 -41.108  0.00  0.00     0.004 A 
ENDBRANCH   4  12
TORSDOF 1
ENDMDL
MODEL 2
REMARK VINA RESULT:      37.7      4.062      5.101
REMARK  1 active torsions:
REMARK  status: ('A' for Active; 'I' for Inactive)
REMARK    1  A    between atoms: C_7  and  C_4 
ROOT
ATOM      1  N   UNL d   1     -58.384 -98.849 -44.169  0.00  0.00    -0.211 NA
ATOM      2  C   UNL d   1     -59.124 -98.828 -43.804  0.00  0.00     0.140 A 
ATOM      3  C   UNL d   1     -59.175 -98.804 -42.981  0.00  0.00     0.051 A 
ATOM      4  C   UNL d   1     -57.693 -98.847 -43.709  0.00  0.00     0.183 A 
ATOM      5  C   UNL d   1     -58.483 -98.802 -42.521  0.00  0.00     0.104 A 
ATOM      6  O   UNL d   1     -57.744 -98.823 -42.886  0.00  0.00    -0.289 OA
ATOM      7  S   UNL d   1     -59.814 -98.831 -44.259  0.00  0.00    -0.057 SA
ATOM      8  C   UNL d   1     -59.911 -98.783 -42.614  0.00  0.00     0.004 A 
ATOM      9  C   UNL d   1     -58.541 -98.778 -41.711  0.00  0.00     0.025 A 
ATOM     10  C   UNL d   1     -59.959 -98.760 -41.804  0.00  0.00     0.000 A 
ATOM     11  C   UNL d   1     -59.281 -98.757 -41.346  0.00  0.00     0.002 A 
ENDROOT
BRANCH   4  12
ATOM     12  C   UNL d   1     -56.953 -98.868 -44.074  0.00  0.00     0.041 A 
ATOM     13  C   UNL d   1     -56.275 -98.997 -43.619  0.00  0.00     0.004 A 
ATOM     14  C   UNL d   1     -55.537 -99.019 -43.976  0.00  0.00     0.007 A 
ATOM     15  C   UNL d   1     -55.467 -98.911 -44.801  0.00  0.00     0.035 A 
ATOM     16  C   UNL d   1     -56.145 -98.783 -45.253  0.00  0.00     0.007 A 
ATOM     17 BR   UNL d   1     -54.724 -98.933 -45.166  0.00  0.00    -0.049 Br
ATOM     18  C   UNL d   1     -56.892 -98.761 -44.892  0.00  0.00     0.004 A 
ENDBRANCH   4  12
TORSDOF 1
ENDMDL
