MODEL 1
REMARK VINA RESULT:      39.8      0.000      0.000
REMARK  5 active torsions:
REMARK  status: ('A' for Active; 'I' for Inactive)
REMARK    1  A    between atoms: C_2  and  N_1 
REMARK    2  A    between atoms: C_4  and  C_7 
REMARK    3  A    between atoms: N_17  and  C_10 
REMARK    4  A    between atoms: C_20  and  N_17 
REMARK    5  A    between atoms: C_21  and  C_20 
ROOT
ATOM      1  C   UNL d   1     -50.336  25.751  33.722  0.00  0.00     0.144 A 
ATOM      2  C   UNL d   1     -50.947  25.188  33.709  0.00  0.00     0.027 A 
ATOM      3  C   UNL d   1     -51.720  25.420  33.505  0.00  0.00     0.021 A 
ATOM      4  C   UNL d   1     -50.496  26.537  33.535  0.00  0.00     0.103 A 
ATOM      5  C   UNL d   1     -51.876  26.214  33.316  0.00  0.00     0.003 A 
ATOM      6  C   UNL d   1     -51.261  26.766  33.333  0.00  0.00     0.021 A 
ENDROOT
BRANCH   3   7
ATOM      7  C   UNL d   1     -52.327  24.865  33.490  0.00  0.00     0.103 A 
ATOM      8  N   UNL d   1     -53.112  25.111  33.410  0.00  0.00    -0.145 NA
ATOM      9  N   UNL d   1     -53.720  24.556  33.396  0.00  0.00    -0.106 NA
ATOM     10  C   UNL d   1     -53.546  23.752  33.461  0.00  0.00     0.297 A 
ATOM     11  C   UNL d   1     -52.761  23.504  33.541  0.00  0.00     0.066 A 
ATOM     12  O   UNL d   1     -54.153  23.195  33.447  0.00  0.00    -0.264 OA
ATOM     13  C   UNL d   1     -52.145  24.063  33.556  0.00  0.00     0.024 A 
ATOM     14  C   UNL d   1     -51.365  23.814  33.636  0.00  0.00     0.002 C 
ENDBRANCH   3   7
BRANCH   1  15
ATOM     15  N   UNL d   1     -49.569  25.512  33.926  0.00  0.00    -0.112 N 
ATOM     16  O   UNL d   1     -49.443  25.123  34.648  0.00  0.00    -0.532 OA
ATOM     17  O   UNL d   1     -48.936  25.658  33.420  0.00  0.00    -0.532 OA
ENDBRANCH   1  15
BRANCH   4  18
ATOM     18  N   UNL d   1     -49.888  27.093  33.549  0.00  0.00    -0.239 NA
BRANCH  18  19
ATOM     19  C   UNL d   1     -49.871  27.671  34.141  0.00  0.00     0.144 C 
BRANCH  19  20
ATOM     20  C   UNL d   1     -49.862  28.471  33.943  0.00  0.00     0.255 C 
ATOM     21  O   UNL d   1     -49.201  28.935  34.102  0.00  0.00    -0.281 OA
ENDBRANCH  19  20
ENDBRANCH  18  19
ENDBRANCH   4  18
TORSDOF 5
ENDMDL
