MODEL 1
REMARK VINA RESULT:      46.9      0.000      0.000
REMARK  9 active torsions:
REMARK  status: ('A' for Active; 'I' for Inactive)
REMARK    1  A    between atoms: N_2  and  S_1 
REMARK    2  A    between atoms: C_9  and  S_1 
REMARK    3  A    between atoms: C_4  and  N_2 
REMARK    4  A    between atoms: O_19  and  C_6 
REMARK    5  A    between atoms: O_22  and  C_7 
REMARK       I    between atoms: C_12  and  N_13 
REMARK    6  A    between atoms: C_20  and  C_12 
REMARK    7  A    between atoms: N_13  and  C_17 
REMARK    8  A    between atoms: O_18  and  C_20 
REMARK    9  A    between atoms: C_21  and  O_18 
ROOT
ATOM      1  C   UNL d   1      13.232  13.274  -4.312  0.00  0.00     0.105 A 
ATOM      2  C   UNL d   1      13.126  13.983  -3.902  0.00  0.00     0.015 A 
ATOM      3  C   UNL d   1      13.256  13.267  -5.118  0.00  0.00     0.015 A 
ATOM      4  C   UNL d   1      13.072  14.666  -5.140  0.00  0.00     0.085 A 
ATOM      5  C   UNL d   1      13.044  14.690  -4.315  0.00  0.00     0.020 A 
ATOM      6  C   UNL d   1      13.176  13.969  -5.548  0.00  0.00     0.020 A 
ENDROOT
BRANCH   1   7
ATOM      7  S   UNL d   1      13.314  12.556  -3.889  0.00  0.00     0.287 S 
ATOM      8  O   UNL d   1      12.769  12.837  -3.322  0.00  0.00    -0.198 OA
ATOM      9  O   UNL d   1      13.851  12.294  -4.458  0.00  0.00    -0.198 OA
BRANCH   7  10
ATOM     10  N   UNL d   1      13.390  11.851  -3.466  0.00  0.00    -0.139 NA
BRANCH  10  11
ATOM     11  C   UNL d   1      13.643  11.847  -2.685  0.00  0.00     0.182 A 
ATOM     12  N   UNL d   1      13.108  11.816  -2.085  0.00  0.00    -0.185 NA
ATOM     13  C   UNL d   1      13.362  11.812  -1.293  0.00  0.00     0.274 A 
ATOM     14  N   UNL d   1      14.138  11.839  -1.112  0.00  0.00    -0.181 NA
ATOM     15  C   UNL d   1      14.698  11.870  -1.710  0.00  0.00     0.185 A 
ATOM     16  C   UNL d   1      14.436  11.874  -2.527  0.00  0.00     0.084 A 
BRANCH  13  17
ATOM     17  O   UNL d   1      12.793  11.780  -0.673  0.00  0.00    -0.297 OA
ATOM     18  C   UNL d   1      12.769  12.340  -0.079  0.00  0.00     0.185 C 
ENDBRANCH  13  17
BRANCH  15  19
ATOM     19  O   UNL d   1      15.506  11.897  -1.490  0.00  0.00    -0.312 OA
ATOM     20  C   UNL d   1      15.778  12.547  -1.064  0.00  0.00     0.183 C 
ENDBRANCH  15  19
ENDBRANCH  10  11
ENDBRANCH   7  10
ENDBRANCH   1   7
BRANCH   4  21
ATOM     21  N   UNL d   1      12.992  15.370  -5.576  0.00  0.00    -0.206 NA
ATOM     22  C   UNL d   1      13.620  15.834  -5.680  0.00  0.00     0.304 C 
ATOM     23  O   UNL d   1      14.380  15.644  -5.362  0.00  0.00    -0.263 OA
BRANCH  22  24
ATOM     24  C   UNL d   1      13.557  16.552  -6.119  0.00  0.00     0.185 C 
BRANCH  24  25
ATOM     25  O   UNL d   1      14.137  17.133  -6.116  0.00  0.00    -0.300 OA
BRANCH  25  26
ATOM     26  C   UNL d   1      13.916  17.905  -6.170  0.00  0.00     0.100 A 
ATOM     27  C   UNL d   1      14.492  18.499  -6.048  0.00  0.00     0.025 A 
ATOM     28  C   UNL d   1      14.290  19.317  -6.098  0.00  0.00     0.002 A 
ATOM     29  C   UNL d   1      13.562  19.527  -6.259  0.00  0.00     0.000 A 
ATOM     30  C   UNL d   1      12.958  18.921  -6.387  0.00  0.00     0.002 A 
ATOM     31  C   UNL d   1      13.367  20.364  -6.307  0.00  0.00     0.000 C 
ATOM     32  C   UNL d   1      13.175  18.134  -6.334  0.00  0.00     0.025 A 
ENDBRANCH  25  26
ENDBRANCH  24  25
ENDBRANCH  22  24
ENDBRANCH   4  21
TORSDOF 9
ENDMDL
