MODEL 1
REMARK VINA RESULT:      15.1      0.000      0.000
REMARK  1 active torsions:
REMARK  status: ('A' for Active; 'I' for Inactive)
REMARK    1  A    between atoms: C_6  and  C_1 
ROOT
ATOM      1  C   UNL d   1      59.875  49.682  50.842  0.00  0.00     0.128 A 
ATOM      2  C   UNL d   1      59.969  49.692  50.022  0.00  0.00     0.306 A 
ATOM      3  C   UNL d   1      59.112  49.681  51.174  0.00  0.00     0.013 A 
ATOM      4  O   UNL d   1      59.300  49.700  49.530  0.00  0.00    -0.273 OA
ATOM      5  C   UNL d   1      58.452  49.690  50.679  0.00  0.00     0.023 A 
ATOM      6  C   UNL d   1      58.546  49.699  49.859  0.00  0.00     0.103 A 
ATOM      7  O   UNL d   1      60.724  49.693  49.693  0.00  0.00    -0.259 OA
ATOM      8  C   UNL d   1      57.696  49.689  51.007  0.00  0.00     0.002 A 
ATOM      9  C   UNL d   1      57.884  49.708  49.368  0.00  0.00     0.025 A 
ATOM     10  C   UNL d   1      57.036  49.697  50.517  0.00  0.00     0.000 A 
ATOM     11  C   UNL d   1      57.130  49.707  49.697  0.00  0.00     0.002 A 
ATOM     12  C   UNL d   1      56.281  49.696  50.845  0.00  0.00     0.000 C 
ENDROOT
BRANCH   1  13
ATOM     13  C   UNL d   1      60.541  49.673  51.333  0.00  0.00     0.216 C 
ATOM     14  O   UNL d   1      61.295  49.632  51.002  0.00  0.00    -0.644 OA
ATOM     15  O   UNL d   1      60.451  49.706  52.150  0.00  0.00    -0.644 OA
ENDBRANCH   1  13
TORSDOF 1
ENDMDL
