MODEL 1
REMARK VINA RESULT:      -9.2      0.000      0.000
REMARK  7 active torsions:
REMARK  status: ('A' for Active; 'I' for Inactive)
REMARK    1  A    between atoms: C_2  and  S_1 
REMARK    2  A    between atoms: N_3  and  S_1 
REMARK    3  A    between atoms: C_15  and  N_3 
REMARK    4  A    between atoms: C_4  and  C_9 
REMARK       I    between atoms: N_5  and  C_4 
REMARK    5  A    between atoms: C_16  and  N_5 
REMARK    6  A    between atoms: C_18  and  C_15 
REMARK    7  A    between atoms: C_17  and  C_16 
ROOT
ATOM      1  C   UNL d   1      51.639  33.442  52.871  0.00  0.00     0.058 A 
ATOM      2  C   UNL d   1      51.575  34.068  52.317  0.00  0.00     0.005 A 
ATOM      3  C   UNL d   1      50.982  33.232  53.322  0.00  0.00     0.005 A 
ATOM      4  C   UNL d   1      50.210  34.249  52.679  0.00  0.00     0.020 A 
ATOM      5  C   UNL d   1      50.864  34.461  52.229  0.00  0.00     0.002 A 
ATOM      6  C   UNL d   1      50.267  33.632  53.229  0.00  0.00     0.002 A 
ENDROOT
BRANCH   4   7
ATOM      7  C   UNL d   1      49.488  34.654  52.584  0.00  0.00     0.112 C 
BRANCH   7   8
ATOM      8  N   UNL d   1      49.347  35.356  52.999  0.00  0.00    -0.157 NA
BRANCH   8   9
ATOM      9  S   UNL d   1      48.582  35.686  53.014  0.00  0.00     0.285 S 
ATOM     10  O   UNL d   1      48.374  35.235  52.345  0.00  0.00    -0.198 OA
ATOM     11  O   UNL d   1      48.797  36.132  53.682  0.00  0.00    -0.198 OA
BRANCH   9  12
ATOM     12  C   UNL d   1      47.821  36.017  53.034  0.00  0.00     0.106 A 
ATOM     13  C   UNL d   1      47.422  36.105  53.748  0.00  0.00     0.024 A 
ATOM     14  C   UNL d   1      46.667  36.435  53.763  0.00  0.00     0.059 A 
ATOM     15 CL   UNL d   1      46.266  36.522  54.489  0.00  0.00    -0.082 Cl
ATOM     16  C   UNL d   1      46.310  36.677  53.064  0.00  0.00     0.011 A 
ATOM     17  C   UNL d   1      46.708  36.589  52.351  0.00  0.00     0.002 A 
ATOM     18  C   UNL d   1      47.464  36.259  52.335  0.00  0.00     0.013 A 
ENDBRANCH   9  12
ENDBRANCH   8   9
ENDBRANCH   7   8
ENDBRANCH   4   7
BRANCH   1  19
ATOM     19  C   UNL d   1      52.359  33.035  52.969  0.00  0.00     0.279 C 
ATOM     20  N   UNL d   1      52.876  33.256  53.569  0.00  0.00    -0.205 NA
ATOM     21  O   UNL d   1      52.556  32.405  52.459  0.00  0.00    -0.265 OA
BRANCH  20  22
ATOM     22  C   UNL d   1      53.594  32.853  53.670  0.00  0.00     0.121 C 
BRANCH  22  23
ATOM     23  C   UNL d   1      54.114  33.093  54.268  0.00  0.00     0.101 A 
ATOM     24  N   UNL d   1      53.944  32.899  55.051  0.00  0.00    -0.242 NA
ATOM     25  C   UNL d   1      54.466  33.141  55.641  0.00  0.00     0.099 A 
ATOM     26  C   UNL d   1      55.144  33.568  55.457  0.00  0.00     0.021 A 
ATOM     27  C   UNL d   1      55.303  33.757  54.663  0.00  0.00     0.003 A 
ATOM     28  C   UNL d   1      54.781  33.516  54.069  0.00  0.00     0.021 A 
ENDBRANCH  22  23
ENDBRANCH  20  22
ENDBRANCH   1  19
TORSDOF 7
ENDMDL
MODEL 2
REMARK VINA RESULT:      -8.9      2.287      6.521
REMARK  7 active torsions:
REMARK  status: ('A' for Active; 'I' for Inactive)
REMARK    1  A    between atoms: C_2  and  S_1 
REMARK    2  A    between atoms: N_3  and  S_1 
REMARK    3  A    between atoms: C_15  and  N_3 
REMARK    4  A    between atoms: C_4  and  C_9 
REMARK       I    between atoms: N_5  and  C_4 
REMARK    5  A    between atoms: C_16  and  N_5 
REMARK    6  A    between atoms: C_18  and  C_15 
REMARK    7  A    between atoms: C_17  and  C_16 
ROOT
ATOM      1  C   UNL d   1      49.480  34.516  51.754  0.00  0.00     0.058 A 
ATOM      2  C   UNL d   1      50.162  34.372  51.288  0.00  0.00     0.005 A 
ATOM      3  C   UNL d   1      49.551  34.549  52.575  0.00  0.00     0.005 A 
ATOM      4  C   UNL d   1      50.954  34.298  52.470  0.00  0.00     0.020 A 
ATOM      5  C   UNL d   1      50.887  34.265  51.651  0.00  0.00     0.002 A 
ATOM      6  C   UNL d   1      50.285  34.440  52.935  0.00  0.00     0.002 A 
ENDROOT
BRANCH   4   7
ATOM      7  C   UNL d   1      51.697  34.189  52.833  0.00  0.00     0.112 C 
BRANCH   7   8
ATOM      8  N   UNL d   1      51.867  33.482  53.225  0.00  0.00    -0.157 NA
BRANCH   8   9
ATOM      9  S   UNL d   1      52.632  33.344  53.526  0.00  0.00     0.285 S 
ATOM     10  O   UNL d   1      52.736  34.164  53.635  0.00  0.00    -0.198 OA
ATOM     11  O   UNL d   1      52.520  32.529  53.413  0.00  0.00    -0.198 OA
BRANCH   9  12
ATOM     12  C   UNL d   1      53.394  33.203  53.825  0.00  0.00     0.106 A 
ATOM     13  C   UNL d   1      53.572  33.372  54.609  0.00  0.00     0.024 A 
ATOM     14  C   UNL d   1      54.329  33.230  54.902  0.00  0.00     0.059 A 
ATOM     15 CL   UNL d   1      54.506  33.403  55.699  0.00  0.00    -0.082 Cl
ATOM     16  C   UNL d   1      54.909  32.919  54.411  0.00  0.00     0.011 A 
ATOM     17  C   UNL d   1      54.731  32.750  53.626  0.00  0.00     0.002 A 
ATOM     18  C   UNL d   1      53.973  32.892  53.333  0.00  0.00     0.013 A 
ENDBRANCH   9  12
ENDBRANCH   8   9
ENDBRANCH   7   8
ENDBRANCH   4   7
BRANCH   1  19
ATOM     19  C   UNL d   1      48.737  34.626  51.395  0.00  0.00     0.279 C 
ATOM     20  N   UNL d   1      48.176  35.107  51.756  0.00  0.00    -0.205 NA
ATOM     21  O   UNL d   1      48.562  34.250  50.672  0.00  0.00    -0.265 OA
BRANCH  20  22
ATOM     22  C   UNL d   1      47.434  35.219  51.401  0.00  0.00     0.121 C 
BRANCH  22  23
ATOM     23  C   UNL d   1      46.833  35.596  51.828  0.00  0.00     0.101 A 
ATOM     24  N   UNL d   1      46.104  35.220  51.915  0.00  0.00    -0.242 NA
ATOM     25  C   UNL d   1      45.511  35.601  52.341  0.00  0.00     0.099 A 
ATOM     26  C   UNL d   1      45.638  36.342  52.674  0.00  0.00     0.021 A 
ATOM     27  C   UNL d   1      46.378  36.709  52.579  0.00  0.00     0.003 A 
ATOM     28  C   UNL d   1      46.975  36.330  52.152  0.00  0.00     0.021 A 
ENDBRANCH  22  23
ENDBRANCH  20  22
ENDBRANCH   1  19
TORSDOF 7
ENDMDL
MODEL 3
REMARK VINA RESULT:      -8.8      1.356      1.846
REMARK  7 active torsions:
REMARK  status: ('A' for Active; 'I' for Inactive)
REMARK    1  A    between atoms: C_2  and  S_1 
REMARK    2  A    between atoms: N_3  and  S_1 
REMARK    3  A    between atoms: C_15  and  N_3 
REMARK    4  A    between atoms: C_4  and  C_9 
REMARK       I    between atoms: N_5  and  C_4 
REMARK    5  A    between atoms: C_16  and  N_5 
REMARK    6  A    between atoms: C_18  and  C_15 
REMARK    7  A    between atoms: C_17  and  C_16 
ROOT
ATOM      1  C   UNL d   1      51.563  33.734  52.880  0.00  0.00     0.058 A 
ATOM      2  C   UNL d   1      51.018  33.734  53.517  0.00  0.00     0.005 A 
ATOM      3  C   UNL d   1      51.353  34.095  52.169  0.00  0.00     0.005 A 
ATOM      4  C   UNL d   1      50.081  34.447  52.717  0.00  0.00     0.020 A 
ATOM      5  C   UNL d   1      50.288  34.089  53.428  0.00  0.00     0.002 A 
ATOM      6  C   UNL d   1      50.614  34.452  52.085  0.00  0.00     0.002 A 
ENDROOT
BRANCH   4   7
ATOM      7  C   UNL d   1      49.334  34.808  52.633  0.00  0.00     0.112 C 
BRANCH   7   8
ATOM      8  N   UNL d   1      49.174  35.527  53.008  0.00  0.00    -0.157 NA
BRANCH   8   9
ATOM      9  S   UNL d   1      48.395  35.822  53.032  0.00  0.00     0.285 S 
ATOM     10  O   UNL d   1      48.203  35.367  52.361  0.00  0.00    -0.198 OA
ATOM     11  O   UNL d   1      48.596  36.272  53.701  0.00  0.00    -0.198 OA
BRANCH   9  12
ATOM     12  C   UNL d   1      47.620  36.119  53.060  0.00  0.00     0.106 A 
ATOM     13  C   UNL d   1      47.208  36.141  53.771  0.00  0.00     0.024 A 
ATOM     14  C   UNL d   1      46.438  36.437  53.795  0.00  0.00     0.059 A 
ATOM     15 CL   UNL d   1      46.024  36.458  54.518  0.00  0.00    -0.082 Cl
ATOM     16  C   UNL d   1      46.082  36.709  53.108  0.00  0.00     0.011 A 
ATOM     17  C   UNL d   1      46.494  36.686  52.397  0.00  0.00     0.002 A 
ATOM     18  C   UNL d   1      47.264  36.391  52.373  0.00  0.00     0.013 A 
ENDBRANCH   9  12
ENDBRANCH   8   9
ENDBRANCH   7   8
ENDBRANCH   4   7
BRANCH   1  19
ATOM     19  C   UNL d   1      52.310  33.376  52.961  0.00  0.00     0.279 C 
ATOM     20  N   UNL d   1      52.371  32.556  52.974  0.00  0.00    -0.205 NA
ATOM     21  O   UNL d   1      52.996  33.846  53.028  0.00  0.00    -0.265 OA
BRANCH  20  22
ATOM     22  C   UNL d   1      53.113  32.194  53.055  0.00  0.00     0.121 C 
BRANCH  22  23
ATOM     23  C   UNL d   1      53.155  31.378  53.183  0.00  0.00     0.101 A 
ATOM     24  N   UNL d   1      52.775  30.868  52.658  0.00  0.00    -0.242 NA
ATOM     25  C   UNL d   1      52.821  30.056  52.791  0.00  0.00     0.099 A 
ATOM     26  C   UNL d   1      53.236  29.755  53.434  0.00  0.00     0.021 A 
ATOM     27  C   UNL d   1      53.615  30.281  53.955  0.00  0.00     0.003 A 
ATOM     28  C   UNL d   1      53.571  31.095  53.824  0.00  0.00     0.021 A 
ENDBRANCH  22  23
ENDBRANCH  20  22
ENDBRANCH   1  19
TORSDOF 7
ENDMDL
