MODEL 1
REMARK VINA RESULT:      -0.7      0.000      0.000
REMARK  3 active torsions:
REMARK  status: ('A' for Active; 'I' for Inactive)
REMARK    1  A    between atoms: C_8  and  C_1 
REMARK    2  A    between atoms: N_4  and  C_2 
REMARK       I    between atoms: C_6  and  N_4 
REMARK    3  A    between atoms: C_10  and  C_6 
ROOT
ATOM      1  C   UNL d   1      32.081  16.038 -23.936  0.00  0.00     0.177 A 
ATOM      2  C   UNL d   1      31.843  16.714 -24.363  0.00  0.00     0.114 A 
ATOM      3  O   UNL d   1      31.433  15.784 -23.505  0.00  0.00    -0.301 OA
ATOM      4  C   UNL d   1      31.055  16.862 -24.186  0.00  0.00     0.043 A 
ATOM      5  C   UNL d   1      30.797  16.291 -23.657  0.00  0.00     0.102 A 
ATOM      6  C   UNL d   1      30.536  17.450 -24.442  0.00  0.00     0.004 A 
ATOM      7  C   UNL d   1      30.021  16.300 -23.379  0.00  0.00     0.025 A 
ATOM      8  C   UNL d   1      29.753  17.464 -24.166  0.00  0.00     0.000 A 
ATOM      9  C   UNL d   1      29.506  16.885 -23.634  0.00  0.00     0.002 A 
ENDROOT
BRANCH   2  10
ATOM     10  N   UNL d   1      32.319  17.157 -24.874  0.00  0.00    -0.206 NA
ATOM     11  C   UNL d   1      32.760  17.791 -24.583  0.00  0.00     0.279 C 
ATOM     12  O   UNL d   1      33.238  18.236 -25.097  0.00  0.00    -0.265 OA
BRANCH  11  13
ATOM     13  C   UNL d   1      32.726  17.982 -23.782  0.00  0.00     0.058 A 
ATOM     14  C   UNL d   1      33.205  17.582 -23.243  0.00  0.00     0.005 A 
ATOM     15  C   UNL d   1      33.171  17.773 -22.441  0.00  0.00     0.000 A 
ATOM     16  C   UNL d   1      32.656  18.365 -22.178  0.00  0.00     0.000 A 
ATOM     17  C   UNL d   1      32.177  18.765 -22.717  0.00  0.00     0.000 A 
ATOM     18  C   UNL d   1      32.211  18.574 -23.519  0.00  0.00     0.005 A 
ENDBRANCH  11  13
ENDBRANCH   2  10
BRANCH   1  19
ATOM     19  C   UNL d   1      32.834  15.674 -23.935  0.00  0.00     0.321 C 
ATOM     20  O   UNL d   1      33.201  15.487 -23.212  0.00  0.00    -0.261 OA
ATOM     21  N   UNL d   1      33.203  15.506 -24.638  0.00  0.00    -0.101 N 
ENDBRANCH   1  19
TORSDOF 3
ENDMDL
MODEL 2
REMARK VINA RESULT:      -0.6      1.979      3.744
REMARK  3 active torsions:
REMARK  status: ('A' for Active; 'I' for Inactive)
REMARK    1  A    between atoms: C_8  and  C_1 
REMARK    2  A    between atoms: N_4  and  C_2 
REMARK       I    between atoms: C_6  and  N_4 
REMARK    3  A    between atoms: C_10  and  C_6 
ROOT
ATOM      1  C   UNL d   1      29.532  17.924 -24.268  0.00  0.00     0.177 A 
ATOM      2  C   UNL d   1      29.825  17.235 -24.637  0.00  0.00     0.114 A 
ATOM      3  O   UNL d   1      30.171  18.302 -23.921  0.00  0.00    -0.301 OA
ATOM      4  C   UNL d   1      30.637  17.203 -24.509  0.00  0.00     0.043 A 
ATOM      5  C   UNL d   1      30.854  17.860 -24.068  0.00  0.00     0.102 A 
ATOM      6  C   UNL d   1      31.207  16.655 -24.741  0.00  0.00     0.004 A 
ATOM      7  C   UNL d   1      31.642  17.976 -23.855  0.00  0.00     0.025 A 
ATOM      8  C   UNL d   1      32.002  16.767 -24.529  0.00  0.00     0.000 A 
ATOM      9  C   UNL d   1      32.209  17.430 -24.086  0.00  0.00     0.002 A 
ENDROOT
BRANCH   2  10
ATOM     10  N   UNL d   1      29.377  16.681 -25.056  0.00  0.00    -0.206 NA
ATOM     11  C   UNL d   1      29.086  16.010 -24.675  0.00  0.00     0.279 C 
ATOM     12  O   UNL d   1      28.635  15.454 -25.096  0.00  0.00    -0.265 OA
BRANCH  11  13
ATOM     13  C   UNL d   1      29.244  15.892 -23.874  0.00  0.00     0.058 A 
ATOM     14  C   UNL d   1      28.678  16.094 -23.309  0.00  0.00     0.005 A 
ATOM     15  C   UNL d   1      28.836  15.976 -22.508  0.00  0.00     0.000 A 
ATOM     16  C   UNL d   1      29.561  15.655 -22.271  0.00  0.00     0.000 A 
ATOM     17  C   UNL d   1      30.126  15.453 -22.836  0.00  0.00     0.000 A 
ATOM     18  C   UNL d   1      29.969  15.571 -23.637  0.00  0.00     0.005 A 
ENDBRANCH  11  13
ENDBRANCH   2  10
BRANCH   1  19
ATOM     19  C   UNL d   1      28.741  18.193 -24.247  0.00  0.00     0.321 C 
ATOM     20  O   UNL d   1      28.345  18.251 -23.517  0.00  0.00    -0.261 OA
ATOM     21  N   UNL d   1      28.364  18.397 -24.935  0.00  0.00    -0.101 N 
ENDBRANCH   1  19
TORSDOF 3
ENDMDL
MODEL 3
REMARK VINA RESULT:      -0.5      1.207      2.176
REMARK  3 active torsions:
REMARK  status: ('A' for Active; 'I' for Inactive)
REMARK    1  A    between atoms: C_8  and  C_1 
REMARK    2  A    between atoms: N_4  and  C_2 
REMARK       I    between atoms: C_6  and  N_4 
REMARK    3  A    between atoms: C_10  and  C_6 
ROOT
ATOM      1  C   UNL d   1      31.675  17.960 -24.444  0.00  0.00     0.177 A 
ATOM      2  C   UNL d   1      31.575  17.213 -24.801  0.00  0.00     0.114 A 
ATOM      3  O   UNL d   1      30.930  18.232 -24.239  0.00  0.00    -0.301 OA
ATOM      4  C   UNL d   1      30.772  17.040 -24.809  0.00  0.00     0.043 A 
ATOM      5  C   UNL d   1      30.370  17.666 -24.464  0.00  0.00     0.102 A 
ATOM      6  C   UNL d   1      30.355  16.387 -25.090  0.00  0.00     0.004 A 
ATOM      7  C   UNL d   1      29.548  17.646 -24.395  0.00  0.00     0.025 A 
ATOM      8  C   UNL d   1      29.527  16.361 -25.023  0.00  0.00     0.000 A 
ATOM      9  C   UNL d   1      29.134  16.996 -24.674  0.00  0.00     0.002 A 
ENDROOT
BRANCH   2  10
ATOM     10  N   UNL d   1      32.180  16.731 -25.095  0.00  0.00    -0.206 NA
ATOM     11  C   UNL d   1      32.521  16.156 -24.612  0.00  0.00     0.279 C 
ATOM     12  O   UNL d   1      33.129  15.672 -24.908  0.00  0.00    -0.265 OA
BRANCH  11  13
ATOM     13  C   UNL d   1      32.259  16.062 -23.836  0.00  0.00     0.058 A 
ATOM     14  C   UNL d   1      32.621  16.481 -23.225  0.00  0.00     0.005 A 
ATOM     15  C   UNL d   1      32.358  16.387 -22.449  0.00  0.00     0.000 A 
ATOM     16  C   UNL d   1      31.732  15.872 -22.284  0.00  0.00     0.000 A 
ATOM     17  C   UNL d   1      31.370  15.453 -22.895  0.00  0.00     0.000 A 
ATOM     18  C   UNL d   1      31.633  15.547 -23.671  0.00  0.00     0.005 A 
ENDBRANCH  11  13
ENDBRANCH   2  10
BRANCH   1  19
ATOM     19  C   UNL d   1      32.392  18.371 -24.311  0.00  0.00     0.321 C 
ATOM     20  O   UNL d   1      32.960  18.415 -24.918  0.00  0.00    -0.261 OA
ATOM     21  N   UNL d   1      32.530  18.723 -23.593  0.00  0.00    -0.101 N 
ENDBRANCH   1  19
TORSDOF 3
ENDMDL
MODEL 4
REMARK VINA RESULT:      -0.2      1.356      3.086
REMARK  3 active torsions:
REMARK  status: ('A' for Active; 'I' for Inactive)
REMARK    1  A    between atoms: C_8  and  C_1 
REMARK    2  A    between atoms: N_4  and  C_2 
REMARK       I    between atoms: C_6  and  N_4 
REMARK    3  A    between atoms: C_10  and  C_6 
ROOT
ATOM      1  C   UNL d   1      30.536  17.450 -24.396  0.00  0.00     0.177 A 
ATOM      2  C   UNL d   1      31.044  17.335 -23.745  0.00  0.00     0.114 A 
ATOM      3  O   UNL d   1      30.878  18.022 -24.872  0.00  0.00    -0.301 OA
ATOM      4  C   UNL d   1      31.688  17.838 -23.832  0.00  0.00     0.043 A 
ATOM      5  C   UNL d   1      31.590  18.263 -24.526  0.00  0.00     0.102 A 
ATOM      6  C   UNL d   1      32.355  17.961 -23.364  0.00  0.00     0.004 A 
ATOM      7  C   UNL d   1      32.157  18.816 -24.760  0.00  0.00     0.025 A 
ATOM      8  C   UNL d   1      32.929  18.516 -23.594  0.00  0.00     0.000 A 
ATOM      9  C   UNL d   1      32.820  18.938 -24.293  0.00  0.00     0.002 A 
ENDROOT
BRANCH   2  10
ATOM     10  N   UNL d   1      30.920  16.807 -23.120  0.00  0.00    -0.206 NA
ATOM     11  C   UNL d   1      31.297  16.074 -23.118  0.00  0.00     0.279 C 
ATOM     12  O   UNL d   1      31.172  15.543 -22.491  0.00  0.00    -0.265 OA
BRANCH  11  13
ATOM     13  C   UNL d   1      31.799  15.868 -23.740  0.00  0.00     0.058 A 
ATOM     14  C   UNL d   1      32.616  15.870 -23.627  0.00  0.00     0.005 A 
ATOM     15  C   UNL d   1      33.117  15.664 -24.249  0.00  0.00     0.000 A 
ATOM     16  C   UNL d   1      32.801  15.455 -24.984  0.00  0.00     0.000 A 
ATOM     17  C   UNL d   1      31.984  15.453 -25.097  0.00  0.00     0.000 A 
ATOM     18  C   UNL d   1      31.483  15.659 -24.475  0.00  0.00     0.005 A 
ENDBRANCH  11  13
ENDBRANCH   2  10
BRANCH   1  19
ATOM     19  C   UNL d   1      29.810  17.065 -24.552  0.00  0.00     0.321 C 
ATOM     20  O   UNL d   1      29.113  17.335 -24.185  0.00  0.00    -0.261 OA
ATOM     21  N   UNL d   1      29.788  16.431 -25.057  0.00  0.00    -0.101 N 
ENDBRANCH   1  19
TORSDOF 3
ENDMDL
MODEL 5
REMARK VINA RESULT:      -0.2      0.858      1.017
REMARK  3 active torsions:
REMARK  status: ('A' for Active; 'I' for Inactive)
REMARK    1  A    between atoms: C_8  and  C_1 
REMARK    2  A    between atoms: N_4  and  C_2 
REMARK       I    between atoms: C_6  and  N_4 
REMARK    3  A    between atoms: C_10  and  C_6 
ROOT
ATOM      1  C   UNL d   1      31.191  16.182 -23.678  0.00  0.00     0.177 A 
ATOM      2  C   UNL d   1      31.270  16.656 -24.360  0.00  0.00     0.114 A 
ATOM      3  O   UNL d   1      30.422  16.273 -23.409  0.00  0.00    -0.301 OA
ATOM      4  C   UNL d   1      30.551  17.028 -24.497  0.00  0.00     0.043 A 
ATOM      5  C   UNL d   1      30.025  16.795 -23.912  0.00  0.00     0.102 A 
ATOM      6  C   UNL d   1      30.308  17.553 -25.084  0.00  0.00     0.004 A 
ATOM      7  C   UNL d   1      29.252  17.083 -23.908  0.00  0.00     0.025 A 
ATOM      8  C   UNL d   1      29.531  17.846 -25.085  0.00  0.00     0.000 A 
ATOM      9  C   UNL d   1      29.011  17.605 -24.493  0.00  0.00     0.002 A 
ENDROOT
BRANCH   2  10
ATOM     10  N   UNL d   1      31.955  16.736 -24.818  0.00  0.00    -0.206 NA
ATOM     11  C   UNL d   1      32.507  17.322 -24.636  0.00  0.00     0.279 C 
ATOM     12  O   UNL d   1      33.194  17.402 -25.096  0.00  0.00    -0.265 OA
BRANCH  11  13
ATOM     13  C   UNL d   1      32.375  17.827 -23.998  0.00  0.00     0.058 A 
ATOM     14  C   UNL d   1      32.626  17.610 -23.243  0.00  0.00     0.005 A 
ATOM     15  C   UNL d   1      32.495  18.116 -22.605  0.00  0.00     0.000 A 
ATOM     16  C   UNL d   1      32.111  18.839 -22.722  0.00  0.00     0.000 A 
ATOM     17  C   UNL d   1      31.860  19.056 -23.477  0.00  0.00     0.000 A 
ATOM     18  C   UNL d   1      31.991  18.551 -24.115  0.00  0.00     0.005 A 
ENDBRANCH  11  13
ENDBRANCH   2  10
BRANCH   1  19
ATOM     19  C   UNL d   1      31.774  15.700 -23.321  0.00  0.00     0.321 C 
ATOM     20  O   UNL d   1      32.433  15.453 -23.765  0.00  0.00    -0.261 OA
ATOM     21  N   UNL d   1      31.694  15.475 -22.546  0.00  0.00    -0.101 N 
ENDBRANCH   1  19
TORSDOF 3
ENDMDL
MODEL 6
REMARK VINA RESULT:       0.6      1.217      2.785
REMARK  3 active torsions:
REMARK  status: ('A' for Active; 'I' for Inactive)
REMARK    1  A    between atoms: C_8  and  C_1 
REMARK    2  A    between atoms: N_4  and  C_2 
REMARK       I    between atoms: C_6  and  N_4 
REMARK    3  A    between atoms: C_10  and  C_6 
ROOT
ATOM      1  C   UNL d   1      33.042  17.440 -23.075  0.00  0.00     0.177 A 
ATOM      2  C   UNL d   1      33.086  17.402 -23.907  0.00  0.00     0.114 A 
ATOM      3  O   UNL d   1      33.022  18.233 -22.870  0.00  0.00    -0.301 OA
ATOM      4  C   UNL d   1      33.092  18.171 -24.197  0.00  0.00     0.043 A 
ATOM      5  C   UNL d   1      33.053  18.687 -23.560  0.00  0.00     0.102 A 
ATOM      6  C   UNL d   1      33.129  18.467 -24.966  0.00  0.00     0.004 A 
ATOM      7  C   UNL d   1      33.051  19.503 -23.684  0.00  0.00     0.025 A 
ATOM      8  C   UNL d   1      33.127  19.287 -25.096  0.00  0.00     0.000 A 
ATOM      9  C   UNL d   1      33.087  19.796 -24.449  0.00  0.00     0.002 A 
ENDROOT
BRANCH   2  10
ATOM     10  N   UNL d   1      33.117  16.711 -24.360  0.00  0.00    -0.206 NA
ATOM     11  C   UNL d   1      32.421  16.370 -24.642  0.00  0.00     0.279 C 
ATOM     12  O   UNL d   1      32.453  15.675 -25.097  0.00  0.00    -0.265 OA
BRANCH  11  13
ATOM     13  C   UNL d   1      31.694  16.719 -24.472  0.00  0.00     0.058 A 
ATOM     14  C   UNL d   1      31.355  17.246 -25.008  0.00  0.00     0.005 A 
ATOM     15  C   UNL d   1      30.627  17.595 -24.838  0.00  0.00     0.000 A 
ATOM     16  C   UNL d   1      30.238  17.417 -24.130  0.00  0.00     0.000 A 
ATOM     17  C   UNL d   1      30.577  16.891 -23.593  0.00  0.00     0.000 A 
ATOM     18  C   UNL d   1      31.305  16.542 -23.764  0.00  0.00     0.005 A 
ENDBRANCH  11  13
ENDBRANCH   2  10
BRANCH   1  19
ATOM     19  C   UNL d   1      33.020  16.801 -22.536  0.00  0.00     0.321 C 
ATOM     20  O   UNL d   1      32.773  16.931 -21.752  0.00  0.00    -0.261 OA
ATOM     21  N   UNL d   1      33.241  16.059 -22.778  0.00  0.00    -0.101 N 
ENDBRANCH   1  19
TORSDOF 3
ENDMDL
MODEL 7
REMARK VINA RESULT:       0.7      2.191      3.616
REMARK  3 active torsions:
REMARK  status: ('A' for Active; 'I' for Inactive)
REMARK    1  A    between atoms: C_8  and  C_1 
REMARK    2  A    between atoms: N_4  and  C_2 
REMARK       I    between atoms: C_6  and  N_4 
REMARK    3  A    between atoms: C_10  and  C_6 
ROOT
ATOM      1  C   UNL d   1      29.750  15.755 -23.036  0.00  0.00     0.177 A 
ATOM      2  C   UNL d   1      29.725  15.689 -23.867  0.00  0.00     0.114 A 
ATOM      3  O   UNL d   1      30.504  16.006 -22.836  0.00  0.00    -0.301 OA
ATOM      4  C   UNL d   1      30.463  15.900 -24.161  0.00  0.00     0.043 A 
ATOM      5  C   UNL d   1      30.946  16.096 -23.529  0.00  0.00     0.102 A 
ATOM      6  C   UNL d   1      30.755  15.938 -24.931  0.00  0.00     0.004 A 
ATOM      7  C   UNL d   1      31.726  16.332 -23.658  0.00  0.00     0.025 A 
ATOM      8  C   UNL d   1      31.540  16.174 -25.067  0.00  0.00     0.000 A 
ATOM      9  C   UNL d   1      32.016  16.369 -24.423  0.00  0.00     0.002 A 
ENDROOT
BRANCH   2  10
ATOM     10  N   UNL d   1      29.071  15.453 -24.315  0.00  0.00    -0.206 NA
ATOM     11  C   UNL d   1      28.565  16.018 -24.637  0.00  0.00     0.279 C 
ATOM     12  O   UNL d   1      27.908  15.781 -25.087  0.00  0.00    -0.265 OA
BRANCH  11  13
ATOM     13  C   UNL d   1      28.711  16.820 -24.511  0.00  0.00     0.058 A 
ATOM     14  C   UNL d   1      28.446  17.183 -23.820  0.00  0.00     0.005 A 
ATOM     15  C   UNL d   1      28.592  17.985 -23.694  0.00  0.00     0.000 A 
ATOM     16  C   UNL d   1      29.004  18.425 -24.261  0.00  0.00     0.000 A 
ATOM     17  C   UNL d   1      29.269  18.062 -24.952  0.00  0.00     0.000 A 
ATOM     18  C   UNL d   1      29.122  17.260 -25.078  0.00  0.00     0.005 A 
ENDBRANCH  11  13
ENDBRANCH   2  10
BRANCH   1  19
ATOM     19  C   UNL d   1      29.133  15.599 -22.493  0.00  0.00     0.321 C 
ATOM     20  O   UNL d   1      28.351  15.519 -22.769  0.00  0.00    -0.261 OA
ATOM     21  N   UNL d   1      29.298  15.528 -21.702  0.00  0.00    -0.101 N 
ENDBRANCH   1  19
TORSDOF 3
ENDMDL
MODEL 8
REMARK VINA RESULT:       1.8      1.139      2.135
REMARK  3 active torsions:
REMARK  status: ('A' for Active; 'I' for Inactive)
REMARK    1  A    between atoms: C_8  and  C_1 
REMARK    2  A    between atoms: N_4  and  C_2 
REMARK       I    between atoms: C_6  and  N_4 
REMARK    3  A    between atoms: C_10  and  C_6 
ROOT
ATOM      1  C   UNL d   1      31.180  17.368 -24.119  0.00  0.00     0.177 A 
ATOM      2  C   UNL d   1      31.994  17.313 -24.294  0.00  0.00     0.114 A 
ATOM      3  O   UNL d   1      31.013  16.791 -23.562  0.00  0.00    -0.301 OA
ATOM      4  C   UNL d   1      32.311  16.704 -23.842  0.00  0.00     0.043 A 
ATOM      5  C   UNL d   1      31.709  16.379 -23.389  0.00  0.00     0.102 A 
ATOM      6  C   UNL d   1      33.077  16.404 -23.786  0.00  0.00     0.004 A 
ATOM      7  C   UNL d   1      31.865  15.752 -22.877  0.00  0.00     0.025 A 
ATOM      8  C   UNL d   1      33.240  15.772 -23.272  0.00  0.00     0.000 A 
ATOM      9  C   UNL d   1      32.627  15.454 -22.822  0.00  0.00     0.002 A 
ENDROOT
BRANCH   2  10
ATOM     10  N   UNL d   1      32.409  17.789 -24.828  0.00  0.00    -0.206 NA
ATOM     11  C   UNL d   1      32.824  18.449 -24.558  0.00  0.00     0.279 C 
ATOM     12  O   UNL d   1      33.240  18.927 -25.095  0.00  0.00    -0.265 OA
BRANCH  11  13
ATOM     13  C   UNL d   1      32.825  18.633 -23.754  0.00  0.00     0.058 A 
ATOM     14  C   UNL d   1      33.234  18.152 -23.223  0.00  0.00     0.005 A 
ATOM     15  C   UNL d   1      33.236  18.337 -22.419  0.00  0.00     0.000 A 
ATOM     16  C   UNL d   1      32.827  19.002 -22.146  0.00  0.00     0.000 A 
ATOM     17  C   UNL d   1      32.418  19.482 -22.677  0.00  0.00     0.000 A 
ATOM     18  C   UNL d   1      32.417  19.298 -23.481  0.00  0.00     0.005 A 
ENDBRANCH  11  13
ENDBRANCH   2  10
BRANCH   1  19
ATOM     19  C   UNL d   1      30.625  17.904 -24.441  0.00  0.00     0.321 C 
ATOM     20  O   UNL d   1      30.864  18.442 -25.029  0.00  0.00    -0.261 OA
ATOM     21  N   UNL d   1      29.857  17.897 -24.179  0.00  0.00    -0.101 N 
ENDBRANCH   1  19
TORSDOF 3
ENDMDL
