MODEL 1
REMARK VINA RESULT:      -5.3      0.000      0.000
REMARK  2 active torsions:
REMARK  status: ('A' for Active; 'I' for Inactive)
REMARK    1  A    between atoms: C_3  and  C_1 
REMARK       I    between atoms: N_2  and  C_3 
REMARK    2  A    between atoms: O_16  and  C_15 
ROOT
ATOM      1  C   UNL d   1      57.662  -0.277  30.557  0.00  0.00     0.121 A 
ATOM      2  C   UNL d   1      57.515  -1.076  30.716  0.00  0.00     0.305 A 
ATOM      3  O   UNL d   1      57.055  -1.289  31.379  0.00  0.00    -0.271 OA
ATOM      4  C   UNL d   1      57.351   0.317  31.056  0.00  0.00     0.012 A 
ATOM      5  C   UNL d   1      56.748  -0.710  31.870  0.00  0.00     0.125 A 
ATOM      6  C   UNL d   1      56.897   0.096  31.709  0.00  0.00     0.025 A 
ATOM      7  O   UNL d   1      57.821  -1.659  30.225  0.00  0.00    -0.259 OA
ATOM      8  C   UNL d   1      56.289  -0.912  32.531  0.00  0.00     0.117 A 
ATOM      9  C   UNL d   1      56.587   0.682  32.206  0.00  0.00     0.002 A 
ATOM     10  C   UNL d   1      56.132   0.464  32.860  0.00  0.00     0.002 A 
ATOM     11  C   UNL d   1      55.985  -0.328  33.021  0.00  0.00     0.026 A 
ENDROOT
BRANCH   1  12
ATOM     12  C   UNL d   1      58.115  -0.068  29.905  0.00  0.00     0.285 C 
ATOM     13  N   UNL d   1      58.889   0.185  29.999  0.00  0.00    -0.193 N 
ATOM     14  N   UNL d   1      59.284   0.257  30.718  0.00  0.00    -0.163 NA
ATOM     15  C   UNL d   1      59.403   0.410  29.401  0.00  0.00     0.105 A 
ATOM     16  C   UNL d   1      60.045   0.527  30.559  0.00  0.00     0.103 A 
ATOM     17  C   UNL d   1      60.631   0.677  31.124  0.00  0.00     0.022 C 
ATOM     18  C   UNL d   1      60.115   0.620  29.751  0.00  0.00     0.042 A 
ATOM     19  O   UNL d   1      57.794  -0.112  29.148  0.00  0.00    -0.265 OA
ENDBRANCH   1  12
BRANCH   8  20
ATOM     20  O   UNL d   1      56.146  -1.707  32.686  0.00  0.00    -0.326 OA
ATOM     21  C   UNL d   1      55.663  -1.932  33.309  0.00  0.00     0.181 C 
ENDBRANCH   8  20
TORSDOF 2
ENDMDL
MODEL 2
REMARK VINA RESULT:      -4.7      1.683      3.642
REMARK  2 active torsions:
REMARK  status: ('A' for Active; 'I' for Inactive)
REMARK    1  A    between atoms: C_3  and  C_1 
REMARK       I    between atoms: N_2  and  C_3 
REMARK    2  A    between atoms: O_16  and  C_15 
ROOT
ATOM      1  C   UNL d   1      56.396  -0.223  32.316  0.00  0.00     0.121 A 
ATOM      2  C   UNL d   1      56.455  -1.023  32.116  0.00  0.00     0.305 A 
ATOM      3  O   UNL d   1      56.935  -1.257  31.475  0.00  0.00    -0.271 OA
ATOM      4  C   UNL d   1      56.815   0.354  31.880  0.00  0.00     0.012 A 
ATOM      5  C   UNL d   1      57.347  -0.695  31.044  0.00  0.00     0.125 A 
ATOM      6  C   UNL d   1      57.288   0.113  31.246  0.00  0.00     0.025 A 
ATOM      7  O   UNL d   1      56.043  -1.589  32.546  0.00  0.00    -0.259 OA
ATOM      8  C   UNL d   1      57.827  -0.917  30.405  0.00  0.00     0.117 A 
ATOM      9  C   UNL d   1      57.705   0.681  30.811  0.00  0.00     0.002 A 
ATOM     10  C   UNL d   1      58.178   0.443  30.178  0.00  0.00     0.002 A 
ATOM     11  C   UNL d   1      58.239  -0.352  29.976  0.00  0.00     0.026 A 
ENDROOT
BRANCH   1  12
ATOM     12  C   UNL d   1      55.923   0.006  32.948  0.00  0.00     0.285 C 
ATOM     13  N   UNL d   1      56.261   0.248  33.654  0.00  0.00    -0.193 N 
ATOM     14  N   UNL d   1      57.068   0.290  33.809  0.00  0.00    -0.163 NA
ATOM     15  C   UNL d   1      55.858   0.491  34.327  0.00  0.00     0.105 A 
ATOM     16  C   UNL d   1      57.161   0.559  34.581  0.00  0.00     0.103 A 
ATOM     17  C   UNL d   1      57.884   0.682  34.965  0.00  0.00     0.022 C 
ATOM     18  C   UNL d   1      56.418   0.681  34.897  0.00  0.00     0.042 A 
ATOM     19  O   UNL d   1      55.104  -0.007  32.874  0.00  0.00    -0.265 OA
ENDBRANCH   1  12
BRANCH   8  20
ATOM     20  O   UNL d   1      57.882  -1.715  30.210  0.00  0.00    -0.326 OA
ATOM     21  C   UNL d   1      58.359  -1.962  29.589  0.00  0.00     0.181 C 
ENDBRANCH   8  20
TORSDOF 2
ENDMDL
MODEL 3
REMARK VINA RESULT:      -3.8      1.614      2.119
REMARK  2 active torsions:
REMARK  status: ('A' for Active; 'I' for Inactive)
REMARK    1  A    between atoms: C_3  and  C_1 
REMARK       I    between atoms: N_2  and  C_3 
REMARK    2  A    between atoms: O_16  and  C_15 
ROOT
ATOM      1  C   UNL d   1      58.137   0.092  30.402  0.00  0.00     0.121 A 
ATOM      2  C   UNL d   1      58.674   0.430  30.932  0.00  0.00     0.305 A 
ATOM      3  O   UNL d   1      58.467   0.515  31.736  0.00  0.00    -0.271 OA
ATOM      4  C   UNL d   1      57.387  -0.164  30.667  0.00  0.00     0.012 A 
ATOM      5  C   UNL d   1      57.733   0.265  32.000  0.00  0.00     0.125 A 
ATOM      6  C   UNL d   1      57.190  -0.076  31.465  0.00  0.00     0.025 A 
ATOM      7  O   UNL d   1      59.411   0.681  30.671  0.00  0.00    -0.259 OA
ATOM      8  C   UNL d   1      57.518   0.345  32.797  0.00  0.00     0.117 A 
ATOM      9  C   UNL d   1      56.448  -0.329  31.732  0.00  0.00     0.002 A 
ATOM     10  C   UNL d   1      56.250  -0.241  32.528  0.00  0.00     0.002 A 
ATOM     11  C   UNL d   1      56.782   0.094  33.058  0.00  0.00     0.026 A 
ENDROOT
BRANCH   1  12
ATOM     12  C   UNL d   1      58.342   0.009  29.611  0.00  0.00     0.285 C 
ATOM     13  N   UNL d   1      58.548  -0.725  29.310  0.00  0.00    -0.193 N 
ATOM     14  N   UNL d   1      58.573  -1.428  29.737  0.00  0.00    -0.163 NA
ATOM     15  C   UNL d   1      58.763  -0.889  28.535  0.00  0.00     0.105 A 
ATOM     16  C   UNL d   1      58.806  -2.026  29.222  0.00  0.00     0.103 A 
ATOM     17  C   UNL d   1      58.904  -2.823  29.422  0.00  0.00     0.022 C 
ATOM     18  C   UNL d   1      58.922  -1.693  28.486  0.00  0.00     0.042 A 
ATOM     19  O   UNL d   1      58.341   0.665  29.114  0.00  0.00    -0.265 OA
ENDBRANCH   1  12
BRANCH   8  20
ATOM     20  O   UNL d   1      58.056   0.682  33.321  0.00  0.00    -0.326 OA
ATOM     21  C   UNL d   1      57.911   0.682  34.128  0.00  0.00     0.181 C 
ENDBRANCH   8  20
TORSDOF 2
ENDMDL
MODEL 4
REMARK VINA RESULT:      -3.7      2.498      4.157
REMARK  2 active torsions:
REMARK  status: ('A' for Active; 'I' for Inactive)
REMARK    1  A    between atoms: C_3  and  C_1 
REMARK       I    between atoms: N_2  and  C_3 
REMARK    2  A    between atoms: O_16  and  C_15 
ROOT
ATOM      1  C   UNL d   1      59.042  -0.932  29.120  0.00  0.00     0.121 A 
ATOM      2  C   UNL d   1      59.850  -1.046  29.250  0.00  0.00     0.305 A 
ATOM      3  O   UNL d   1      60.185  -1.804  29.151  0.00  0.00    -0.271 OA
ATOM      4  C   UNL d   1      58.557  -1.572  28.889  0.00  0.00     0.012 A 
ATOM      5  C   UNL d   1      59.713  -2.435  28.925  0.00  0.00     0.125 A 
ATOM      6  C   UNL d   1      58.896  -2.320  28.793  0.00  0.00     0.025 A 
ATOM      7  O   UNL d   1      60.326  -0.416  29.477  0.00  0.00    -0.259 OA
ATOM      8  C   UNL d   1      60.036  -3.192  28.824  0.00  0.00     0.117 A 
ATOM      9  C   UNL d   1      58.420  -2.958  28.565  0.00  0.00     0.002 A 
ATOM     10  C   UNL d   1      58.757  -3.705  28.469  0.00  0.00     0.002 A 
ATOM     11  C   UNL d   1      59.560  -3.821  28.598  0.00  0.00     0.026 A 
ENDROOT
BRANCH   1  12
ATOM     12  C   UNL d   1      58.714  -0.185  29.217  0.00  0.00     0.285 C 
ATOM     13  N   UNL d   1      58.201  -0.034  29.839  0.00  0.00    -0.193 N 
ATOM     14  N   UNL d   1      57.966  -0.579  30.408  0.00  0.00    -0.163 NA
ATOM     15  C   UNL d   1      57.835   0.682  30.003  0.00  0.00     0.105 A 
ATOM     16  C   UNL d   1      57.452  -0.196  30.924  0.00  0.00     0.103 A 
ATOM     17  C   UNL d   1      57.083  -0.539  31.581  0.00  0.00     0.022 C 
ATOM     18  C   UNL d   1      57.374   0.577  30.674  0.00  0.00     0.042 A 
ATOM     19  O   UNL d   1      58.899   0.418  28.689  0.00  0.00    -0.265 OA
ENDBRANCH   1  12
BRANCH   8  20
ATOM     20  O   UNL d   1      60.841  -3.300  28.956  0.00  0.00    -0.326 OA
ATOM     21  C   UNL d   1      61.130  -4.024  29.211  0.00  0.00     0.181 C 
ENDBRANCH   8  20
TORSDOF 2
ENDMDL
MODEL 5
REMARK VINA RESULT:      -3.1      1.462      3.451
REMARK  2 active torsions:
REMARK  status: ('A' for Active; 'I' for Inactive)
REMARK    1  A    between atoms: C_3  and  C_1 
REMARK       I    between atoms: N_2  and  C_3 
REMARK    2  A    between atoms: O_16  and  C_15 
ROOT
ATOM      1  C   UNL d   1      57.148  -0.208  31.334  0.00  0.00     0.121 A 
ATOM      2  C   UNL d   1      57.206  -1.008  31.133  0.00  0.00     0.305 A 
ATOM      3  O   UNL d   1      57.724  -1.247  30.523  0.00  0.00    -0.271 OA
ATOM      4  C   UNL d   1      57.603   0.363  30.930  0.00  0.00     0.012 A 
ATOM      5  C   UNL d   1      58.173  -0.689  30.124  0.00  0.00     0.125 A 
ATOM      6  C   UNL d   1      58.113   0.119  30.327  0.00  0.00     0.025 A 
ATOM      7  O   UNL d   1      56.758  -1.570  31.531  0.00  0.00    -0.259 OA
ATOM      8  C   UNL d   1      58.690  -0.916  29.517  0.00  0.00     0.117 A 
ATOM      9  C   UNL d   1      58.567   0.682  29.924  0.00  0.00     0.002 A 
ATOM     10  C   UNL d   1      59.077   0.440  29.322  0.00  0.00     0.002 A 
ATOM     11  C   UNL d   1      59.138  -0.355  29.120  0.00  0.00     0.026 A 
ENDROOT
BRANCH   1  12
ATOM     12  C   UNL d   1      56.638   0.025  31.934  0.00  0.00     0.285 C 
ATOM     13  N   UNL d   1      56.932   0.258  32.663  0.00  0.00    -0.193 N 
ATOM     14  N   UNL d   1      57.727   0.285  32.871  0.00  0.00    -0.163 NA
ATOM     15  C   UNL d   1      56.490   0.503  33.310  0.00  0.00     0.105 A 
ATOM     16  C   UNL d   1      57.774   0.548  33.650  0.00  0.00     0.103 A 
ATOM     17  C   UNL d   1      58.472   0.657  34.081  0.00  0.00     0.022 C 
ATOM     18  C   UNL d   1      57.014   0.681  33.916  0.00  0.00     0.042 A 
ATOM     19  O   UNL d   1      55.825   0.026  31.807  0.00  0.00    -0.265 OA
ENDBRANCH   1  12
BRANCH   8  20
ATOM     20  O   UNL d   1      58.746  -1.713  29.320  0.00  0.00    -0.326 OA
ATOM     21  C   UNL d   1      59.256  -1.965  28.730  0.00  0.00     0.181 C 
ENDBRANCH   8  20
TORSDOF 2
ENDMDL
