MODEL 1
REMARK VINA RESULT:      34.4      0.000      0.000
REMARK  3 active torsions:
REMARK  status: ('A' for Active; 'I' for Inactive)
REMARK    1  A    between atoms: N_6  and  C_1 
REMARK    2  A    between atoms: C_7  and  C_2 
REMARK    3  A    between atoms: C_9  and  C_5 
ROOT
ATOM      1  C   UNL d   1      13.390  13.381  -4.050  0.00  0.00     0.189 A 
ATOM      2  C   UNL d   1      13.224  12.553  -4.154  0.00  0.00     0.144 A 
ATOM      3  O   UNL d   1      13.710  13.455  -3.267  0.00  0.00    -0.271 OA
ATOM      4  N   UNL d   1      13.431  12.155  -3.475  0.00  0.00    -0.217 NA
ATOM      5  C   UNL d   1      13.718  12.676  -2.947  0.00  0.00     0.184 A 
ENDROOT
BRANCH   5   6
ATOM      6  C   UNL d   1      13.973  12.444  -2.211  0.00  0.00     0.041 A 
ATOM      7  C   UNL d   1      13.442  12.138  -1.655  0.00  0.00     0.004 A 
ATOM      8  C   UNL d   1      13.726  11.910  -0.917  0.00  0.00     0.011 A 
ATOM      9  C   UNL d   1      14.504  11.978  -0.726  0.00  0.00     0.058 A 
ATOM     10  C   UNL d   1      15.034  12.286  -1.287  0.00  0.00     0.011 A 
ATOM     11 CL   UNL d   1      14.924  11.786  -0.017  0.00  0.00    -0.082 Cl
ATOM     12  C   UNL d   1      14.754  12.518  -2.035  0.00  0.00     0.004 A 
ENDBRANCH   5   6
BRANCH   1  13
ATOM     13  N   UNL d   1      13.195  13.743  -4.686  0.00  0.00    -0.284 N 
ATOM     14  C   UNL d   1      13.009  13.727  -5.510  0.00  0.00     0.082 A 
ATOM     15  C   UNL d   1      12.822  14.431  -5.897  0.00  0.00     0.019 A 
ATOM     16  C   UNL d   1      12.814  15.158  -5.481  0.00  0.00     0.003 A 
ATOM     17  C   UNL d   1      12.994  15.180  -4.679  0.00  0.00     0.019 A 
ATOM     18  C   UNL d   1      13.187  14.469  -4.270  0.00  0.00     0.082 A 
ENDBRANCH   1  13
BRANCH   2  19
ATOM     19  C   UNL d   1      12.950  12.421  -4.799  0.00  0.00     0.145 C 
ATOM     20  N   UNL d   1      13.144  11.841  -5.669  0.00  0.00    -0.145 N 
ENDBRANCH   2  19
TORSDOF 3
ENDMDL
MODEL 2
REMARK VINA RESULT:      36.9      2.675      3.508
REMARK  3 active torsions:
REMARK  status: ('A' for Active; 'I' for Inactive)
REMARK    1  A    between atoms: N_6  and  C_1 
REMARK    2  A    between atoms: C_7  and  C_2 
REMARK    3  A    between atoms: C_9  and  C_5 
ROOT
ATOM      1  C   UNL d   1      14.125  13.511  -2.367  0.00  0.00     0.189 A 
ATOM      2  C   UNL d   1      14.369  13.250  -1.594  0.00  0.00     0.144 A 
ATOM      3  O   UNL d   1      14.301  14.341  -2.396  0.00  0.00    -0.271 OA
ATOM      4  N   UNL d   1      14.673  13.886  -1.186  0.00  0.00    -0.217 NA
ATOM      5  C   UNL d   1      14.638  14.532  -1.648  0.00  0.00     0.184 A 
ENDROOT
BRANCH   5   6
ATOM      6  C   UNL d   1      14.903  15.257  -1.392  0.00  0.00     0.041 A 
ATOM      7  C   UNL d   1      15.185  15.357  -0.621  0.00  0.00     0.004 A 
ATOM      8  C   UNL d   1      15.447  16.101  -0.386  0.00  0.00     0.011 A 
ATOM      9  C   UNL d   1      15.434  16.728  -0.888  0.00  0.00     0.058 A 
ATOM     10  C   UNL d   1      15.150  16.624  -1.662  0.00  0.00     0.011 A 
ATOM     11 CL   UNL d   1      15.669  17.535  -0.781  0.00  0.00    -0.082 Cl
ATOM     12  C   UNL d   1      14.883  15.875  -1.905  0.00  0.00     0.004 A 
ENDBRANCH   5   6
BRANCH   1  13
ATOM     13  N   UNL d   1      13.844  12.915  -2.739  0.00  0.00    -0.284 N 
ATOM     14  C   UNL d   1      13.660  12.091  -2.770  0.00  0.00     0.082 A 
ATOM     15  C   UNL d   1      13.308  11.779  -3.448  0.00  0.00     0.019 A 
ATOM     16  C   UNL d   1      13.133  12.271  -4.103  0.00  0.00     0.003 A 
ATOM     17  C   UNL d   1      13.309  13.073  -4.079  0.00  0.00     0.019 A 
ATOM     18  C   UNL d   1      13.669  13.406  -3.394  0.00  0.00     0.082 A 
ENDBRANCH   1  13
BRANCH   2  19
ATOM     19  C   UNL d   1      14.247  12.554  -1.504  0.00  0.00     0.145 C 
ATOM     20  N   UNL d   1      14.407  11.780  -0.792  0.00  0.00    -0.145 N 
ENDBRANCH   2  19
TORSDOF 3
ENDMDL
