MODEL 1
REMARK VINA RESULT:      -7.0      0.000      0.000
REMARK  4 active torsions:
REMARK  status: ('A' for Active; 'I' for Inactive)
REMARK       I    between atoms: N_3  and  C_1 
REMARK    1  A    between atoms: C_4  and  C_1 
REMARK    2  A    between atoms: N_2  and  C_4 
REMARK    3  A    between atoms: C_6  and  N_3 
REMARK    4  A    between atoms: O_17  and  C_9 
ROOT
ATOM      1  C   UNL d   1     -48.914  11.777  22.896  0.00  0.00     0.297 C 
ATOM      2  N   UNL d   1     -48.433  11.918  23.554  0.00  0.00    -0.207 NA
ATOM      3  O   UNL d   1     -48.578  11.508  22.194  0.00  0.00    -0.264 OA
ENDROOT
BRANCH   1   4
ATOM      4  C   UNL d   1     -49.724  11.904  22.942  0.00  0.00     0.144 C 
BRANCH   4   5
ATOM      5  N   UNL d   1     -50.061  12.584  22.594  0.00  0.00    -0.299 N 
ATOM      6  C   UNL d   1     -50.115  12.647  21.762  0.00  0.00     0.080 A 
ATOM      7  C   UNL d   1     -50.447  13.318  21.410  0.00  0.00     0.019 A 
ATOM      8  C   UNL d   1     -50.733  13.942  21.891  0.00  0.00     0.003 A 
ATOM      9  C   UNL d   1     -50.682  13.886  22.728  0.00  0.00     0.019 A 
ATOM     10  C   UNL d   1     -51.064  14.611  21.544  0.00  0.00     0.000 C 
ATOM     11  C   UNL d   1     -50.342  13.199  23.079  0.00  0.00     0.080 A 
ENDBRANCH   4   5
ENDBRANCH   1   4
BRANCH   2  12
ATOM     12  C   UNL d   1     -47.623  11.791  23.508  0.00  0.00     0.085 A 
ATOM     13  C   UNL d   1     -47.319  11.061  23.698  0.00  0.00     0.021 A 
ATOM     14  C   UNL d   1     -46.502  10.929  23.653  0.00  0.00     0.026 A 
ATOM     15  C   UNL d   1     -46.003  11.539  23.416  0.00  0.00     0.094 A 
ATOM     16  C   UNL d   1     -46.314  12.275  23.225  0.00  0.00     0.026 A 
ATOM     17  C   UNL d   1     -47.129  12.406  23.270  0.00  0.00     0.021 A 
BRANCH  15  18
ATOM     18  O   UNL d   1     -45.191  11.415  23.369  0.00  0.00    -0.328 OA
ATOM     19  C   UNL d   1     -44.872  10.678  23.547  0.00  0.00     0.181 C 
ENDBRANCH  15  18
ENDBRANCH   2  12
TORSDOF 4
ENDMDL
MODEL 2
REMARK VINA RESULT:      -6.4      1.274      1.584
REMARK  4 active torsions:
REMARK  status: ('A' for Active; 'I' for Inactive)
REMARK       I    between atoms: N_3  and  C_1 
REMARK    1  A    between atoms: C_4  and  C_1 
REMARK    2  A    between atoms: N_2  and  C_4 
REMARK    3  A    between atoms: C_6  and  N_3 
REMARK    4  A    between atoms: O_17  and  C_9 
ROOT
ATOM      1  C   UNL d   1     -47.994  12.745  23.022  0.00  0.00     0.297 C 
ATOM      2  N   UNL d   1     -47.330  13.097  23.367  0.00  0.00    -0.207 NA
ATOM      3  O   UNL d   1     -47.902  12.247  22.372  0.00  0.00    -0.264 OA
ENDROOT
BRANCH   1   4
ATOM      4  C   UNL d   1     -48.743  12.890  23.325  0.00  0.00     0.144 C 
BRANCH   4   5
ATOM      5  N   UNL d   1     -49.326  13.247  22.846  0.00  0.00    -0.299 N 
ATOM      6  C   UNL d   1     -49.434  14.076  22.863  0.00  0.00     0.080 A 
ATOM      7  C   UNL d   1     -50.009  14.437  22.391  0.00  0.00     0.019 A 
ATOM      8  C   UNL d   1     -50.490  13.969  21.890  0.00  0.00     0.003 A 
ATOM      9  C   UNL d   1     -50.388  13.135  21.868  0.00  0.00     0.019 A 
ATOM     10  C   UNL d   1     -51.064  14.325  21.419  0.00  0.00     0.000 C 
ATOM     11  C   UNL d   1     -49.800  12.774  22.352  0.00  0.00     0.080 A 
ENDBRANCH   4   5
ENDBRANCH   1   4
BRANCH   2  12
ATOM     12  C   UNL d   1     -46.581  12.951  23.063  0.00  0.00     0.085 A 
ATOM     13  C   UNL d   1     -46.183  12.276  23.281  0.00  0.00     0.021 A 
ATOM     14  C   UNL d   1     -45.427  12.126  22.977  0.00  0.00     0.026 A 
ATOM     15  C   UNL d   1     -45.083  12.661  22.455  0.00  0.00     0.094 A 
ATOM     16  C   UNL d   1     -45.489  13.341  22.237  0.00  0.00     0.026 A 
ATOM     17  C   UNL d   1     -46.243  13.491  22.541  0.00  0.00     0.021 A 
BRANCH  15  18
ATOM     18  O   UNL d   1     -44.333  12.519  22.149  0.00  0.00    -0.328 OA
ATOM     19  C   UNL d   1     -44.040  12.983  21.536  0.00  0.00     0.181 C 
ENDBRANCH  15  18
ENDBRANCH   2  12
TORSDOF 4
ENDMDL
MODEL 3
REMARK VINA RESULT:      -5.7      1.596      4.583
REMARK  4 active torsions:
REMARK  status: ('A' for Active; 'I' for Inactive)
REMARK       I    between atoms: N_3  and  C_1 
REMARK    1  A    between atoms: C_4  and  C_1 
REMARK    2  A    between atoms: N_2  and  C_4 
REMARK    3  A    between atoms: C_6  and  N_3 
REMARK    4  A    between atoms: O_17  and  C_9 
ROOT
ATOM      1  C   UNL d   1     -47.605  13.005  23.130  0.00  0.00     0.297 C 
ATOM      2  N   UNL d   1     -48.193  12.449  22.958  0.00  0.00    -0.207 NA
ATOM      3  O   UNL d   1     -47.736  13.801  22.968  0.00  0.00    -0.264 OA
ENDROOT
BRANCH   1   4
ATOM      4  C   UNL d   1     -46.893  12.765  23.462  0.00  0.00     0.144 C 
BRANCH   4   5
ATOM      5  N   UNL d   1     -46.192  12.793  23.010  0.00  0.00    -0.299 N 
ATOM      6  C   UNL d   1     -45.709  12.114  22.941  0.00  0.00     0.080 A 
ATOM      7  C   UNL d   1     -45.013  12.134  22.495  0.00  0.00     0.019 A 
ATOM      8  C   UNL d   1     -44.787  12.841  22.108  0.00  0.00     0.003 A 
ATOM      9  C   UNL d   1     -45.266  13.529  22.173  0.00  0.00     0.019 A 
ATOM     10  C   UNL d   1     -44.094  12.865  21.664  0.00  0.00     0.000 C 
ATOM     11  C   UNL d   1     -45.975  13.500  22.629  0.00  0.00     0.080 A 
ENDBRANCH   4   5
ENDBRANCH   1   4
BRANCH   2  12
ATOM     12  C   UNL d   1     -48.905  12.689  22.626  0.00  0.00     0.085 A 
ATOM     13  C   UNL d   1     -48.998  12.671  21.818  0.00  0.00     0.021 A 
ATOM     14  C   UNL d   1     -49.715  12.912  21.480  0.00  0.00     0.026 A 
ATOM     15  C   UNL d   1     -50.329  13.169  21.965  0.00  0.00     0.094 A 
ATOM     16  C   UNL d   1     -50.230  13.186  22.780  0.00  0.00     0.026 A 
ATOM     17  C   UNL d   1     -49.514  12.944  23.117  0.00  0.00     0.021 A 
BRANCH  15  18
ATOM     18  O   UNL d   1     -51.043  13.411  21.636  0.00  0.00    -0.328 OA
ATOM     19  C   UNL d   1     -51.064  14.037  21.103  0.00  0.00     0.181 C 
ENDBRANCH  15  18
ENDBRANCH   2  12
TORSDOF 4
ENDMDL
MODEL 4
REMARK VINA RESULT:      -5.7      9.192     10.354
REMARK  4 active torsions:
REMARK  status: ('A' for Active; 'I' for Inactive)
REMARK       I    between atoms: N_3  and  C_1 
REMARK    1  A    between atoms: C_4  and  C_1 
REMARK    2  A    between atoms: N_2  and  C_4 
REMARK    3  A    between atoms: C_6  and  N_3 
REMARK    4  A    between atoms: O_17  and  C_9 
ROOT
ATOM      1  C   UNL d   1     -40.121  14.740  19.016  0.00  0.00     0.297 C 
ATOM      2  N   UNL d   1     -40.455  14.490  19.730  0.00  0.00    -0.207 NA
ATOM      3  O   UNL d   1     -39.557  15.340  19.016  0.00  0.00    -0.264 OA
ENDROOT
BRANCH   1   4
ATOM      4  C   UNL d   1     -40.350  14.392  18.308  0.00  0.00     0.144 C 
BRANCH   4   5
ATOM      5  N   UNL d   1     -39.785  14.248  17.711  0.00  0.00    -0.299 N 
ATOM      6  C   UNL d   1     -39.316  13.556  17.734  0.00  0.00     0.080 A 
ATOM      7  C   UNL d   1     -38.754  13.407  17.145  0.00  0.00     0.019 A 
ATOM      8  C   UNL d   1     -38.652  13.954  16.520  0.00  0.00     0.003 A 
ATOM      9  C   UNL d   1     -39.119  14.653  16.490  0.00  0.00     0.019 A 
ATOM     10  C   UNL d   1     -38.093  13.809  15.932  0.00  0.00     0.000 C 
ATOM     11  C   UNL d   1     -39.690  14.797  17.093  0.00  0.00     0.080 A 
ENDBRANCH   4   5
ENDBRANCH   1   4
BRANCH   2  12
ATOM     12  C   UNL d   1     -40.226  14.838  20.438  0.00  0.00     0.085 A 
ATOM     13  C   UNL d   1     -39.701  14.452  20.924  0.00  0.00     0.021 A 
ATOM     14  C   UNL d   1     -39.468  14.800  21.639  0.00  0.00     0.026 A 
ATOM     15  C   UNL d   1     -39.769  15.536  21.852  0.00  0.00     0.094 A 
ATOM     16  C   UNL d   1     -40.299  15.922  21.358  0.00  0.00     0.026 A 
ATOM     17  C   UNL d   1     -40.532  15.574  20.644  0.00  0.00     0.021 A 
BRANCH  15  18
ATOM     18  O   UNL d   1     -39.542  15.887  22.560  0.00  0.00    -0.328 OA
ATOM     19  C   UNL d   1     -38.747  15.922  22.770  0.00  0.00     0.181 C 
ENDBRANCH  15  18
ENDBRANCH   2  12
TORSDOF 4
ENDMDL
MODEL 5
REMARK VINA RESULT:      -5.6      9.050     10.370
REMARK  4 active torsions:
REMARK  status: ('A' for Active; 'I' for Inactive)
REMARK       I    between atoms: N_3  and  C_1 
REMARK    1  A    between atoms: C_4  and  C_1 
REMARK    2  A    between atoms: N_2  and  C_4 
REMARK    3  A    between atoms: C_6  and  N_3 
REMARK    4  A    between atoms: O_17  and  C_9 
ROOT
ATOM      1  C   UNL d   1     -40.300  14.792  19.372  0.00  0.00     0.297 C 
ATOM      2  N   UNL d   1     -40.434  14.215  18.794  0.00  0.00    -0.207 NA
ATOM      3  O   UNL d   1     -39.787  15.417  19.215  0.00  0.00    -0.264 OA
ENDROOT
BRANCH   1   4
ATOM      4  C   UNL d   1     -40.677  14.742  20.100  0.00  0.00     0.144 C 
BRANCH   4   5
ATOM      5  N   UNL d   1     -40.263  14.937  20.798  0.00  0.00    -0.299 N 
ATOM      6  C   UNL d   1     -40.271  15.722  21.086  0.00  0.00     0.080 A 
ATOM      7  C   UNL d   1     -39.864  15.922  21.778  0.00  0.00     0.019 A 
ATOM      8  C   UNL d   1     -39.438  15.333  22.195  0.00  0.00     0.003 A 
ATOM      9  C   UNL d   1     -39.425  14.542  21.912  0.00  0.00     0.019 A 
ATOM     10  C   UNL d   1     -39.032  15.529  22.884  0.00  0.00     0.000 C 
ATOM     11  C   UNL d   1     -39.843  14.346  21.207  0.00  0.00     0.080 A 
ENDBRANCH   4   5
ENDBRANCH   1   4
BRANCH   2  12
ATOM     12  C   UNL d   1     -40.057  14.265  18.066  0.00  0.00     0.085 A 
ATOM     13  C   UNL d   1     -40.344  14.773  17.498  0.00  0.00     0.021 A 
ATOM     14  C   UNL d   1     -39.967  14.825  16.763  0.00  0.00     0.026 A 
ATOM     15  C   UNL d   1     -39.303  14.363  16.610  0.00  0.00     0.094 A 
ATOM     16  C   UNL d   1     -39.017  13.852  17.186  0.00  0.00     0.026 A 
ATOM     17  C   UNL d   1     -39.394  13.800  17.920  0.00  0.00     0.021 A 
BRANCH  15  18
ATOM     18  O   UNL d   1     -38.923  14.410  15.883  0.00  0.00    -0.328 OA
ATOM     19  C   UNL d   1     -38.140  14.660  15.838  0.00  0.00     0.181 C 
ENDBRANCH  15  18
ENDBRANCH   2  12
TORSDOF 4
ENDMDL
MODEL 6
REMARK VINA RESULT:      -5.4      9.668     10.632
REMARK  4 active torsions:
REMARK  status: ('A' for Active; 'I' for Inactive)
REMARK       I    between atoms: N_3  and  C_1 
REMARK    1  A    between atoms: C_4  and  C_1 
REMARK    2  A    between atoms: N_2  and  C_4 
REMARK    3  A    between atoms: C_6  and  N_3 
REMARK    4  A    between atoms: O_17  and  C_9 
ROOT
ATOM      1  C   UNL d   1     -39.101  15.113  19.925  0.00  0.00     0.297 C 
ATOM      2  N   UNL d   1     -38.971  15.058  19.110  0.00  0.00    -0.207 NA
ATOM      3  O   UNL d   1     -39.865  15.220  20.211  0.00  0.00    -0.264 OA
ENDROOT
BRANCH   1   4
ATOM      4  C   UNL d   1     -38.470  15.060  20.448  0.00  0.00     0.144 C 
BRANCH   4   5
ATOM      5  N   UNL d   1     -38.543  14.610  21.147  0.00  0.00    -0.299 N 
ATOM      6  C   UNL d   1     -38.318  13.805  21.154  0.00  0.00     0.080 A 
ATOM      7  C   UNL d   1     -38.388  13.352  21.843  0.00  0.00     0.019 A 
ATOM      8  C   UNL d   1     -38.688  13.703  22.542  0.00  0.00     0.003 A 
ATOM      9  C   UNL d   1     -38.917  14.512  22.543  0.00  0.00     0.019 A 
ATOM     10  C   UNL d   1     -38.759  13.256  23.230  0.00  0.00     0.000 C 
ATOM     11  C   UNL d   1     -38.843  14.966  21.837  0.00  0.00     0.080 A 
ENDBRANCH   4   5
ENDBRANCH   1   4
BRANCH   2  12
ATOM     12  C   UNL d   1     -39.602  15.112  18.587  0.00  0.00     0.085 A 
ATOM     13  C   UNL d   1     -39.906  14.435  18.252  0.00  0.00     0.021 A 
ATOM     14  C   UNL d   1     -40.542  14.485  17.725  0.00  0.00     0.026 A 
ATOM     15  C   UNL d   1     -40.864  15.219  17.541  0.00  0.00     0.094 A 
ATOM     16  C   UNL d   1     -40.555  15.900  17.881  0.00  0.00     0.026 A 
ATOM     17  C   UNL d   1     -39.919  15.850  18.408  0.00  0.00     0.021 A 
BRANCH  15  18
ATOM     18  O   UNL d   1     -41.496  15.276  17.018  0.00  0.00    -0.328 OA
ATOM     19  C   UNL d   1     -41.505  15.862  16.440  0.00  0.00     0.181 C 
ENDBRANCH  15  18
ENDBRANCH   2  12
TORSDOF 4
ENDMDL
