MODEL 1
REMARK VINA RESULT:       7.6      0.000      0.000
REMARK  3 active torsions:
REMARK  status: ('A' for Active; 'I' for Inactive)
REMARK    1  A    between atoms: C_6  and  C_2 
REMARK    2  A    between atoms: C_7  and  C_6 
REMARK    3  A    between atoms: C_8  and  C_7 
ROOT
ATOM      1  N   UNL d   1      46.157 -17.901  43.279  0.00  0.00    -0.225 NA
ATOM      2  C   UNL d   1      46.102 -17.608  44.073  0.00  0.00     0.163 A 
ATOM      3  N   UNL d   1      46.236 -18.240  44.581  0.00  0.00    -0.225 NA
ATOM      4  C   UNL d   1      46.320 -18.692  43.323  0.00  0.00     0.101 A 
ATOM      5  C   UNL d   1      46.376 -18.934  44.139  0.00  0.00     0.101 A 
ATOM      6  C   UNL d   1      46.440 -19.293  42.732  0.00  0.00     0.021 A 
ATOM      7  C   UNL d   1      46.539 -19.715  44.352  0.00  0.00     0.021 A 
ATOM      8  C   UNL d   1      46.647 -20.259  43.777  0.00  0.00     0.002 A 
ATOM      9  C   UNL d   1      46.598 -20.051  42.979  0.00  0.00     0.002 A 
ENDROOT
BRANCH   2  10
ATOM     10  C   UNL d   1      45.935 -16.799  44.065  0.00  0.00     0.039 C 
BRANCH  10  11
ATOM     11  C   UNL d   1      45.793 -16.410  44.770  0.00  0.00     0.003 C 
BRANCH  11  12
ATOM     12  C   UNL d   1      45.709 -15.586  44.772  0.00  0.00     0.000 A 
ATOM     13  C   UNL d   1      46.350 -15.094  44.600  0.00  0.00     0.001 A 
ATOM     14  C   UNL d   1      46.238 -14.281  44.610  0.00  0.00     0.011 A 
ATOM     15  C   UNL d   1      45.515 -13.954  44.783  0.00  0.00     0.058 A 
ATOM     16  C   UNL d   1      44.876 -14.447  44.955  0.00  0.00     0.011 A 
ATOM     17 CL   UNL d   1      45.430 -13.127  44.786  0.00  0.00    -0.082 Cl
ATOM     18  C   UNL d   1      44.982 -15.259  44.947  0.00  0.00     0.001 A 
ENDBRANCH  11  12
ENDBRANCH  10  11
ENDBRANCH   2  10
TORSDOF 3
ENDMDL
MODEL 2
REMARK VINA RESULT:       9.7      2.043      4.692
REMARK  3 active torsions:
REMARK  status: ('A' for Active; 'I' for Inactive)
REMARK    1  A    between atoms: C_6  and  C_2 
REMARK    2  A    between atoms: C_7  and  C_6 
REMARK    3  A    between atoms: C_8  and  C_7 
ROOT
ATOM      1  N   UNL d   1      45.067 -15.809  44.561  0.00  0.00    -0.225 NA
ATOM      2  C   UNL d   1      45.854 -16.111  44.470  0.00  0.00     0.163 A 
ATOM      3  N   UNL d   1      46.374 -15.480  44.557  0.00  0.00    -0.225 NA
ATOM      4  C   UNL d   1      45.126 -15.014  44.698  0.00  0.00     0.101 A 
ATOM      5  C   UNL d   1      45.945 -14.778  44.701  0.00  0.00     0.101 A 
ATOM      6  C   UNL d   1      44.547 -14.405  44.833  0.00  0.00     0.021 A 
ATOM      7  C   UNL d   1      46.173 -13.996  44.828  0.00  0.00     0.021 A 
ATOM      8  C   UNL d   1      45.610 -13.443  44.952  0.00  0.00     0.002 A 
ATOM      9  C   UNL d   1      44.809 -13.644  44.955  0.00  0.00     0.002 A 
ENDROOT
BRANCH   2  10
ATOM     10  C   UNL d   1      45.831 -16.924  44.328  0.00  0.00     0.039 C 
BRANCH  10  11
ATOM     11  C   UNL d   1      46.505 -17.309  44.072  0.00  0.00     0.003 C 
BRANCH  11  12
ATOM     12  C   UNL d   1      46.444 -18.063  43.736  0.00  0.00     0.000 A 
ATOM     13  C   UNL d   1      46.380 -18.158  42.918  0.00  0.00     0.001 A 
ATOM     14  C   UNL d   1      46.321 -18.917  42.612  0.00  0.00     0.011 A 
ATOM     15  C   UNL d   1      46.323 -19.571  43.094  0.00  0.00     0.058 A 
ATOM     16  C   UNL d   1      46.386 -19.474  43.911  0.00  0.00     0.011 A 
ATOM     17 CL   UNL d   1      46.261 -20.328  42.757  0.00  0.00    -0.082 Cl
ATOM     18  C   UNL d   1      46.446 -18.719  44.222  0.00  0.00     0.001 A 
ENDBRANCH  11  12
ENDBRANCH  10  11
ENDBRANCH   2  10
TORSDOF 3
ENDMDL
