MODEL 1
REMARK VINA RESULT:      -4.0      0.000      0.000
REMARK  2 active torsions:
REMARK  status: ('A' for Active; 'I' for Inactive)
REMARK    1  A    between atoms: N_14  and  C_4 
REMARK    2  A    between atoms: C_9  and  C_5 
ROOT
ATOM      1  C   UNL d   1     -41.700-122.429 -52.946  0.00  0.00     0.060 A 
ATOM      2  C   UNL d   1     -41.702-123.072 -52.430  0.00  0.00     0.197 A 
ATOM      3  C   UNL d   1     -41.512-121.670 -52.679  0.00  0.00     0.043 A 
ATOM      4  C   UNL d   1     -41.888-122.529 -53.749  0.00  0.00     0.090 A 
ATOM      5  C   UNL d   1     -41.887-121.885 -54.265  0.00  0.00     0.082 A 
ATOM      6  C   UNL d   1     -41.320-121.535 -51.888  0.00  0.00     0.196 A 
ATOM      7  C   UNL d   1     -41.510-122.937 -51.639  0.00  0.00     0.042 A 
ATOM      8  C   UNL d   1     -41.322-122.178 -51.372  0.00  0.00     0.042 A 
ATOM      9  C   UNL d   1     -41.514-121.019 -53.217  0.00  0.00     0.004 A 
ATOM     10  C   UNL d   1     -41.712-121.182 -54.018  0.00  0.00     0.008 A 
ATOM     11  O   UNL d   1     -41.891-123.816 -52.716  0.00  0.00    -0.286 OA
ATOM     12  O   UNL d   1     -41.130-120.747 -51.635  0.00  0.00    -0.287 OA
ATOM     13  C   UNL d   1     -41.507-123.590 -51.096  0.00  0.00     0.003 A 
ATOM     14  C   UNL d   1     -41.126-122.053 -50.555  0.00  0.00     0.003 A 
ATOM     15  C   UNL d   1     -41.127-122.696 -50.038  0.00  0.00     0.000 A 
ATOM     16  C   UNL d   1     -41.316-123.455 -50.305  0.00  0.00     0.000 A 
ENDROOT
BRANCH   5  17
ATOM     17  C   UNL d   1     -42.066-121.946 -55.061  0.00  0.00     0.212 C 
ATOM     18  O   UNL d   1     -42.849-122.012 -55.328  0.00  0.00    -0.644 OA
ATOM     19  O   UNL d   1     -41.481-121.945 -55.640  0.00  0.00    -0.644 OA
ENDBRANCH   5  17
BRANCH   4  20
ATOM     20  N   UNL d   1     -42.085-123.297 -54.051  0.00  0.00    -0.242 NA
ATOM     21  C   UNL d   1     -41.527-123.775 -54.398  0.00  0.00     0.119 C 
ENDBRANCH   4  20
TORSDOF 2
ENDMDL
MODEL 2
REMARK VINA RESULT:      -3.1      1.323      3.745
REMARK  2 active torsions:
REMARK  status: ('A' for Active; 'I' for Inactive)
REMARK    1  A    between atoms: N_14  and  C_4 
REMARK    2  A    between atoms: C_9  and  C_5 
ROOT
ATOM      1  C   UNL d   1     -41.820-122.465 -52.873  0.00  0.00     0.060 A 
ATOM      2  C   UNL d   1     -42.173-121.848 -53.291  0.00  0.00     0.197 A 
ATOM      3  C   UNL d   1     -41.482-123.106 -53.269  0.00  0.00     0.043 A 
ATOM      4  C   UNL d   1     -41.795-122.455 -52.043  0.00  0.00     0.090 A 
ATOM      5  C   UNL d   1     -41.441-123.073 -51.625  0.00  0.00     0.082 A 
ATOM      6  C   UNL d   1     -41.489-123.148 -54.092  0.00  0.00     0.196 A 
ATOM      7  C   UNL d   1     -42.180-121.889 -54.115  0.00  0.00     0.042 A 
ATOM      8  C   UNL d   1     -41.842-122.531 -54.510  0.00  0.00     0.042 A 
ATOM      9  C   UNL d   1     -41.123-123.733 -52.830  0.00  0.00     0.004 A 
ATOM     10  C   UNL d   1     -41.128-123.668 -51.992  0.00  0.00     0.008 A 
ATOM     11  O   UNL d   1     -42.502-121.221 -52.878  0.00  0.00    -0.286 OA
ATOM     12  O   UNL d   1     -41.136-123.817 -54.478  0.00  0.00    -0.287 OA
ATOM     13  C   UNL d   1     -42.541-121.261 -54.558  0.00  0.00     0.003 A 
ATOM     14  C   UNL d   1     -41.856-122.561 -55.359  0.00  0.00     0.003 A 
ATOM     15  C   UNL d   1     -42.210-121.944 -55.777  0.00  0.00     0.000 A 
ATOM     16  C   UNL d   1     -42.548-121.302 -55.382  0.00  0.00     0.000 A 
ENDROOT
BRANCH   5  17
ATOM     17  C   UNL d   1     -41.398-123.097 -50.809  0.00  0.00     0.212 C 
ATOM     18  O   UNL d   1     -41.606-123.777 -50.381  0.00  0.00    -0.644 OA
ATOM     19  O   UNL d   1     -41.147-122.450 -50.367  0.00  0.00    -0.644 OA
ENDBRANCH   5  17
BRANCH   4  20
ATOM     20  N   UNL d   1     -42.134-121.808 -51.611  0.00  0.00    -0.242 NA
ATOM     21  C   UNL d   1     -42.825-121.892 -51.191  0.00  0.00     0.119 C 
ENDBRANCH   4  20
TORSDOF 2
ENDMDL
MODEL 3
REMARK VINA RESULT:      -1.8      1.267      3.341
REMARK  2 active torsions:
REMARK  status: ('A' for Active; 'I' for Inactive)
REMARK    1  A    between atoms: N_14  and  C_4 
REMARK    2  A    between atoms: C_9  and  C_5 
ROOT
ATOM      1  C   UNL d   1     -41.772-122.468 -52.366  0.00  0.00     0.060 A 
ATOM      2  C   UNL d   1     -41.655-123.025 -52.962  0.00  0.00     0.197 A 
ATOM      3  C   UNL d   1     -41.843-121.664 -52.543  0.00  0.00     0.043 A 
ATOM      4  C   UNL d   1     -41.823-122.703 -51.571  0.00  0.00     0.090 A 
ATOM      5  C   UNL d   1     -41.941-122.145 -50.974  0.00  0.00     0.082 A 
ATOM      6  C   UNL d   1     -41.798-121.396 -53.322  0.00  0.00     0.196 A 
ATOM      7  C   UNL d   1     -41.609-122.757 -53.742  0.00  0.00     0.042 A 
ATOM      8  C   UNL d   1     -41.680-121.954 -53.919  0.00  0.00     0.042 A 
ATOM      9  C   UNL d   1     -41.964-121.102 -51.924  0.00  0.00     0.004 A 
ATOM     10  C   UNL d   1     -42.007-121.399 -51.138  0.00  0.00     0.008 A 
ATOM     11  O   UNL d   1     -41.587-123.817 -52.764  0.00  0.00    -0.286 OA
ATOM     12  O   UNL d   1     -41.873-120.566 -53.482  0.00  0.00    -0.287 OA
ATOM     13  C   UNL d   1     -41.488-123.320 -54.366  0.00  0.00     0.003 A 
ATOM     14  C   UNL d   1     -41.631-121.692 -54.725  0.00  0.00     0.003 A 
ATOM     15  C   UNL d   1     -41.513-122.249 -55.323  0.00  0.00     0.000 A 
ATOM     16  C   UNL d   1     -41.443-123.053 -55.145  0.00  0.00     0.000 A 
ENDROOT
BRANCH   5  17
ATOM     17  C   UNL d   1     -41.996-122.338 -50.181  0.00  0.00     0.212 C 
ATOM     18  O   UNL d   1     -42.717-122.554 -49.833  0.00  0.00    -0.644 OA
ATOM     19  O   UNL d   1     -41.339-122.330 -49.685  0.00  0.00    -0.644 OA
ENDBRANCH   5  17
BRANCH   4  20
ATOM     20  N   UNL d   1     -41.754-123.522 -51.359  0.00  0.00    -0.242 NA
ATOM     21  C   UNL d   1     -41.123-123.798 -50.927  0.00  0.00     0.119 C 
ENDBRANCH   4  20
TORSDOF 2
ENDMDL
