MODEL 1
REMARK VINA RESULT:      23.6      0.000      0.000
REMARK  2 active torsions:
REMARK  status: ('A' for Active; 'I' for Inactive)
REMARK    1  A    between atoms: C_10  and  N_3 
REMARK    2  A    between atoms: C_15  and  C_10 
ROOT
ATOM      1  C   UNL d   1     -54.731-101.278 -38.018  0.00  0.00     0.166 A 
ATOM      2  C   UNL d   1     -54.749-102.087 -37.854  0.00  0.00     0.117 A 
ATOM      3  N   UNL d   1     -54.728-100.896 -37.293  0.00  0.00    -0.289 N 
ATOM      4  N   UNL d   1     -54.721-101.004 -38.800  0.00  0.00    -0.225 NA
ATOM      5  N   UNL d   1     -54.755-102.605 -38.494  0.00  0.00    -0.241 NA
ATOM      6  C   UNL d   1     -54.756-102.188 -37.052  0.00  0.00     0.037 A 
ATOM      7  C   UNL d   1     -54.743-101.442 -36.700  0.00  0.00     0.067 A 
ATOM      8  C   UNL d   1     -54.727-101.531 -39.416  0.00  0.00     0.101 A 
ATOM      9  C   UNL d   1     -54.745-102.341 -39.252  0.00  0.00     0.099 A 
ATOM     10  C   UNL d   1     -54.773-102.866 -36.582  0.00  0.00     0.003 A 
ATOM     11  C   UNL d   1     -54.747-101.378 -35.881  0.00  0.00     0.018 A 
ATOM     12  C   UNL d   1     -54.752-102.871 -39.865  0.00  0.00     0.021 A 
ATOM     13  C   UNL d   1     -54.717-101.269 -40.171  0.00  0.00     0.021 A 
ATOM     14  C   UNL d   1     -54.777-102.797 -35.759  0.00  0.00     0.000 A 
ATOM     15  C   UNL d   1     -54.764-102.051 -35.407  0.00  0.00     0.002 A 
ATOM     16  C   UNL d   1     -54.724-101.823 -40.799  0.00  0.00     0.002 A 
ATOM     17  C   UNL d   1     -54.741-102.619 -40.658  0.00  0.00     0.002 A 
ENDROOT
BRANCH   3  18
ATOM     18  C   UNL d   1     -54.713-100.091 -37.188  0.00  0.00     0.082 C 
BRANCH  18  19
ATOM     19  C   UNL d   1     -54.760 -99.791 -36.407  0.00  0.00     0.019 C 
ATOM     20  C   UNL d   1     -54.771 -98.999 -36.280  0.00  0.00     0.002 C 
ENDBRANCH  18  19
ENDBRANCH   3  18
TORSDOF 2
ENDMDL
MODEL 2
REMARK VINA RESULT:      26.2      6.706      8.315
REMARK  2 active torsions:
REMARK  status: ('A' for Active; 'I' for Inactive)
REMARK    1  A    between atoms: C_10  and  N_3 
REMARK    2  A    between atoms: C_15  and  C_10 
ROOT
ATOM      1  C   UNL d   1     -57.722 -98.757 -44.171  0.00  0.00     0.166 A 
ATOM      2  C   UNL d   1     -57.622 -98.757 -44.991  0.00  0.00     0.117 A 
ATOM      3  N   UNL d   1     -58.530 -98.756 -44.037  0.00  0.00    -0.289 N 
ATOM      4  N   UNL d   1     -57.065 -98.757 -43.664  0.00  0.00    -0.225 NA
ATOM      5  N   UNL d   1     -56.852 -98.758 -45.281  0.00  0.00    -0.241 NA
ATOM      6  C   UNL d   1     -58.352 -98.757 -45.340  0.00  0.00     0.037 A 
ATOM      7  C   UNL d   1     -58.921 -98.756 -44.742  0.00  0.00     0.067 A 
ATOM      8  C   UNL d   1     -56.315 -98.757 -43.971  0.00  0.00     0.101 A 
ATOM      9  C   UNL d   1     -56.216 -98.758 -44.791  0.00  0.00     0.099 A 
ATOM     10  C   UNL d   1     -58.584 -98.757 -46.131  0.00  0.00     0.003 A 
ATOM     11  C   UNL d   1     -59.719 -98.756 -44.940  0.00  0.00     0.018 A 
ATOM     12  C   UNL d   1     -55.467 -98.758 -45.101  0.00  0.00     0.021 A 
ATOM     13  C   UNL d   1     -55.681 -98.758 -43.484  0.00  0.00     0.021 A 
ATOM     14  C   UNL d   1     -59.387 -98.756 -46.325  0.00  0.00     0.000 A 
ATOM     15  C   UNL d   1     -59.956 -98.756 -45.728  0.00  0.00     0.002 A 
ATOM     16  C   UNL d   1     -54.910 -98.758 -43.812  0.00  0.00     0.002 A 
ATOM     17  C   UNL d   1     -54.793 -98.759 -44.612  0.00  0.00     0.002 A 
ENDROOT
BRANCH   3  18
ATOM     18  C   UNL d   1     -58.884 -98.756 -43.307  0.00  0.00     0.082 C 
BRANCH  18  19
ATOM     19  C   UNL d   1     -59.670 -99.037 -43.245  0.00  0.00     0.019 C 
ATOM     20  C   UNL d   1     -59.956 -99.282 -42.537  0.00  0.00     0.002 C 
ENDBRANCH  18  19
ENDBRANCH   3  18
TORSDOF 2
ENDMDL
