MODEL 1
REMARK VINA RESULT:      28.6      0.000      0.000
REMARK  1 active torsions:
REMARK  status: ('A' for Active; 'I' for Inactive)
REMARK    1  A    between atoms: C_13  and  N_5 
ROOT
ATOM      1  C   UNL d   1      45.460 -15.795  44.162  0.00  0.00     0.170 A 
ATOM      2  C   UNL d   1      45.180 -16.539  44.228  0.00  0.00     0.093 A 
ATOM      3  C   UNL d   1      45.572 -17.153  43.902  0.00  0.00     0.172 A 
ATOM      4  N   UNL d   1      46.251 -17.017  43.506  0.00  0.00    -0.190 N 
ATOM      5  N   UNL d   1      45.061 -15.178  44.494  0.00  0.00    -0.212 N 
ATOM      6  N   UNL d   1      46.144 -15.660  43.764  0.00  0.00    -0.205 NA
ATOM      7  N   UNL d   1      45.286 -17.899  43.971  0.00  0.00    -0.206 NA
ATOM      8  N   UNL d   1      44.377 -15.326  44.891  0.00  0.00    -0.162 NA
ATOM      9  N   UNL d   1      46.646 -17.627  43.179  0.00  0.00    -0.143 NA
ATOM     10  C   UNL d   1      46.533 -16.273  43.439  0.00  0.00     0.203 A 
ATOM     11  C   UNL d   1      44.100 -16.067  44.955  0.00  0.00     0.127 A 
ATOM     12  C   UNL d   1      46.363 -18.365  43.247  0.00  0.00     0.184 A 
ATOM     13  C   UNL d   1      46.620 -19.145  42.979  0.00  0.00     0.044 C 
ENDROOT
BRANCH   5  14
ATOM     14  C   UNL d   1      45.353 -14.416  44.423  0.00  0.00     0.085 A 
ATOM     15  C   UNL d   1      45.076 -13.929  43.837  0.00  0.00     0.019 A 
ATOM     16  C   UNL d   1      45.373 -13.156  43.765  0.00  0.00     0.002 A 
ATOM     17  C   UNL d   1      45.086 -12.628  43.146  0.00  0.00     0.000 C 
ATOM     18  C   UNL d   1      45.953 -12.882  44.294  0.00  0.00     0.000 A 
ATOM     19  C   UNL d   1      46.226 -13.393  44.889  0.00  0.00     0.002 A 
ATOM     20  C   UNL d   1      46.266 -12.088  44.231  0.00  0.00     0.000 C 
ATOM     21  C   UNL d   1      45.929 -14.153  44.953  0.00  0.00     0.019 A 
ENDBRANCH   5  14
TORSDOF 1
ENDMDL
MODEL 2
REMARK VINA RESULT:      30.9      1.229      4.644
REMARK  1 active torsions:
REMARK  status: ('A' for Active; 'I' for Inactive)
REMARK    1  A    between atoms: C_13  and  N_5 
ROOT
ATOM      1  C   UNL d   1      46.165 -17.665  43.568  0.00  0.00     0.170 A 
ATOM      2  C   UNL d   1      46.075 -17.271  44.256  0.00  0.00     0.093 A 
ATOM      3  C   UNL d   1      45.967 -16.480  44.261  0.00  0.00     0.172 A 
ATOM      4  N   UNL d   1      45.949 -16.083  43.568  0.00  0.00    -0.190 N 
ATOM      5  N   UNL d   1      46.274 -18.464  43.568  0.00  0.00    -0.212 N 
ATOM      6  N   UNL d   1      46.147 -17.264  42.874  0.00  0.00    -0.205 NA
ATOM      7  N   UNL d   1      45.877 -16.088  44.955  0.00  0.00    -0.206 NA
ATOM      8  N   UNL d   1      46.290 -18.854  44.272  0.00  0.00    -0.162 NA
ATOM      9  N   UNL d   1      45.841 -15.294  43.569  0.00  0.00    -0.143 NA
ATOM     10  C   UNL d   1      46.039 -16.477  42.880  0.00  0.00     0.203 A 
ATOM     11  C   UNL d   1      46.201 -18.459  44.955  0.00  0.00     0.127 A 
ATOM     12  C   UNL d   1      45.753 -14.906  44.255  0.00  0.00     0.184 A 
ATOM     13  C   UNL d   1      45.628 -14.080  44.479  0.00  0.00     0.044 C 
ENDROOT
BRANCH   5  14
ATOM     14  C   UNL d   1      46.366 -18.865  42.860  0.00  0.00     0.085 A 
ATOM     15  C   UNL d   1      46.409 -18.450  42.164  0.00  0.00     0.019 A 
ATOM     16  C   UNL d   1      46.502 -18.857  41.445  0.00  0.00     0.002 A 
ATOM     17  C   UNL d   1      46.550 -18.429  40.697  0.00  0.00     0.000 C 
ATOM     18  C   UNL d   1      46.551 -19.687  41.439  0.00  0.00     0.000 A 
ATOM     19  C   UNL d   1      46.505 -20.096  42.161  0.00  0.00     0.002 A 
ATOM     20  C   UNL d   1      46.647 -20.117  40.706  0.00  0.00     0.000 C 
ATOM     21  C   UNL d   1      46.413 -19.689  42.865  0.00  0.00     0.019 A 
ENDBRANCH   5  14
TORSDOF 1
ENDMDL
