MODEL 1
REMARK VINA RESULT:      54.8      0.000      0.000
REMARK  6 active torsions:
REMARK  status: ('A' for Active; 'I' for Inactive)
REMARK    1  A    between atoms: C_2  and  C_1 
REMARK       I    between atoms: N_6  and  C_1 
REMARK    2  A    between atoms: O_15  and  C_3 
REMARK    3  A    between atoms: O_17  and  C_4 
REMARK    4  A    between atoms: O_16  and  C_5 
REMARK    5  A    between atoms: C_12  and  N_6 
REMARK    6  A    between atoms: N_11  and  C_9 
ROOT
ATOM      1  C   UNL d   1     -55.417-100.172 -43.940  0.00  0.00     0.074 A 
ATOM      2  C   UNL d   1     -54.970-101.643 -43.352  0.00  0.00     0.138 A 
ATOM      3  C   UNL d   1     -54.970-100.988 -42.862  0.00  0.00     0.118 A 
ATOM      4  C   UNL d   1     -55.195-101.557 -44.136  0.00  0.00     0.118 A 
ATOM      5  C   UNL d   1     -55.190-100.251 -43.143  0.00  0.00     0.032 A 
ATOM      6  C   UNL d   1     -55.421-100.826 -44.445  0.00  0.00     0.032 A 
ENDROOT
BRANCH   1   7
ATOM      7  C   UNL d   1     -55.641 -99.434 -44.235  0.00  0.00     0.328 C 
ATOM      8  N   UNL d   1     -56.364 -99.352 -44.610  0.00  0.00    -0.365 NA
ATOM      9  O   UNL d   1     -55.138 -98.784 -44.152  0.00  0.00    -0.251 OA
BRANCH   8  10
ATOM     10  C   UNL d   1     -57.089 -99.262 -44.988  0.00  0.00     0.135 A 
ATOM     11  C   UNL d   1     -57.126 -99.017 -45.780  0.00  0.00     0.034 A 
ATOM     12  C   UNL d   1     -57.851 -98.926 -46.158  0.00  0.00     0.020 A 
ATOM     13  C   UNL d   1     -58.544 -99.080 -45.751  0.00  0.00     0.064 A 
ATOM     14  C   UNL d   1     -58.515 -99.324 -44.963  0.00  0.00     0.020 A 
ATOM     15  C   UNL d   1     -57.782 -99.415 -44.581  0.00  0.00     0.034 A 
BRANCH  13  16
ATOM     16  N   UNL d   1     -59.276 -98.989 -46.129  0.00  0.00    -0.301 N 
ATOM     17  C   UNL d   1     -59.943 -98.781 -45.687  0.00  0.00     0.100 C 
ATOM     18  C   UNL d   1     -59.336 -99.108 -46.954  0.00  0.00     0.100 C 
ENDBRANCH  13  16
ENDBRANCH   8  10
ENDBRANCH   1   7
BRANCH   3  19
ATOM     19  O   UNL d   1     -54.745-101.069 -42.071  0.00  0.00    -0.326 OA
ATOM     20  C   UNL d   1     -54.843-100.424 -41.544  0.00  0.00     0.181 C 
ENDBRANCH   3  19
BRANCH   4  21
ATOM     21  O   UNL d   1     -55.195-102.226 -44.636  0.00  0.00    -0.326 OA
ATOM     22  C   UNL d   1     -54.856-102.176 -45.395  0.00  0.00     0.181 C 
ENDBRANCH   4  21
BRANCH   2  23
ATOM     23  O   UNL d   1     -54.747-102.380 -43.058  0.00  0.00    -0.324 OA
ATOM     24  C   UNL d   1     -54.781-102.538 -42.251  0.00  0.00     0.182 C 
ENDBRANCH   2  23
TORSDOF 6
ENDMDL
