MODEL 1
REMARK VINA RESULT:      32.1      0.000      0.000
REMARK  4 active torsions:
REMARK  status: ('A' for Active; 'I' for Inactive)
REMARK    1  A    between atoms: C_7  and  C_1 
REMARK    2  A    between atoms: C_12  and  C_6 
REMARK       I    between atoms: N_11  and  C_7 
REMARK    3  A    between atoms: C_20  and  N_11 
REMARK       I    between atoms: C_13  and  N_14 
REMARK    4  A    between atoms: N_14  and  C_21 
ROOT
ATOM      1  C   UNL d   1     -41.675-123.071 -51.464  0.00  0.00     0.108 A 
ATOM      2  C   UNL d   1     -42.141-123.125 -50.334  0.00  0.00     0.044 A 
ATOM      3  C   UNL d   1     -42.255-122.939 -51.050  0.00  0.00     0.116 A 
ATOM      4  C   UNL d   1     -41.431-123.399 -50.280  0.00  0.00     0.112 A 
ATOM      5  S   UNL d   1     -41.132-123.368 -50.985  0.00  0.00    -0.061 SA
ATOM      6  C   UNL d   1     -42.591-123.085 -49.701  0.00  0.00     0.005 A 
ATOM      7  N   UNL d   1     -41.147-123.643 -49.590  0.00  0.00    -0.239 NA
ATOM      8  C   UNL d   1     -42.320-123.324 -49.014  0.00  0.00     0.018 A 
ATOM      9  C   UNL d   1     -41.610-123.598 -48.959  0.00  0.00     0.082 A 
ATOM     10  N   UNL d   1     -43.022-122.577 -51.433  0.00  0.00    -0.147 N 
ATOM     11  C   UNL d   1     -42.685-123.341 -48.254  0.00  0.00     0.002 A 
ATOM     12  C   UNL d   1     -41.430-123.815 -48.211  0.00  0.00     0.019 A 
ATOM     13  C   UNL d   1     -42.138-123.646 -47.746  0.00  0.00     0.002 A 
ENDROOT
BRANCH   1  14
ATOM     14  C   UNL d   1     -41.541-122.922 -52.451  0.00  0.00     0.287 C 
ATOM     15  N   UNL d   1     -41.421-122.250 -53.167  0.00  0.00    -0.208 NA
ATOM     16  O   UNL d   1     -41.524-123.748 -52.858  0.00  0.00    -0.265 OA
BRANCH  15  17
ATOM     17  C   UNL d   1     -41.411-121.432 -52.980  0.00  0.00     0.085 A 
ATOM     18  C   UNL d   1     -41.141-121.202 -52.230  0.00  0.00     0.021 A 
ATOM     19  C   UNL d   1     -41.123-120.387 -52.025  0.00  0.00     0.021 A 
ATOM     20  C   UNL d   1     -41.375-119.809 -52.568  0.00  0.00     0.085 A 
ATOM     21  C   UNL d   1     -41.642-120.046 -53.312  0.00  0.00     0.021 A 
ATOM     22  C   UNL d   1     -41.660-120.854 -53.518  0.00  0.00     0.021 A 
BRANCH  20  23
ATOM     23  N   UNL d   1     -41.345-118.837 -52.300  0.00  0.00    -0.208 NA
ATOM     24  C   UNL d   1     -41.417-118.077 -53.228  0.00  0.00     0.279 C 
ATOM     25  O   UNL d   1     -41.385-116.984 -52.947  0.00  0.00    -0.265 OA
ATOM     26  C   UNL d   1     -41.531-118.285 -54.576  0.00  0.00     0.068 C 
ENDBRANCH  20  23
ENDBRANCH  15  17
ENDBRANCH   1  14
BRANCH   6  27
ATOM     27  C   UNL d   1     -43.351-122.792 -49.760  0.00  0.00     0.000 A 
ATOM     28  C   UNL d   1     -43.465-121.983 -49.826  0.00  0.00     0.000 A 
ATOM     29  C   UNL d   1     -44.225-121.690 -49.884  0.00  0.00     0.000 A 
ATOM     30  C   UNL d   1     -44.882-122.179 -49.879  0.00  0.00     0.000 A 
ATOM     31  C   UNL d   1     -44.772-122.979 -49.813  0.00  0.00     0.000 A 
ATOM     32  C   UNL d   1     -46.018-121.784 -49.963  0.00  0.00     0.000 C 
ATOM     33  C   UNL d   1     -44.010-123.303 -49.753  0.00  0.00     0.000 A 
ENDBRANCH   6  27
TORSDOF 4
ENDMDL
