MODEL 1
REMARK VINA RESULT:     129.1      0.000      0.000
REMARK  5 active torsions:
REMARK  status: ('A' for Active; 'I' for Inactive)
REMARK    1  A    between atoms: N_9  and  C_2 
REMARK    2  A    between atoms: N_12  and  C_6 
REMARK    3  A    between atoms: C_13  and  N_11 
REMARK    4  A    between atoms: C_18  and  N_12 
REMARK    5  A    between atoms: O_28  and  C_23 
ROOT
ATOM      1  N   UNL d   1      61.116  47.543  51.771  0.00  0.00    -0.041 NA
ATOM      2  C   UNL d   1      61.119  47.393  51.007  0.00  0.00     0.738 A 
ATOM      3  C   UNL d   1      60.947  48.260  52.026  0.00  0.00     0.187 A 
ATOM      4  N   UNL d   1      60.952  47.963  50.494  0.00  0.00    -0.041 NA
ATOM      5  C   UNL d   1      60.780  48.833  51.516  0.00  0.00     0.094 A 
ATOM      6  C   UNL d   1      60.782  48.685  50.743  0.00  0.00     0.185 A 
ATOM      7  N   UNL d   1      60.774  49.136  53.057  0.00  0.00    -0.162 NA
ATOM      8  N   UNL d   1      60.946  48.406  52.798  0.00  0.00    -0.208 N 
ATOM      9  C   UNL d   1      60.607  49.706  52.544  0.00  0.00     0.127 A 
ATOM     10  C   UNL d   1      61.112  47.839  53.309  0.00  0.00     0.123 C 
ENDROOT
BRANCH   2  11
ATOM     11  N   UNL d   1      61.297  46.634  50.733  0.00  0.00    -0.134 N 
ATOM     12  C   UNL d   1      61.179  46.442  49.939  0.00  0.00     0.117 A 
ATOM     13  C   UNL d   1      61.360  45.680  49.672  0.00  0.00     0.100 A 
ATOM     14  N   UNL d   1      61.657  45.113  50.197  0.00  0.00    -0.301 N 
ATOM     15  C   UNL d   1      61.773  45.308  50.988  0.00  0.00     0.100 A 
ATOM     16  C   UNL d   1      61.594  46.067  51.257  0.00  0.00     0.117 A 
BRANCH  14  17
ATOM     17  C   UNL d   1      61.836  44.352  49.925  0.00  0.00     0.064 A 
ATOM     18  C   UNL d   1      61.855  44.207  49.107  0.00  0.00     0.020 A 
ATOM     19  C   UNL d   1      62.034  43.446  48.836  0.00  0.00     0.031 A 
ATOM     20  C   UNL d   1      62.194  42.834  49.382  0.00  0.00     0.140 A 
ATOM     21  C   UNL d   1      62.170  43.003  50.199  0.00  0.00     0.031 A 
ATOM     22  F   UNL d   1      62.373  42.074  49.113  0.00  0.00    -0.204 F 
ATOM     23  C   UNL d   1      61.992  43.760  50.465  0.00  0.00     0.020 A 
ENDBRANCH  14  17
ENDBRANCH   2  11
BRANCH   6  24
ATOM     24  N   UNL d   1      60.609  49.274  50.204  0.00  0.00    -0.226 NA
BRANCH  24  25
ATOM     25  C   UNL d   1      59.837  49.401  49.967  0.00  0.00     0.085 A 
ATOM     26  C   UNL d   1      59.213  49.361  50.509  0.00  0.00     0.043 A 
ATOM     27  C   UNL d   1      58.438  49.489  50.272  0.00  0.00     0.096 A 
ATOM     28  C   UNL d   1      58.279  49.661  49.478  0.00  0.00     0.024 A 
ATOM     29  C   UNL d   1      58.891  49.702  48.938  0.00  0.00     0.004 A 
ATOM     30  C   UNL d   1      59.672  49.572  49.182  0.00  0.00     0.019 A 
BRANCH  27  31
ATOM     31  O   UNL d   1      57.821  49.448  50.814  0.00  0.00    -0.328 OA
ATOM     32  C   UNL d   1      57.311  48.845  51.052  0.00  0.00     0.181 C 
ENDBRANCH  27  31
ENDBRANCH  24  25
ENDBRANCH   6  24
TORSDOF 5
ENDMDL
