MODEL 1
REMARK VINA RESULT:      -7.6      0.000      0.000
REMARK  5 active torsions:
REMARK  status: ('A' for Active; 'I' for Inactive)
REMARK    1  A    between atoms: O_8  and  C_2 
REMARK    2  A    between atoms: C_11  and  C_5 
REMARK    3  A    between atoms: C_15  and  O_8 
REMARK    4  A    between atoms: N_14  and  C_11 
REMARK    5  A    between atoms: O_23  and  C_16 
ROOT
ATOM      1  C   UNL d   1     -48.675  13.210  22.379  0.00  0.00     0.108 A 
ATOM      2  C   UNL d   1     -47.166  13.092  23.063  0.00  0.00     0.161 A 
ATOM      3  C   UNL d   1     -48.383  12.465  22.623  0.00  0.00     0.064 A 
ATOM      4  C   UNL d   1     -47.637  12.405  22.962  0.00  0.00     0.222 A 
ATOM      5  C   UNL d   1     -49.430  13.270  22.036  0.00  0.00     0.079 A 
ATOM      6  O   UNL d   1     -48.217  13.895  22.474  0.00  0.00    -0.305 OA
ATOM      7  C   UNL d   1     -47.455  13.830  22.821  0.00  0.00     0.126 A 
ATOM      8  C   UNL d   1     -48.858  11.789  22.519  0.00  0.00     0.009 A 
ATOM      9  C   UNL d   1     -49.890  12.589  21.939  0.00  0.00     0.199 A 
ATOM     10  O   UNL d   1     -47.345  11.672  23.204  0.00  0.00    -0.284 OA
ATOM     11  C   UNL d   1     -49.605  11.853  22.179  0.00  0.00     0.042 A 
ATOM     12  O   UNL d   1     -50.640  12.659  21.597  0.00  0.00    -0.286 OA
ATOM     13  C   UNL d   1     -46.993  14.504  22.920  0.00  0.00     0.029 C 
ENDROOT
BRANCH   2  14
ATOM     14  O   UNL d   1     -46.419  13.029  23.402  0.00  0.00    -0.302 OA
BRANCH  14  15
ATOM     15  C   UNL d   1     -45.764  12.877  22.927  0.00  0.00     0.100 A 
ATOM     16  C   UNL d   1     -45.339  12.177  23.029  0.00  0.00     0.027 A 
ATOM     17  C   UNL d   1     -44.688  12.022  22.560  0.00  0.00     0.026 A 
ATOM     18  C   UNL d   1     -44.453  12.572  21.978  0.00  0.00     0.094 A 
ATOM     19  C   UNL d   1     -44.881  13.271  21.880  0.00  0.00     0.026 A 
ATOM     20  C   UNL d   1     -45.536  13.423  22.355  0.00  0.00     0.027 A 
BRANCH  18  21
ATOM     21  O   UNL d   1     -43.798  12.419  21.504  0.00  0.00    -0.328 OA
ATOM     22  C   UNL d   1     -43.184  12.968  21.463  0.00  0.00     0.181 C 
ENDBRANCH  18  21
ENDBRANCH  14  15
ENDBRANCH   2  14
BRANCH   5  23
ATOM     23  C   UNL d   1     -49.715  14.006  21.797  0.00  0.00     0.086 C 
BRANCH  23  24
ATOM     24  N   UNL d   1     -50.436  14.271  22.077  0.00  0.00    -0.300 N 
ATOM     25  C   UNL d   1     -51.064  14.385  21.555  0.00  0.00     0.100 C 
ATOM     26  C   UNL d   1     -50.542  14.426  22.883  0.00  0.00     0.100 C 
ENDBRANCH  23  24
ENDBRANCH   5  23
TORSDOF 5
ENDMDL
MODEL 2
REMARK VINA RESULT:      -5.9      8.060      9.659
REMARK  5 active torsions:
REMARK  status: ('A' for Active; 'I' for Inactive)
REMARK    1  A    between atoms: O_8  and  C_2 
REMARK    2  A    between atoms: C_11  and  C_5 
REMARK    3  A    between atoms: C_15  and  O_8 
REMARK    4  A    between atoms: N_14  and  C_11 
REMARK    5  A    between atoms: O_23  and  C_16 
ROOT
ATOM      1  C   UNL d   1     -39.565  14.619  17.571  0.00  0.00     0.108 A 
ATOM      2  C   UNL d   1     -40.438  14.636  18.984  0.00  0.00     0.161 A 
ATOM      3  C   UNL d   1     -39.518  13.972  18.101  0.00  0.00     0.064 A 
ATOM      4  C   UNL d   1     -39.950  13.980  18.800  0.00  0.00     0.222 A 
ATOM      5  C   UNL d   1     -39.128  14.611  16.864  0.00  0.00     0.079 A 
ATOM      6  O   UNL d   1     -40.046  15.272  17.745  0.00  0.00    -0.305 OA
ATOM      7  C   UNL d   1     -40.485  15.276  18.460  0.00  0.00     0.126 A 
ATOM      8  C   UNL d   1     -39.030  13.326  17.909  0.00  0.00     0.009 A 
ATOM      9  C   UNL d   1     -38.648  13.961  16.688  0.00  0.00     0.199 A 
ATOM     10  O   UNL d   1     -39.906  13.345  19.325  0.00  0.00    -0.284 OA
ATOM     11  C   UNL d   1     -38.599  13.322  17.208  0.00  0.00     0.042 A 
ATOM     12  O   UNL d   1     -38.217  13.962  15.981  0.00  0.00    -0.286 OA
ATOM     13  C   UNL d   1     -40.965  15.920  18.641  0.00  0.00     0.029 C 
ENDROOT
BRANCH   2  14
ATOM     14  O   UNL d   1     -40.869  14.641  19.685  0.00  0.00    -0.302 OA
BRANCH  14  15
ATOM     15  C   UNL d   1     -40.510  14.878  20.387  0.00  0.00     0.100 A 
ATOM     16  C   UNL d   1     -40.404  15.682  20.540  0.00  0.00     0.027 A 
ATOM     17  C   UNL d   1     -40.048  15.922  21.235  0.00  0.00     0.026 A 
ATOM     18  C   UNL d   1     -39.791  15.354  21.790  0.00  0.00     0.094 A 
ATOM     19  C   UNL d   1     -39.898  14.551  21.631  0.00  0.00     0.026 A 
ATOM     20  C   UNL d   1     -40.258  14.314  20.930  0.00  0.00     0.027 A 
BRANCH  18  21
ATOM     21  O   UNL d   1     -39.431  15.592  22.491  0.00  0.00    -0.328 OA
ATOM     22  C   UNL d   1     -38.608  15.598  22.549  0.00  0.00     0.181 C 
ENDBRANCH  18  21
ENDBRANCH  14  15
ENDBRANCH   2  14
BRANCH   5  23
ATOM     23  C   UNL d   1     -39.177  15.249  16.345  0.00  0.00     0.086 C 
BRANCH  23  24
ATOM     24  N   UNL d   1     -38.495  15.643  16.123  0.00  0.00    -0.300 N 
ATOM     25  C   UNL d   1     -38.357  15.811  15.327  0.00  0.00     0.100 C 
ATOM     26  C   UNL d   1     -37.940  15.874  16.691  0.00  0.00     0.100 C 
ENDBRANCH  23  24
ENDBRANCH   5  23
TORSDOF 5
ENDMDL
MODEL 3
REMARK VINA RESULT:      -5.0      7.706      9.663
REMARK  5 active torsions:
REMARK  status: ('A' for Active; 'I' for Inactive)
REMARK    1  A    between atoms: O_8  and  C_2 
REMARK    2  A    between atoms: C_11  and  C_5 
REMARK    3  A    between atoms: C_15  and  O_8 
REMARK    4  A    between atoms: N_14  and  C_11 
REMARK    5  A    between atoms: O_23  and  C_16 
ROOT
ATOM      1  C   UNL d   1     -39.327  14.878  20.391  0.00  0.00     0.108 A 
ATOM      2  C   UNL d   1     -39.348  15.458  18.834  0.00  0.00     0.161 A 
ATOM      3  C   UNL d   1     -40.013  14.790  19.920  0.00  0.00     0.064 A 
ATOM      4  C   UNL d   1     -40.024  15.077  19.150  0.00  0.00     0.222 A 
ATOM      5  C   UNL d   1     -39.316  14.588  21.170  0.00  0.00     0.079 A 
ATOM      6  O   UNL d   1     -38.653  15.254  20.088  0.00  0.00    -0.305 OA
ATOM      7  C   UNL d   1     -38.668  15.545  19.301  0.00  0.00     0.126 A 
ATOM      8  C   UNL d   1     -40.680  14.410  20.242  0.00  0.00     0.009 A 
ATOM      9  C   UNL d   1     -39.987  14.213  21.475  0.00  0.00     0.199 A 
ATOM     10  O   UNL d   1     -40.699  14.992  18.682  0.00  0.00    -0.284 OA
ATOM     11  C   UNL d   1     -40.665  14.124  21.014  0.00  0.00     0.042 A 
ATOM     12  O   UNL d   1     -39.966  13.927  22.252  0.00  0.00    -0.286 OA
ATOM     13  C   UNL d   1     -38.004  15.920  18.991  0.00  0.00     0.029 C 
ENDROOT
BRANCH   2  14
ATOM     14  O   UNL d   1     -39.361  15.744  18.063  0.00  0.00    -0.302 OA
BRANCH  14  15
ATOM     15  C   UNL d   1     -39.124  15.260  17.441  0.00  0.00     0.100 A 
ATOM     16  C   UNL d   1     -38.334  15.257  17.204  0.00  0.00     0.027 A 
ATOM     17  C   UNL d   1     -38.094  14.778  16.587  0.00  0.00     0.026 A 
ATOM     18  C   UNL d   1     -38.649  14.291  16.197  0.00  0.00     0.094 A 
ATOM     19  C   UNL d   1     -39.438  14.297  16.438  0.00  0.00     0.026 A 
ATOM     20  C   UNL d   1     -39.675  14.782  17.060  0.00  0.00     0.027 A 
BRANCH  18  21
ATOM     21  O   UNL d   1     -38.410  13.807  15.576  0.00  0.00    -0.328 OA
ATOM     22  C   UNL d   1     -37.940  14.116  14.972  0.00  0.00     0.181 C 
ENDBRANCH  18  21
ENDBRANCH  14  15
ENDBRANCH   2  14
BRANCH   5  23
ATOM     23  C   UNL d   1     -38.638  14.676  21.631  0.00  0.00     0.086 C 
BRANCH  23  24
ATOM     24  N   UNL d   1     -38.699  14.997  22.382  0.00  0.00    -0.300 N 
ATOM     25  C   UNL d   1     -38.621  14.511  23.044  0.00  0.00     0.100 C 
ATOM     26  C   UNL d   1     -38.840  15.806  22.483  0.00  0.00     0.100 C 
ENDBRANCH  23  24
ENDBRANCH   5  23
TORSDOF 5
ENDMDL
