MODEL 1
REMARK VINA RESULT:      41.8      0.000      0.000
REMARK  9 active torsions:
REMARK  status: ('A' for Active; 'I' for Inactive)
REMARK    1  A    between atoms: C_2  and  S_1 
REMARK    2  A    between atoms: N_3  and  S_1 
REMARK    3  A    between atoms: C_14  and  N_3 
REMARK    4  A    between atoms: C_15  and  N_3 
REMARK    5  A    between atoms: C_6  and  C_7 
REMARK    6  A    between atoms: C_7  and  C_8 
REMARK    7  A    between atoms: C_8  and  C_12 
REMARK    8  A    between atoms: C_21  and  C_14 
REMARK    9  A    between atoms: C_20  and  C_15 
ROOT
ATOM      1  C   UNL d   1     -51.364  24.497  33.755  0.00  0.00     0.104 A 
ATOM      2  C   UNL d   1     -50.762  23.989  33.502  0.00  0.00     0.012 A 
ATOM      3  C   UNL d   1     -51.195  25.303  33.914  0.00  0.00     0.013 A 
ATOM      4  C   UNL d   1     -50.437  25.583  33.819  0.00  0.00     0.001 A 
ATOM      5  C   UNL d   1     -50.003  24.269  33.406  0.00  0.00     0.001 A 
ATOM      6  C   UNL d   1     -49.827  25.065  33.561  0.00  0.00     0.000 A 
ATOM      7  C   UNL d   1     -50.935  23.197  33.347  0.00  0.00     0.001 C 
ENDROOT
BRANCH   1   8
ATOM      8  S   UNL d   1     -52.143  24.209  33.854  0.00  0.00     0.272 S 
ATOM      9  O   UNL d   1     -51.868  23.652  34.402  0.00  0.00    -0.200 OA
ATOM     10  O   UNL d   1     -52.415  24.762  33.311  0.00  0.00    -0.200 OA
BRANCH   8  11
ATOM     11  N   UNL d   1     -52.902  23.929  33.949  0.00  0.00    -0.223 N 
BRANCH  11  12
ATOM     12  C   UNL d   1     -53.506  24.160  33.413  0.00  0.00     0.137 C 
BRANCH  12  13
ATOM     13  C   UNL d   1     -54.190  23.723  33.358  0.00  0.00     0.254 C 
ATOM     14  O   UNL d   1     -54.924  24.089  33.415  0.00  0.00    -0.281 OA
ENDBRANCH  12  13
ENDBRANCH  11  12
BRANCH  11  15
ATOM     15  C   UNL d   1     -53.084  23.415  34.575  0.00  0.00     0.137 C 
BRANCH  15  16
ATOM     16  C   UNL d   1     -53.441  23.720  35.256  0.00  0.00     0.254 C 
ATOM     17  O   UNL d   1     -53.599  23.210  35.886  0.00  0.00    -0.281 OA
ENDBRANCH  15  16
ENDBRANCH  11  15
ENDBRANCH   8  11
ENDBRANCH   1   8
BRANCH   4  18
ATOM     18  C   UNL d   1     -50.258  26.373  33.972  0.00  0.00     0.006 C 
BRANCH  18  19
ATOM     19  C   UNL d   1     -50.015  26.600  34.719  0.00  0.00     0.070 C 
BRANCH  19  20
ATOM     20  C   UNL d   1     -49.662  27.330  34.852  0.00  0.00     0.211 C 
ATOM     21  O   UNL d   1     -49.238  27.697  34.230  0.00  0.00    -0.644 OA
ATOM     22  O   UNL d   1     -49.718  27.696  35.570  0.00  0.00    -0.644 OA
ENDBRANCH  19  20
ENDBRANCH  18  19
ENDBRANCH   4  18
TORSDOF 9
ENDMDL
