MODEL 1
REMARK VINA RESULT:      -4.2      0.000      0.000
REMARK  5 active torsions:
REMARK  status: ('A' for Active; 'I' for Inactive)
REMARK    1  A    between atoms: C_2  and  C_1 
REMARK    2  A    between atoms: C_7  and  C_2 
REMARK    3  A    between atoms: O_17  and  C_6 
REMARK    4  A    between atoms: C_10  and  C_7 
REMARK    5  A    between atoms: O_18  and  C_8 
ROOT
ATOM      1  C   UNL d   1     -41.433-122.809 -51.055  0.00  0.00     0.042 C 
ENDROOT
BRANCH   1   2
ATOM      2  C   UNL d   1     -41.917-123.279 -50.589  0.00  0.00     0.199 C 
ATOM      3  O   UNL d   1     -42.477-123.782 -50.954  0.00  0.00    -0.286 OA
BRANCH   2   4
ATOM      4  C   UNL d   1     -41.863-123.268 -49.762  0.00  0.00     0.078 A 
ATOM      5  C   UNL d   1     -42.530-123.035 -49.314  0.00  0.00     0.202 A 
ATOM      6  C   UNL d   1     -42.489-123.020 -48.491  0.00  0.00     0.084 A 
ATOM      7  O   UNL d   1     -43.237-122.818 -49.702  0.00  0.00    -0.286 OA
ATOM      8  C   UNL d   1     -41.795-123.233 -48.116  0.00  0.00     0.199 A 
ATOM      9  C   UNL d   1     -41.128-123.467 -48.565  0.00  0.00     0.042 A 
ATOM     10  O   UNL d   1     -41.749-123.220 -47.286  0.00  0.00    -0.286 OA
ATOM     11  C   UNL d   1     -41.172-123.480 -49.375  0.00  0.00     0.010 A 
ENDBRANCH   2   4
ENDBRANCH   1   2
BRANCH   1  12
ATOM     12  C   UNL d   1     -41.412-122.897 -51.874  0.00  0.00     0.005 A 
ATOM     13  C   UNL d   1     -41.649-122.284 -52.355  0.00  0.00     0.026 A 
ATOM     14  C   UNL d   1     -41.623-122.383 -53.182  0.00  0.00     0.116 A 
ATOM     15  C   UNL d   1     -41.365-123.082 -53.514  0.00  0.00     0.116 A 
ATOM     16  C   UNL d   1     -41.123-123.709 -53.015  0.00  0.00     0.026 A 
ATOM     17  C   UNL d   1     -41.145-123.618 -52.185  0.00  0.00     0.002 A 
BRANCH  14  18
ATOM     18  O   UNL d   1     -41.864-121.760 -53.677  0.00  0.00    -0.326 OA
ATOM     19  C   UNL d   1     -42.374-121.176 -53.388  0.00  0.00     0.181 C 
ENDBRANCH  14  18
BRANCH  15  20
ATOM     20  O   UNL d   1     -41.335-123.193 -54.330  0.00  0.00    -0.326 OA
ATOM     21  C   UNL d   1     -41.730-123.816 -54.686  0.00  0.00     0.181 C 
ENDBRANCH  15  20
ENDBRANCH   1  12
TORSDOF 5
ENDMDL
MODEL 2
REMARK VINA RESULT:      -4.0      1.074      4.543
REMARK  5 active torsions:
REMARK  status: ('A' for Active; 'I' for Inactive)
REMARK    1  A    between atoms: C_2  and  C_1 
REMARK    2  A    between atoms: C_7  and  C_2 
REMARK    3  A    between atoms: O_17  and  C_6 
REMARK    4  A    between atoms: C_10  and  C_7 
REMARK    5  A    between atoms: O_18  and  C_8 
ROOT
ATOM      1  C   UNL d   1     -41.509-122.289 -52.170  0.00  0.00     0.042 C 
ENDROOT
BRANCH   1   2
ATOM      2  C   UNL d   1     -41.463-122.761 -52.839  0.00  0.00     0.199 C 
ATOM      3  O   UNL d   1     -41.184-123.546 -52.769  0.00  0.00    -0.286 OA
BRANCH   2   4
ATOM      4  C   UNL d   1     -41.688-122.477 -53.584  0.00  0.00     0.078 A 
ATOM      5  C   UNL d   1     -41.729-123.011 -54.228  0.00  0.00     0.202 A 
ATOM      6  C   UNL d   1     -41.951-122.741 -54.974  0.00  0.00     0.084 A 
ATOM      7  O   UNL d   1     -41.543-123.817 -54.112  0.00  0.00    -0.286 OA
ATOM      8  C   UNL d   1     -42.131-121.952 -55.082  0.00  0.00     0.199 A 
ATOM      9  C   UNL d   1     -42.091-121.418 -54.438  0.00  0.00     0.042 A 
ATOM     10  O   UNL d   1     -42.356-121.675 -55.833  0.00  0.00    -0.286 OA
ATOM     11  C   UNL d   1     -41.871-121.687 -53.704  0.00  0.00     0.010 A 
ENDBRANCH   2   4
ENDBRANCH   1   2
BRANCH   1  12
ATOM     12  C   UNL d   1     -41.605-122.617 -51.420  0.00  0.00     0.005 A 
ATOM     13  C   UNL d   1     -42.164-122.311 -50.912  0.00  0.00     0.026 A 
ATOM     14  C   UNL d   1     -42.254-122.650 -50.156  0.00  0.00     0.116 A 
ATOM     15  C   UNL d   1     -41.792-123.280 -49.920  0.00  0.00     0.116 A 
ATOM     16  C   UNL d   1     -41.219-123.589 -50.447  0.00  0.00     0.026 A 
ATOM     17  C   UNL d   1     -41.123-123.256 -51.206  0.00  0.00     0.002 A 
BRANCH  14  18
ATOM     18  O   UNL d   1     -42.823-122.341 -49.634  0.00  0.00    -0.326 OA
ATOM     19  C   UNL d   1     -43.502-121.976 -49.932  0.00  0.00     0.181 C 
ENDBRANCH  14  18
BRANCH  15  20
ATOM     20  O   UNL d   1     -41.871-123.624 -49.175  0.00  0.00    -0.326 OA
ATOM     21  C   UNL d   1     -41.213-123.794 -48.718  0.00  0.00     0.181 C 
ENDBRANCH  15  20
ENDBRANCH   1  12
TORSDOF 5
ENDMDL
