MODEL 1
REMARK VINA RESULT:      -3.0      0.000      0.000
REMARK  4 active torsions:
REMARK  status: ('A' for Active; 'I' for Inactive)
REMARK    1  A    between atoms: C_11  and  N_2 
REMARK    2  A    between atoms: N_3  and  C_14 
REMARK    3  A    between atoms: C_16  and  C_11 
REMARK    4  A    between atoms: C_14  and  C_16 
ROOT
ATOM      1  C   UNL d   1      32.567  18.681 -23.185  0.00  0.00     0.231 C 
ATOM      2  O   UNL d   1      31.822  18.896 -22.898  0.00  0.00    -0.283 OA
ENDROOT
BRANCH   1   3
ATOM      3  C   UNL d   1      32.633  18.122 -23.791  0.00  0.00     0.124 C 
BRANCH   3   4
ATOM      4  N   UNL d   1      32.127  17.467 -23.804  0.00  0.00    -0.303 N 
ATOM      5  C   UNL d   1      32.247  16.744 -23.404  0.00  0.00     0.064 A 
ATOM      6  C   UNL d   1      31.603  16.252 -23.575  0.00  0.00     0.018 A 
ATOM      7  C   UNL d   1      32.892  16.556 -22.924  0.00  0.00     0.019 C 
ATOM      8  C   UNL d   1      31.496  15.486 -23.294  0.00  0.00     0.002 C 
ATOM      9  C   UNL d   1      31.087  16.663 -24.077  0.00  0.00     0.018 A 
ATOM     10  C   UNL d   1      31.412  17.417 -24.219  0.00  0.00     0.064 A 
ATOM     11  C   UNL d   1      30.361  16.453 -24.426  0.00  0.00     0.002 A 
ATOM     12  C   UNL d   1      31.009  17.954 -24.709  0.00  0.00     0.018 A 
ATOM     13  C   UNL d   1      30.292  17.744 -25.052  0.00  0.00     0.002 A 
ATOM     14  C   UNL d   1      29.970  16.996 -24.911  0.00  0.00     0.000 A 
ENDBRANCH   3   4
ENDBRANCH   1   3
BRANCH   1  15
ATOM     15  C   UNL d   1      33.240  19.023 -22.867  0.00  0.00     0.138 C 
BRANCH  15  16
ATOM     16  N   UNL d   1      33.239  19.821 -22.641  0.00  0.00    -0.194 N 
ATOM     17  S   UNL d   1      33.238  20.107 -21.868  0.00  0.00     0.274 S 
ATOM     18  C   UNL d   1      33.237  20.930 -21.904  0.00  0.00     0.109 A 
ATOM     19  O   UNL d   1      33.238  19.320 -21.622  0.00  0.00    -0.200 OA
ATOM     20  O   UNL d   1      33.236  20.555 -21.175  0.00  0.00    -0.200 OA
ATOM     21  C   UNL d   1      33.238  21.150 -22.699  0.00  0.00     0.069 A 
ATOM     22  C   UNL d   1      33.235  21.509 -21.325  0.00  0.00     0.013 A 
ATOM     23  C   UNL d   1      33.238  21.942 -22.908  0.00  0.00     0.005 A 
ATOM     24  C   UNL d   1      33.239  20.463 -23.155  0.00  0.00     0.275 A 
ATOM     25  C   UNL d   1      33.236  22.516 -22.325  0.00  0.00     0.000 A 
ATOM     26  C   UNL d   1      33.235  22.297 -21.532  0.00  0.00     0.001 A 
ATOM     27  O   UNL d   1      33.241  20.426 -23.977  0.00  0.00    -0.266 OA
ENDBRANCH  15  16
ENDBRANCH   1  15
TORSDOF 4
ENDMDL
MODEL 2
REMARK VINA RESULT:      -2.8      0.594      1.541
REMARK  4 active torsions:
REMARK  status: ('A' for Active; 'I' for Inactive)
REMARK    1  A    between atoms: C_11  and  N_2 
REMARK    2  A    between atoms: N_3  and  C_14 
REMARK    3  A    between atoms: C_16  and  C_11 
REMARK    4  A    between atoms: C_14  and  C_16 
ROOT
ATOM      1  C   UNL d   1      32.630  19.073 -23.069  0.00  0.00     0.231 C 
ATOM      2  O   UNL d   1      31.861  19.111 -22.768  0.00  0.00    -0.283 OA
ENDROOT
BRANCH   1   3
ATOM      3  C   UNL d   1      32.784  18.652 -23.764  0.00  0.00     0.124 C 
BRANCH   3   4
ATOM      4  N   UNL d   1      32.339  17.976 -23.942  0.00  0.00    -0.303 N 
ATOM      5  C   UNL d   1      31.613  17.959 -24.354  0.00  0.00     0.064 A 
ATOM      6  C   UNL d   1      31.371  17.168 -24.404  0.00  0.00     0.018 A 
ATOM      7  C   UNL d   1      31.210  18.614 -24.655  0.00  0.00     0.019 C 
ATOM      8  C   UNL d   1      30.683  16.899 -24.766  0.00  0.00     0.002 C 
ATOM      9  C   UNL d   1      31.939  16.697 -24.029  0.00  0.00     0.018 A 
ATOM     10  C   UNL d   1      32.541  17.198 -23.742  0.00  0.00     0.064 A 
ATOM     11  C   UNL d   1      31.994  15.876 -23.907  0.00  0.00     0.002 A 
ATOM     12  C   UNL d   1      33.190  16.874 -23.337  0.00  0.00     0.018 A 
ATOM     13  C   UNL d   1      33.240  16.061 -23.218  0.00  0.00     0.002 A 
ATOM     14  C   UNL d   1      32.645  15.564 -23.502  0.00  0.00     0.000 A 
ENDBRANCH   3   4
ENDBRANCH   1   3
BRANCH   1  15
ATOM     15  C   UNL d   1      33.240  19.455 -22.678  0.00  0.00     0.138 C 
BRANCH  15  16
ATOM     16  N   UNL d   1      33.132  20.219 -22.374  0.00  0.00    -0.194 N 
ATOM     17  S   UNL d   1      33.005  20.415 -21.584  0.00  0.00     0.274 S 
ATOM     18  C   UNL d   1      32.927  21.234 -21.536  0.00  0.00     0.109 A 
ATOM     19  O   UNL d   1      33.053  19.607 -21.421  0.00  0.00    -0.200 OA
ATOM     20  O   UNL d   1      32.873  20.779 -20.856  0.00  0.00    -0.200 OA
ATOM     21  C   UNL d   1      33.006  21.541 -22.297  0.00  0.00     0.069 A 
ATOM     22  C   UNL d   1      32.796  21.740 -20.907  0.00  0.00     0.013 A 
ATOM     23  C   UNL d   1      32.953  22.348 -22.424  0.00  0.00     0.005 A 
ATOM     24  C   UNL d   1      33.132  20.913 -22.815  0.00  0.00     0.275 A 
ATOM     25  C   UNL d   1      32.821  22.851 -21.791  0.00  0.00     0.000 A 
ATOM     26  C   UNL d   1      32.743  22.544 -21.032  0.00  0.00     0.001 A 
ATOM     27  O   UNL d   1      33.240  20.969 -23.630  0.00  0.00    -0.266 OA
ENDBRANCH  15  16
ENDBRANCH   1  15
TORSDOF 4
ENDMDL
MODEL 3
REMARK VINA RESULT:      -2.4      1.201      4.985
REMARK  4 active torsions:
REMARK  status: ('A' for Active; 'I' for Inactive)
REMARK    1  A    between atoms: C_11  and  N_2 
REMARK    2  A    between atoms: N_3  and  C_14 
REMARK    3  A    between atoms: C_16  and  C_11 
REMARK    4  A    between atoms: C_14  and  C_16 
ROOT
ATOM      1  C   UNL d   1      32.586  19.240 -23.177  0.00  0.00     0.231 C 
ATOM      2  O   UNL d   1      31.819  19.449 -22.952  0.00  0.00    -0.283 OA
ENDROOT
BRANCH   1   3
ATOM      3  C   UNL d   1      33.237  19.554 -22.775  0.00  0.00     0.124 C 
BRANCH   3   4
ATOM      4  N   UNL d   1      33.238  20.351 -22.552  0.00  0.00    -0.303 N 
ATOM      5  C   UNL d   1      33.239  21.007 -23.069  0.00  0.00     0.064 A 
ATOM      6  C   UNL d   1      33.240  21.693 -22.605  0.00  0.00     0.018 A 
ATOM      7  C   UNL d   1      33.239  20.975 -23.894  0.00  0.00     0.019 C 
ATOM      8  C   UNL d   1      33.241  22.465 -22.889  0.00  0.00     0.002 C 
ATOM      9  C   UNL d   1      33.239  21.469 -21.807  0.00  0.00     0.018 A 
ATOM     10  C   UNL d   1      33.238  20.636 -21.774  0.00  0.00     0.064 A 
ATOM     11  C   UNL d   1      33.240  21.910 -21.102  0.00  0.00     0.002 A 
ATOM     12  C   UNL d   1      33.237  20.253 -21.037  0.00  0.00     0.018 A 
ATOM     13  C   UNL d   1      33.238  20.692 -20.341  0.00  0.00     0.002 A 
ATOM     14  C   UNL d   1      33.239  21.518 -20.374  0.00  0.00     0.000 A 
ENDBRANCH   3   4
ENDBRANCH   1   3
BRANCH   1  15
ATOM     15  C   UNL d   1      32.701  18.721 -23.800  0.00  0.00     0.138 C 
BRANCH  15  16
ATOM     16  N   UNL d   1      32.324  17.981 -23.805  0.00  0.00    -0.194 N 
ATOM     17  S   UNL d   1      31.695  17.760 -24.288  0.00  0.00     0.274 S 
ATOM     18  C   UNL d   1      31.499  16.980 -24.106  0.00  0.00     0.109 A 
ATOM     19  O   UNL d   1      31.730  18.518 -24.610  0.00  0.00    -0.200 OA
ATOM     20  O   UNL d   1      31.079  17.380 -24.685  0.00  0.00    -0.200 OA
ATOM     21  C   UNL d   1      32.009  16.723 -23.511  0.00  0.00     0.069 A 
ATOM     22  C   UNL d   1      30.929  16.470 -24.398  0.00  0.00     0.013 A 
ATOM     23  C   UNL d   1      31.946  15.963 -23.213  0.00  0.00     0.005 A 
ATOM     24  C   UNL d   1      32.519  17.343 -23.325  0.00  0.00     0.275 A 
ATOM     25  C   UNL d   1      31.374  15.456 -23.509  0.00  0.00     0.000 A 
ATOM     26  C   UNL d   1      30.866  15.713 -24.103  0.00  0.00     0.001 A 
ATOM     27  O   UNL d   1      33.118  17.326 -22.759  0.00  0.00    -0.266 OA
ENDBRANCH  15  16
ENDBRANCH   1  15
TORSDOF 4
ENDMDL
MODEL 4
REMARK VINA RESULT:      -2.4      1.523      4.851
REMARK  4 active torsions:
REMARK  status: ('A' for Active; 'I' for Inactive)
REMARK    1  A    between atoms: C_11  and  N_2 
REMARK    2  A    between atoms: N_3  and  C_14 
REMARK    3  A    between atoms: C_16  and  C_11 
REMARK    4  A    between atoms: C_14  and  C_16 
ROOT
ATOM      1  C   UNL d   1      32.268  18.493 -23.979  0.00  0.00     0.231 C 
ATOM      2  O   UNL d   1      31.588  18.889 -23.727  0.00  0.00    -0.283 OA
ENDROOT
BRANCH   1   3
ATOM      3  C   UNL d   1      33.013  18.832 -23.862  0.00  0.00     0.124 C 
BRANCH   3   4
ATOM      4  N   UNL d   1      33.075  19.635 -23.672  0.00  0.00    -0.303 N 
ATOM      5  C   UNL d   1      33.127  20.268 -24.215  0.00  0.00     0.064 A 
ATOM      6  C   UNL d   1      33.180  20.970 -23.778  0.00  0.00     0.018 A 
ATOM      7  C   UNL d   1      33.126  20.202 -25.038  0.00  0.00     0.019 C 
ATOM      8  C   UNL d   1      33.241  21.727 -24.094  0.00  0.00     0.002 C 
ATOM      9  C   UNL d   1      33.161  20.779 -22.972  0.00  0.00     0.018 A 
ATOM     10  C   UNL d   1      33.096  19.950 -22.906  0.00  0.00     0.064 A 
ATOM     11  C   UNL d   1      33.195  21.247 -22.286  0.00  0.00     0.002 A 
ATOM     12  C   UNL d   1      33.066  19.598 -22.154  0.00  0.00     0.018 A 
ATOM     13  C   UNL d   1      33.099  20.064 -21.477  0.00  0.00     0.002 A 
ATOM     14  C   UNL d   1      33.163  20.885 -21.542  0.00  0.00     0.000 A 
ENDBRANCH   3   4
ENDBRANCH   1   3
BRANCH   1  15
ATOM     15  C   UNL d   1      32.202  17.763 -24.344  0.00  0.00     0.138 C 
BRANCH  15  16
ATOM     16  N   UNL d   1      31.550  17.274 -24.191  0.00  0.00    -0.194 N 
ATOM     17  S   UNL d   1      31.538  16.622 -23.688  0.00  0.00     0.274 S 
ATOM     18  C   UNL d   1      30.778  16.304 -23.705  0.00  0.00     0.109 A 
ATOM     19  O   UNL d   1      32.333  16.781 -23.533  0.00  0.00    -0.200 OA
ATOM     20  O   UNL d   1      31.353  15.958 -23.235  0.00  0.00    -0.200 OA
ATOM     21  C   UNL d   1      30.323  16.760 -24.220  0.00  0.00     0.069 A 
ATOM     22  C   UNL d   1      30.439  15.663 -23.325  0.00  0.00     0.013 A 
ATOM     23  C   UNL d   1      29.536  16.574 -24.350  0.00  0.00     0.005 A 
ATOM     24  C   UNL d   1      30.801  17.360 -24.521  0.00  0.00     0.275 A 
ATOM     25  C   UNL d   1      29.201  15.932 -23.968  0.00  0.00     0.000 A 
ATOM     26  C   UNL d   1      29.655  15.477 -23.454  0.00  0.00     0.001 A 
ATOM     27  O   UNL d   1      30.571  17.943 -25.055  0.00  0.00    -0.266 OA
ENDBRANCH  15  16
ENDBRANCH   1  15
TORSDOF 4
ENDMDL
MODEL 5
REMARK VINA RESULT:      -1.1      1.244      4.673
REMARK  4 active torsions:
REMARK  status: ('A' for Active; 'I' for Inactive)
REMARK    1  A    between atoms: C_11  and  N_2 
REMARK    2  A    between atoms: N_3  and  C_14 
REMARK    3  A    between atoms: C_16  and  C_11 
REMARK    4  A    between atoms: C_14  and  C_16 
ROOT
ATOM      1  C   UNL d   1      32.564  18.608 -22.989  0.00  0.00     0.231 C 
ATOM      2  O   UNL d   1      31.838  18.733 -22.614  0.00  0.00    -0.283 OA
ENDROOT
BRANCH   1   3
ATOM      3  C   UNL d   1      33.241  19.001 -22.724  0.00  0.00     0.124 C 
BRANCH   3   4
ATOM      4  N   UNL d   1      33.212  19.815 -22.574  0.00  0.00    -0.303 N 
ATOM      5  C   UNL d   1      33.179  20.177 -21.822  0.00  0.00     0.064 A 
ATOM      6  C   UNL d   1      33.158  20.997 -21.939  0.00  0.00     0.018 A 
ATOM      7  C   UNL d   1      33.168  19.785 -21.095  0.00  0.00     0.019 C 
ATOM      8  C   UNL d   1      33.123  21.565 -21.344  0.00  0.00     0.002 C 
ATOM      9  C   UNL d   1      33.179  21.146 -22.753  0.00  0.00     0.018 A 
ATOM     10  C   UNL d   1      33.212  20.412 -23.148  0.00  0.00     0.064 A 
ATOM     11  C   UNL d   1      33.171  21.852 -23.193  0.00  0.00     0.002 A 
ATOM     12  C   UNL d   1      33.238  20.392 -23.978  0.00  0.00     0.018 A 
ATOM     13  C   UNL d   1      33.231  21.092 -24.410  0.00  0.00     0.002 A 
ATOM     14  C   UNL d   1      33.198  21.819 -24.019  0.00  0.00     0.000 A 
ENDBRANCH   3   4
ENDBRANCH   1   3
BRANCH   1  15
ATOM     15  C   UNL d   1      32.611  18.094 -23.625  0.00  0.00     0.138 C 
BRANCH  15  16
ATOM     16  N   UNL d   1      31.993  17.564 -23.784  0.00  0.00    -0.194 N 
ATOM     17  S   UNL d   1      31.918  16.800 -23.486  0.00  0.00     0.274 S 
ATOM     18  C   UNL d   1      31.222  16.478 -23.789  0.00  0.00     0.109 A 
ATOM     19  O   UNL d   1      32.628  16.932 -23.088  0.00  0.00    -0.200 OA
ATOM     20  O   UNL d   1      31.691  16.033 -23.285  0.00  0.00    -0.200 OA
ATOM     21  C   UNL d   1      30.870  17.045 -24.273  0.00  0.00     0.069 A 
ATOM     22  C   UNL d   1      30.862  15.749 -23.691  0.00  0.00     0.013 A 
ATOM     23  C   UNL d   1      30.164  16.881 -24.654  0.00  0.00     0.005 A 
ATOM     24  C   UNL d   1      31.347  17.717 -24.270  0.00  0.00     0.275 A 
ATOM     25  C   UNL d   1      29.807  16.150 -24.553  0.00  0.00     0.000 A 
ATOM     26  C   UNL d   1      30.159  15.585 -24.070  0.00  0.00     0.001 A 
ATOM     27  O   UNL d   1      31.203  18.417 -24.680  0.00  0.00    -0.266 OA
ENDBRANCH  15  16
ENDBRANCH   1  15
TORSDOF 4
ENDMDL
