MODEL 1
REMARK VINA RESULT:      -2.6      0.000      0.000
REMARK  6 active torsions:
REMARK  status: ('A' for Active; 'I' for Inactive)
REMARK    1  A    between atoms: S_9  and  C_4 
REMARK    2  A    between atoms: C_15  and  S_9 
REMARK    3  A    between atoms: C_11  and  C_15 
REMARK    4  A    between atoms: O_14  and  C_11 
REMARK    5  A    between atoms: C_17  and  O_14 
REMARK    6  A    between atoms: C_18  and  C_17 
ROOT
ATOM      1  C   UNL d   1      31.198  16.406 -24.063  0.00  0.00     0.104 A 
ATOM      2  N   UNL d   1      32.450  16.871 -23.562  0.00  0.00    -0.251 N 
ATOM      3  C   UNL d   1      31.928  16.246 -23.739  0.00  0.00     0.274 A 
ATOM      4  C   UNL d   1      32.224  17.648 -23.718  0.00  0.00     0.182 A 
ATOM      5  C   UNL d   1      30.972  17.184 -24.218  0.00  0.00     0.095 A 
ATOM      6  N   UNL d   1      31.475  17.802 -24.050  0.00  0.00    -0.222 NA
ATOM      7  S   UNL d   1      30.580  15.913 -24.290  0.00  0.00    -0.081 SA
ATOM      8  C   UNL d   1      30.214  17.171 -24.542  0.00  0.00     0.026 A 
ATOM      9  O   UNL d   1      32.154  15.468 -23.583  0.00  0.00    -0.266 OA
ATOM     10  C   UNL d   1      29.972  16.391 -24.586  0.00  0.00     0.031 A 
ATOM     11  C   UNL d   1      33.196  16.712 -23.231  0.00  0.00     0.104 C 
ATOM     12  C   UNL d   1      29.244  16.136 -24.878  0.00  0.00     0.007 C 
ENDROOT
BRANCH   4  13
ATOM     13  S   UNL d   1      32.739  18.281 -23.546  0.00  0.00    -0.044 SA
BRANCH  13  14
ATOM     14  C   UNL d   1      32.507  18.859 -23.004  0.00  0.00     0.107 C 
BRANCH  14  15
ATOM     15  C   UNL d   1      32.878  19.597 -23.004  0.00  0.00     0.307 C 
ATOM     16  O   UNL d   1      33.241  19.876 -23.691  0.00  0.00    -0.258 OA
BRANCH  15  17
ATOM     17  O   UNL d   1      32.887  20.054 -22.317  0.00  0.00    -0.271 OA
BRANCH  17  18
ATOM     18  C   UNL d   1      32.934  20.877 -22.371  0.00  0.00     0.126 C 
BRANCH  18  19
ATOM     19  C   UNL d   1      32.851  21.337 -21.697  0.00  0.00     0.025 A 
ATOM     20  C   UNL d   1      33.083  22.129 -21.707  0.00  0.00     0.002 A 
ATOM     21  C   UNL d   1      32.999  22.592 -21.029  0.00  0.00     0.000 A 
ATOM     22  C   UNL d   1      32.683  22.262 -20.341  0.00  0.00     0.000 A 
ATOM     23  C   UNL d   1      32.455  21.477 -20.335  0.00  0.00     0.000 A 
ATOM     24  C   UNL d   1      32.539  21.014 -21.013  0.00  0.00     0.002 A 
ENDBRANCH  18  19
ENDBRANCH  17  18
ENDBRANCH  15  17
ENDBRANCH  14  15
ENDBRANCH  13  14
ENDBRANCH   4  13
TORSDOF 6
ENDMDL
MODEL 2
REMARK VINA RESULT:      -1.9      2.128      5.809
REMARK  6 active torsions:
REMARK  status: ('A' for Active; 'I' for Inactive)
REMARK    1  A    between atoms: S_9  and  C_4 
REMARK    2  A    between atoms: C_15  and  S_9 
REMARK    3  A    between atoms: C_11  and  C_15 
REMARK    4  A    between atoms: O_14  and  C_11 
REMARK    5  A    between atoms: C_17  and  O_14 
REMARK    6  A    between atoms: C_18  and  C_17 
ROOT
ATOM      1  C   UNL d   1      32.772  22.586 -21.238  0.00  0.00     0.104 A 
ATOM      2  N   UNL d   1      33.082  21.860 -22.426  0.00  0.00    -0.251 N 
ATOM      3  C   UNL d   1      32.924  22.580 -22.038  0.00  0.00     0.274 A 
ATOM      4  C   UNL d   1      33.084  21.157 -21.996  0.00  0.00     0.182 A 
ATOM      5  C   UNL d   1      32.774  21.882 -20.808  0.00  0.00     0.095 A 
ATOM      6  N   UNL d   1      32.927  21.173 -21.177  0.00  0.00    -0.222 NA
ATOM      7  S   UNL d   1      32.602  23.199 -20.717  0.00  0.00    -0.081 SA
ATOM      8  C   UNL d   1      32.605  22.061 -20.022  0.00  0.00     0.026 A 
ATOM      9  O   UNL d   1      32.922  23.284 -22.468  0.00  0.00    -0.266 OA
ATOM     10  C   UNL d   1      32.499  22.870 -19.964  0.00  0.00     0.031 A 
ATOM     11  C   UNL d   1      33.237  21.850 -23.243  0.00  0.00     0.104 C 
ATOM     12  C   UNL d   1      32.320  23.277 -19.270  0.00  0.00     0.007 C 
ENDROOT
BRANCH   4  13
ATOM     13  S   UNL d   1      33.241  20.431 -22.375  0.00  0.00    -0.044 SA
BRANCH  13  14
ATOM     14  C   UNL d   1      32.622  19.903 -22.516  0.00  0.00     0.107 C 
BRANCH  14  15
ATOM     15  C   UNL d   1      32.782  19.101 -22.632  0.00  0.00     0.307 C 
ATOM     16  O   UNL d   1      33.213  18.680 -22.067  0.00  0.00    -0.258 OA
BRANCH  15  17
ATOM     17  O   UNL d   1      32.512  18.720 -23.312  0.00  0.00    -0.271 OA
BRANCH  17  18
ATOM     18  C   UNL d   1      32.464  17.897 -23.332  0.00  0.00     0.126 C 
BRANCH  18  19
ATOM     19  C   UNL d   1      31.906  17.530 -23.810  0.00  0.00     0.025 A 
ATOM     20  C   UNL d   1      31.527  16.845 -23.549  0.00  0.00     0.002 A 
ATOM     21  C   UNL d   1      30.966  16.476 -24.029  0.00  0.00     0.000 A 
ATOM     22  C   UNL d   1      30.784  16.793 -24.769  0.00  0.00     0.000 A 
ATOM     23  C   UNL d   1      31.162  17.473 -25.023  0.00  0.00     0.000 A 
ATOM     24  C   UNL d   1      31.723  17.841 -24.543  0.00  0.00     0.002 A 
ENDBRANCH  18  19
ENDBRANCH  17  18
ENDBRANCH  15  17
ENDBRANCH  14  15
ENDBRANCH  13  14
ENDBRANCH   4  13
TORSDOF 6
ENDMDL
