MODEL 1
REMARK VINA RESULT:      -5.1      0.000      0.000
REMARK  4 active torsions:
REMARK  status: ('A' for Active; 'I' for Inactive)
REMARK    1  A    between atoms: S_10  and  C_6 
REMARK    2  A    between atoms: C_16  and  S_10 
REMARK    3  A    between atoms: C_11  and  C_16 
REMARK       I    between atoms: N_13  and  C_11 
REMARK    4  A    between atoms: C_14  and  N_13 
ROOT
ATOM      1  C   UNL d   1     -42.943-122.770 -49.063  0.00  0.00     0.155 A 
ATOM      2  C   UNL d   1     -42.133-122.940 -49.090  0.00  0.00     0.107 A 
ATOM      3  N   UNL d   1     -42.893-122.322 -50.420  0.00  0.00    -0.250 N 
ATOM      4  C   UNL d   1     -43.321-122.463 -49.724  0.00  0.00     0.285 A 
ATOM      5  N   UNL d   1     -41.703-122.799 -49.787  0.00  0.00    -0.220 NA
ATOM      6  C   UNL d   1     -42.091-122.491 -50.445  0.00  0.00     0.182 A 
ATOM      7  N   UNL d   1     -43.221-122.963 -48.310  0.00  0.00    -0.239 NA
ATOM      8  C   UNL d   1     -41.904-123.239 -48.357  0.00  0.00     0.037 A 
ATOM      9  C   UNL d   1     -42.580-123.254 -47.869  0.00  0.00     0.083 A 
ATOM     10  O   UNL d   1     -44.135-122.290 -49.704  0.00  0.00    -0.265 OA
ATOM     11  C   UNL d   1     -43.274-122.012 -51.090  0.00  0.00     0.104 C 
ATOM     12  C   UNL d   1     -41.180-123.498 -48.064  0.00  0.00     0.003 A 
ATOM     13  C   UNL d   1     -42.524-123.530 -47.089  0.00  0.00     0.019 A 
ATOM     14  C   UNL d   1     -41.123-123.774 -47.285  0.00  0.00     0.000 A 
ATOM     15  C   UNL d   1     -41.791-123.789 -46.802  0.00  0.00     0.002 A 
ENDROOT
BRANCH   6  16
ATOM     16  S   UNL d   1     -41.665-122.350 -51.141  0.00  0.00    -0.044 SA
BRANCH  16  17
ATOM     17  C   UNL d   1     -41.257-122.964 -51.512  0.00  0.00     0.101 C 
BRANCH  17  18
ATOM     18  C   UNL d   1     -41.323-123.071 -52.327  0.00  0.00     0.286 C 
ATOM     19  N   UNL d   1     -41.451-122.419 -52.808  0.00  0.00    -0.208 NA
ATOM     20  O   UNL d   1     -41.262-123.817 -52.662  0.00  0.00    -0.265 OA
BRANCH  19  21
ATOM     21  C   UNL d   1     -41.517-122.520 -53.630  0.00  0.00     0.085 A 
ATOM     22  C   UNL d   1     -41.974-122.002 -54.064  0.00  0.00     0.019 A 
ATOM     23  C   UNL d   1     -42.041-122.103 -54.885  0.00  0.00     0.002 A 
ATOM     24  C   UNL d   1     -42.508-121.576 -55.344  0.00  0.00     0.000 C 
ATOM     25  C   UNL d   1     -41.648-122.721 -55.257  0.00  0.00     0.000 A 
ATOM     26  C   UNL d   1     -41.185-123.246 -54.812  0.00  0.00     0.002 A 
ATOM     27  C   UNL d   1     -41.124-123.139 -54.001  0.00  0.00     0.019 A 
ENDBRANCH  19  21
ENDBRANCH  17  18
ENDBRANCH  16  17
ENDBRANCH   6  16
TORSDOF 4
ENDMDL
MODEL 2
REMARK VINA RESULT:      -4.8      1.210      5.591
REMARK  4 active torsions:
REMARK  status: ('A' for Active; 'I' for Inactive)
REMARK    1  A    between atoms: S_10  and  C_6 
REMARK    2  A    between atoms: C_16  and  S_10 
REMARK    3  A    between atoms: C_11  and  C_16 
REMARK       I    between atoms: N_13  and  C_11 
REMARK    4  A    between atoms: C_14  and  N_13 
ROOT
ATOM      1  C   UNL d   1     -41.674-121.577 -53.262  0.00  0.00     0.155 A 
ATOM      2  C   UNL d   1     -41.587-122.400 -53.249  0.00  0.00     0.107 A 
ATOM      3  N   UNL d   1     -41.472-121.536 -51.846  0.00  0.00    -0.250 N 
ATOM      4  C   UNL d   1     -41.616-121.146 -52.564  0.00  0.00     0.285 A 
ATOM      5  N   UNL d   1     -41.443-122.791 -52.530  0.00  0.00    -0.220 NA
ATOM      6  C   UNL d   1     -41.387-122.351 -51.836  0.00  0.00     0.182 A 
ATOM      7  N   UNL d   1     -41.811-121.344 -54.041  0.00  0.00    -0.239 NA
ATOM      8  C   UNL d   1     -41.670-122.683 -54.018  0.00  0.00     0.037 A 
ATOM      9  C   UNL d   1     -41.809-122.028 -54.514  0.00  0.00     0.083 A 
ATOM     10  O   UNL d   1     -41.702-120.318 -52.569  0.00  0.00    -0.265 OA
ATOM     11  C   UNL d   1     -41.414-121.102 -51.140  0.00  0.00     0.104 C 
ATOM     12  C   UNL d   1     -41.639-123.441 -54.338  0.00  0.00     0.003 A 
ATOM     13  C   UNL d   1     -41.917-122.138 -55.330  0.00  0.00     0.019 A 
ATOM     14  C   UNL d   1     -41.746-123.552 -55.153  0.00  0.00     0.000 A 
ATOM     15  C   UNL d   1     -41.884-122.903 -55.643  0.00  0.00     0.002 A 
ENDROOT
BRANCH   6  16
ATOM     16  S   UNL d   1     -41.243-122.738 -51.119  0.00  0.00    -0.044 SA
BRANCH  16  17
ATOM     17  C   UNL d   1     -41.857-123.120 -50.720  0.00  0.00     0.101 C 
BRANCH  17  18
ATOM     18  C   UNL d   1     -41.760-123.353 -49.935  0.00  0.00     0.286 C 
ATOM     19  N   UNL d   1     -42.309-123.115 -49.375  0.00  0.00    -0.208 NA
ATOM     20  O   UNL d   1     -41.123-123.817 -49.709  0.00  0.00    -0.265 OA
BRANCH  19  21
ATOM     21  C   UNL d   1     -42.215-123.346 -48.582  0.00  0.00     0.085 A 
ATOM     22  C   UNL d   1     -42.870-123.413 -48.102  0.00  0.00     0.019 A 
ATOM     23  C   UNL d   1     -42.778-123.644 -47.310  0.00  0.00     0.002 A 
ATOM     24  C   UNL d   1     -43.445-123.716 -46.804  0.00  0.00     0.000 C 
ATOM     25  C   UNL d   1     -42.028-123.805 -47.014  0.00  0.00     0.000 A 
ATOM     26  C   UNL d   1     -41.363-123.736 -47.506  0.00  0.00     0.002 A 
ATOM     27  C   UNL d   1     -41.465-123.507 -48.287  0.00  0.00     0.019 A 
ENDBRANCH  19  21
ENDBRANCH  17  18
ENDBRANCH  16  17
ENDBRANCH   6  16
TORSDOF 4
ENDMDL
