MODEL 1
REMARK VINA RESULT:      41.3      0.000      0.000
REMARK  5 active torsions:
REMARK  status: ('A' for Active; 'I' for Inactive)
REMARK    1  A    between atoms: C_20  and  C_3 
REMARK    2  A    between atoms: C_6  and  C_8 
REMARK       I    between atoms: C_8  and  N_17 
REMARK    3  A    between atoms: N_17  and  C_21 
REMARK    4  A    between atoms: O_22  and  C_18 
REMARK    5  A    between atoms: C_21  and  C_20 
ROOT
ATOM      1  N   UNL d   1     -51.580  26.147  33.379  0.00  0.00    -0.208 NA
ATOM      2  C   UNL d   1     -51.004  26.738  33.405  0.00  0.00     0.279 A 
ATOM      3  C   UNL d   1     -50.197  26.532  33.422  0.00  0.00     0.059 A 
ATOM      4  C   UNL d   1     -51.351  25.345  33.370  0.00  0.00     0.087 A 
ATOM      5  C   UNL d   1     -49.975  25.736  33.413  0.00  0.00     0.006 A 
ATOM      6  C   UNL d   1     -50.550  25.149  33.387  0.00  0.00     0.018 A 
ATOM      7  C   UNL d   1     -51.934  24.760  33.344  0.00  0.00     0.043 A 
ATOM      8  O   UNL d   1     -51.227  27.530  33.415  0.00  0.00    -0.265 OA
ATOM      9  C   UNL d   1     -50.328  24.349  33.377  0.00  0.00     0.004 A 
ATOM     10  C   UNL d   1     -51.710  23.968  33.335  0.00  0.00     0.096 A 
ATOM     11  C   UNL d   1     -50.904  23.762  33.352  0.00  0.00     0.024 A 
ENDROOT
BRANCH   3  12
ATOM     12  C   UNL d   1     -49.629  27.122  33.448  0.00  0.00     0.026 C 
BRANCH  12  13
ATOM     13  C   UNL d   1     -49.264  27.323  34.153  0.00  0.00     0.102 C 
BRANCH  13  14
ATOM     14  N   UNL d   1     -48.863  28.040  34.237  0.00  0.00    -0.206 NA
ATOM     15  C   UNL d   1     -48.593  28.283  34.978  0.00  0.00     0.285 C 
ATOM     16  O   UNL d   1     -48.720  27.814  35.639  0.00  0.00    -0.265 OA
BRANCH  15  17
ATOM     17  C   UNL d   1     -48.193  29.002  35.052  0.00  0.00     0.087 A 
ATOM     18  S   UNL d   1     -47.689  29.210  35.661  0.00  0.00    -0.082 SA
ATOM     19  C   UNL d   1     -47.410  29.959  35.529  0.00  0.00     0.036 A 
ATOM     20  C   UNL d   1     -47.744  30.232  34.821  0.00  0.00     0.008 A 
ATOM     21  C   UNL d   1     -48.230  29.635  34.525  0.00  0.00     0.012 A 
ENDBRANCH  15  17
ENDBRANCH  13  14
ENDBRANCH  12  13
ENDBRANCH   3  12
BRANCH  10  22
ATOM     22  O   UNL d   1     -52.286  23.379  33.309  0.00  0.00    -0.328 OA
ATOM     23  C   UNL d   1     -53.082  23.584  33.306  0.00  0.00     0.181 C 
ENDBRANCH  10  22
TORSDOF 5
ENDMDL
MODEL 2
REMARK VINA RESULT:      43.7      1.053      1.380
REMARK  5 active torsions:
REMARK  status: ('A' for Active; 'I' for Inactive)
REMARK    1  A    between atoms: C_20  and  C_3 
REMARK    2  A    between atoms: C_6  and  C_8 
REMARK       I    between atoms: C_8  and  N_17 
REMARK    3  A    between atoms: N_17  and  C_21 
REMARK    4  A    between atoms: O_22  and  C_18 
REMARK    5  A    between atoms: C_21  and  C_20 
ROOT
ATOM      1  N   UNL d   1     -50.376  24.366  33.312  0.00  0.00    -0.208 NA
ATOM      2  C   UNL d   1     -49.892  25.036  33.311  0.00  0.00     0.279 A 
ATOM      3  C   UNL d   1     -50.234  25.796  33.309  0.00  0.00     0.059 A 
ATOM      4  C   UNL d   1     -51.205  24.454  33.310  0.00  0.00     0.087 A 
ATOM      5  C   UNL d   1     -51.056  25.877  33.307  0.00  0.00     0.006 A 
ATOM      6  C   UNL d   1     -51.536  25.209  33.307  0.00  0.00     0.018 A 
ATOM      7  C   UNL d   1     -51.682  23.778  33.310  0.00  0.00     0.043 A 
ATOM      8  O   UNL d   1     -49.074  24.953  33.313  0.00  0.00    -0.265 OA
ATOM      9  C   UNL d   1     -52.362  25.289  33.306  0.00  0.00     0.004 A 
ATOM     10  C   UNL d   1     -52.500  23.862  33.308  0.00  0.00     0.096 A 
ATOM     11  C   UNL d   1     -52.842  24.621  33.306  0.00  0.00     0.024 A 
ENDROOT
BRANCH   3  12
ATOM     12  C   UNL d   1     -49.751  26.456  33.309  0.00  0.00     0.026 C 
BRANCH  12  13
ATOM     13  C   UNL d   1     -49.910  27.094  33.799  0.00  0.00     0.102 C 
BRANCH  13  14
ATOM     14  N   UNL d   1     -49.331  27.659  33.965  0.00  0.00    -0.206 NA
ATOM     15  C   UNL d   1     -49.128  27.829  34.747  0.00  0.00     0.285 C 
ATOM     16  O   UNL d   1     -49.498  27.439  35.366  0.00  0.00    -0.265 OA
BRANCH  15  17
ATOM     17  C   UNL d   1     -48.548  28.397  34.904  0.00  0.00     0.087 A 
ATOM     18  S   UNL d   1     -47.743  28.301  34.802  0.00  0.00    -0.082 SA
ATOM     19  C   UNL d   1     -47.365  28.984  35.018  0.00  0.00     0.036 A 
ATOM     20  C   UNL d   1     -47.944  29.525  35.263  0.00  0.00     0.008 A 
ATOM     21  C   UNL d   1     -48.678  29.159  35.191  0.00  0.00     0.012 A 
ENDBRANCH  15  17
ENDBRANCH  13  14
ENDBRANCH  12  13
ENDBRANCH   3  12
BRANCH  10  22
ATOM     22  O   UNL d   1     -52.981  23.193  33.308  0.00  0.00    -0.328 OA
ATOM     23  C   UNL d   1     -53.709  23.212  33.691  0.00  0.00     0.181 C 
ENDBRANCH  10  22
TORSDOF 5
ENDMDL
