MODEL 1
REMARK VINA RESULT:      55.8      0.000      0.000
REMARK  4 active torsions:
REMARK  status: ('A' for Active; 'I' for Inactive)
REMARK    1  A    between atoms: C_2  and  S_1 
REMARK    2  A    between atoms: N_3  and  S_1 
REMARK    3  A    between atoms: O_13  and  C_7 
REMARK    4  A    between atoms: O_14  and  C_11 
ROOT
ATOM      1  S   UNL d   1     -56.984 -99.799 -44.201  0.00  0.00     0.273 S 
ATOM      2  O   UNL d   1     -56.316 -99.325 -44.082  0.00  0.00    -0.200 OA
ATOM      3  O   UNL d   1     -56.893-100.602 -44.387  0.00  0.00    -0.200 OA
ENDROOT
BRANCH   1   4
ATOM      4  C   UNL d   1     -56.233-100.120 -44.266  0.00  0.00     0.128 A 
ATOM      5  C   UNL d   1     -56.063-100.869 -43.965  0.00  0.00     0.039 A 
ATOM      6  C   UNL d   1     -55.307-101.191 -44.031  0.00  0.00     0.095 A 
ATOM      7  C   UNL d   1     -54.720-100.754 -44.403  0.00  0.00     0.026 A 
ATOM      8  C   UNL d   1     -54.877-100.012 -44.704  0.00  0.00     0.027 A 
ATOM      9  C   UNL d   1     -55.633 -99.691 -44.638  0.00  0.00     0.106 A 
BRANCH   6  10
ATOM     10  O   UNL d   1     -55.149-101.940 -43.727  0.00  0.00    -0.328 OA
ATOM     11  C   UNL d   1     -55.397-102.612 -44.134  0.00  0.00     0.181 C 
ENDBRANCH   6  10
BRANCH   9  12
ATOM     12  O   UNL d   1     -55.794 -98.945 -44.939  0.00  0.00    -0.327 OA
ATOM     13  C   UNL d   1     -55.560 -98.756 -45.710  0.00  0.00     0.181 C 
ENDBRANCH   9  12
ENDBRANCH   1   4
BRANCH   1  14
ATOM     14  N   UNL d   1     -57.741 -99.467 -44.133  0.00  0.00    -0.232 N 
ATOM     15  C   UNL d   1     -57.956 -99.090 -43.429  0.00  0.00     0.075 A 
ATOM     16  C   UNL d   1     -58.713 -98.758 -43.361  0.00  0.00     0.018 A 
ATOM     17  C   UNL d   1     -57.428 -99.044 -42.797  0.00  0.00     0.020 C 
ATOM     18  C   UNL d   1     -59.240 -98.805 -43.993  0.00  0.00     0.003 A 
ATOM     19  C   UNL d   1     -59.018 -99.185 -44.699  0.00  0.00     0.018 A 
ATOM     20  C   UNL d   1     -58.264 -99.518 -44.769  0.00  0.00     0.075 A 
ATOM     21  C   UNL d   1     -58.040 -99.893 -45.465  0.00  0.00     0.020 C 
ENDBRANCH   1  14
TORSDOF 4
ENDMDL
MODEL 2
REMARK VINA RESULT:      58.5      1.505      2.550
REMARK  4 active torsions:
REMARK  status: ('A' for Active; 'I' for Inactive)
REMARK    1  A    between atoms: C_2  and  S_1 
REMARK    2  A    between atoms: N_3  and  S_1 
REMARK    3  A    between atoms: O_13  and  C_7 
REMARK    4  A    between atoms: O_14  and  C_11 
ROOT
ATOM      1  S   UNL d   1     -55.672-100.797 -43.914  0.00  0.00     0.273 S 
ATOM      2  O   UNL d   1     -56.135-101.282 -43.430  0.00  0.00    -0.200 OA
ATOM      3  O   UNL d   1     -54.881-100.997 -44.065  0.00  0.00    -0.200 OA
ENDROOT
BRANCH   1   4
ATOM      4  C   UNL d   1     -55.353-101.475 -43.583  0.00  0.00     0.128 A 
ATOM      5  C   UNL d   1     -55.254-101.544 -42.767  0.00  0.00     0.039 A 
ATOM      6  C   UNL d   1     -54.933-102.227 -42.436  0.00  0.00     0.095 A 
ATOM      7  C   UNL d   1     -54.711-102.843 -42.930  0.00  0.00     0.026 A 
ATOM      8  C   UNL d   1     -54.805-102.785 -43.740  0.00  0.00     0.027 A 
ATOM      9  C   UNL d   1     -55.125-102.103 -44.070  0.00  0.00     0.106 A 
BRANCH   6  10
ATOM     10  O   UNL d   1     -54.839-102.286 -41.619  0.00  0.00    -0.328 OA
ATOM     11  C   UNL d   1     -55.497-102.254 -41.124  0.00  0.00     0.181 C 
ENDBRANCH   6  10
BRANCH   9  12
ATOM     12  O   UNL d   1     -55.221-102.041 -44.883  0.00  0.00    -0.327 OA
ATOM     13  C   UNL d   1     -55.373-102.720 -45.329  0.00  0.00     0.181 C 
ENDBRANCH   9  12
ENDBRANCH   1   4
BRANCH   1  14
ATOM     14  N   UNL d   1     -56.002-100.111 -44.245  0.00  0.00    -0.232 N 
ATOM     15  C   UNL d   1     -56.813-100.090 -44.408  0.00  0.00     0.075 A 
ATOM     16  C   UNL d   1     -57.143 -99.405 -44.739  0.00  0.00     0.018 A 
ATOM     17  C   UNL d   1     -57.292-100.742 -44.244  0.00  0.00     0.020 C 
ATOM     18  C   UNL d   1     -56.663 -98.755 -44.901  0.00  0.00     0.003 A 
ATOM     19  C   UNL d   1     -55.848 -98.782 -44.735  0.00  0.00     0.018 A 
ATOM     20  C   UNL d   1     -55.515 -99.464 -44.405  0.00  0.00     0.075 A 
ATOM     21  C   UNL d   1     -54.712 -99.495 -44.240  0.00  0.00     0.020 C 
ENDBRANCH   1  14
TORSDOF 4
ENDMDL
