MODEL 1
REMARK VINA RESULT:      -7.3      0.000      0.000
REMARK  6 active torsions:
REMARK  status: ('A' for Active; 'I' for Inactive)
REMARK    1  A    between atoms: C_13  and  C_4 
REMARK    2  A    between atoms: N_16  and  C_5 
REMARK    3  A    between atoms: N_11  and  C_18 
REMARK    4  A    between atoms: C_21  and  N_16 
REMARK    5  A    between atoms: C_18  and  C_19 
REMARK    6  A    between atoms: C_19  and  C_21 
ROOT
ATOM      1  N   UNL d   1     -47.904  13.240  23.111  0.00  0.00    -0.195 N 
ATOM      2  C   UNL d   1     -48.721  13.346  23.137  0.00  0.00     0.167 A 
ATOM      3  N   UNL d   1     -47.562  13.956  22.905  0.00  0.00    -0.163 NA
ATOM      4  C   UNL d   1     -48.878  14.126  22.948  0.00  0.00     0.055 A 
ATOM      5  C   UNL d   1     -47.577  12.504  23.278  0.00  0.00     0.167 A 
ATOM      6  C   UNL d   1     -48.166  14.505  22.804  0.00  0.00     0.104 A 
ATOM      7  N   UNL d   1     -49.212  12.715  23.331  0.00  0.00    -0.227 NA
ATOM      8  C   UNL d   1     -48.070  11.865  23.474  0.00  0.00     0.058 A 
ATOM      9  C   UNL d   1     -48.886  11.971  23.501  0.00  0.00     0.086 A 
ATOM     10  C   UNL d   1     -48.078  15.298  22.595  0.00  0.00     0.023 C 
ATOM     11  C   UNL d   1     -49.387  11.337  23.696  0.00  0.00     0.021 C 
ENDROOT
BRANCH   5  12
ATOM     12  N   UNL d   1     -46.760  12.398  23.252  0.00  0.00    -0.225 NA
BRANCH  12  13
ATOM     13  C   UNL d   1     -46.433  11.666  23.436  0.00  0.00     0.102 C 
BRANCH  13  14
ATOM     14  C   UNL d   1     -45.610  11.571  23.450  0.00  0.00     0.040 C 
BRANCH  14  15
ATOM     15  C   UNL d   1     -45.282  10.817  23.471  0.00  0.00     0.083 C 
BRANCH  15  16
ATOM     16  N   UNL d   1     -44.462  10.715  23.367  0.00  0.00    -0.285 N 
ATOM     17  C   UNL d   1     -43.893  11.166  22.973  0.00  0.00     0.183 A 
ATOM     18  N   UNL d   1     -43.172  10.792  23.056  0.00  0.00    -0.222 NA
ATOM     19  C   UNL d   1     -43.285  10.111  23.498  0.00  0.00     0.120 A 
ATOM     20  C   UNL d   1     -44.082  10.061  23.692  0.00  0.00     0.102 A 
ENDBRANCH  15  16
ENDBRANCH  14  15
ENDBRANCH  13  14
ENDBRANCH  12  13
ENDBRANCH   5  12
BRANCH   4  21
ATOM     21  C   UNL d   1     -49.590  14.547  22.886  0.00  0.00     0.004 A 
ATOM     22  C   UNL d   1     -49.847  15.012  23.518  0.00  0.00     0.000 A 
ATOM     23  C   UNL d   1     -50.559  15.434  23.457  0.00  0.00     0.000 A 
ATOM     24  C   UNL d   1     -51.009  15.389  22.767  0.00  0.00     0.000 A 
ATOM     25  C   UNL d   1     -50.749  14.921  22.135  0.00  0.00     0.000 A 
ATOM     26  C   UNL d   1     -50.040  14.502  22.196  0.00  0.00     0.000 A 
ENDBRANCH   4  21
TORSDOF 6
ENDMDL
MODEL 2
REMARK VINA RESULT:      -6.0      1.375      1.668
REMARK  6 active torsions:
REMARK  status: ('A' for Active; 'I' for Inactive)
REMARK    1  A    between atoms: C_13  and  C_4 
REMARK    2  A    between atoms: N_16  and  C_5 
REMARK    3  A    between atoms: N_11  and  C_18 
REMARK    4  A    between atoms: C_21  and  N_16 
REMARK    5  A    between atoms: C_18  and  C_19 
REMARK    6  A    between atoms: C_19  and  C_21 
ROOT
ATOM      1  N   UNL d   1     -47.460  13.659  22.927  0.00  0.00    -0.195 N 
ATOM      2  C   UNL d   1     -48.269  13.533  23.021  0.00  0.00     0.167 A 
ATOM      3  N   UNL d   1     -47.351  14.429  22.669  0.00  0.00    -0.163 NA
ATOM      4  C   UNL d   1     -48.655  14.226  22.822  0.00  0.00     0.055 A 
ATOM      5  C   UNL d   1     -46.926  13.053  23.088  0.00  0.00     0.167 A 
ATOM      6  C   UNL d   1     -48.092  14.781  22.605  0.00  0.00     0.104 A 
ATOM      7  N   UNL d   1     -48.546  12.801  23.277  0.00  0.00    -0.227 NA
ATOM      8  C   UNL d   1     -47.202  12.314  23.346  0.00  0.00     0.058 A 
ATOM      9  C   UNL d   1     -48.011  12.188  23.440  0.00  0.00     0.086 A 
ATOM     10  C   UNL d   1     -48.248  15.554  22.364  0.00  0.00     0.023 C 
ATOM     11  C   UNL d   1     -48.295  11.452  23.698  0.00  0.00     0.021 C 
ENDROOT
BRANCH   5  12
ATOM     12  N   UNL d   1     -46.117  13.179  22.993  0.00  0.00    -0.225 NA
BRANCH  12  13
ATOM     13  C   UNL d   1     -45.739  12.930  22.306  0.00  0.00     0.102 C 
BRANCH  13  14
ATOM     14  C   UNL d   1     -44.912  12.879  22.282  0.00  0.00     0.040 C 
BRANCH  14  15
ATOM     15  C   UNL d   1     -44.519  12.901  21.560  0.00  0.00     0.083 C 
BRANCH  15  16
ATOM     16  N   UNL d   1     -43.692  12.798  21.533  0.00  0.00    -0.285 N 
ATOM     17  C   UNL d   1     -43.192  12.238  21.875  0.00  0.00     0.183 A 
ATOM     18  N   UNL d   1     -42.425  12.414  21.654  0.00  0.00    -0.222 NA
ATOM     19  C   UNL d   1     -42.443  13.080  21.175  0.00  0.00     0.120 A 
ATOM     20  C   UNL d   1     -43.226  13.320  21.099  0.00  0.00     0.102 A 
ENDBRANCH  15  16
ENDBRANCH  14  15
ENDBRANCH  13  14
ENDBRANCH  12  13
ENDBRANCH   5  12
BRANCH   4  21
ATOM     21  C   UNL d   1     -49.459  14.428  22.810  0.00  0.00     0.004 A 
ATOM     22  C   UNL d   1     -49.796  14.809  23.461  0.00  0.00     0.000 A 
ATOM     23  C   UNL d   1     -50.601  15.011  23.449  0.00  0.00     0.000 A 
ATOM     24  C   UNL d   1     -51.063  14.832  22.790  0.00  0.00     0.000 A 
ATOM     25  C   UNL d   1     -50.722  14.449  22.138  0.00  0.00     0.000 A 
ATOM     26  C   UNL d   1     -49.921  14.249  22.151  0.00  0.00     0.000 A 
ENDBRANCH   4  21
TORSDOF 6
ENDMDL
MODEL 3
REMARK VINA RESULT:      -5.5      2.010      2.763
REMARK  6 active torsions:
REMARK  status: ('A' for Active; 'I' for Inactive)
REMARK    1  A    between atoms: C_13  and  C_4 
REMARK    2  A    between atoms: N_16  and  C_5 
REMARK    3  A    between atoms: N_11  and  C_18 
REMARK    4  A    between atoms: C_21  and  N_16 
REMARK    5  A    between atoms: C_18  and  C_19 
REMARK    6  A    between atoms: C_19  and  C_21 
ROOT
ATOM      1  N   UNL d   1     -47.208  12.863  22.798  0.00  0.00    -0.195 N 
ATOM      2  C   UNL d   1     -47.978  13.157  22.798  0.00  0.00     0.167 A 
ATOM      3  N   UNL d   1     -47.247  12.050  22.889  0.00  0.00    -0.163 NA
ATOM      4  C   UNL d   1     -48.488  12.524  22.888  0.00  0.00     0.055 A 
ATOM      5  C   UNL d   1     -46.570  13.376  22.716  0.00  0.00     0.167 A 
ATOM      6  C   UNL d   1     -48.041  11.840  22.944  0.00  0.00     0.104 A 
ATOM      7  N   UNL d   1     -48.111  13.965  22.715  0.00  0.00    -0.227 NA
ATOM      8  C   UNL d   1     -46.700  14.191  22.632  0.00  0.00     0.058 A 
ATOM      9  C   UNL d   1     -47.469  14.486  22.631  0.00  0.00     0.086 A 
ATOM     10  C   UNL d   1     -48.341  11.077  23.040  0.00  0.00     0.023 C 
ATOM     11  C   UNL d   1     -47.608  15.300  22.548  0.00  0.00     0.021 C 
ENDROOT
BRANCH   5  12
ATOM     12  N   UNL d   1     -45.800  13.082  22.717  0.00  0.00    -0.225 NA
BRANCH  12  13
ATOM     13  C   UNL d   1     -45.292  13.255  22.094  0.00  0.00     0.102 C 
BRANCH  13  14
ATOM     14  C   UNL d   1     -44.501  13.007  22.121  0.00  0.00     0.040 C 
BRANCH  14  15
ATOM     15  C   UNL d   1     -44.096  12.844  21.424  0.00  0.00     0.083 C 
BRANCH  15  16
ATOM     16  N   UNL d   1     -43.266  12.899  21.401  0.00  0.00    -0.285 N 
ATOM     17  C   UNL d   1     -42.671  12.451  21.757  0.00  0.00     0.183 A 
ATOM     18  N   UNL d   1     -41.950  12.764  21.535  0.00  0.00    -0.222 NA
ATOM     19  C   UNL d   1     -42.090  13.405  21.042  0.00  0.00     0.120 A 
ATOM     20  C   UNL d   1     -42.903  13.490  20.958  0.00  0.00     0.102 A 
ENDBRANCH  15  16
ENDBRANCH  14  15
ENDBRANCH  13  14
ENDBRANCH  12  13
ENDBRANCH   5  12
BRANCH   4  21
ATOM     21  C   UNL d   1     -49.316  12.481  22.926  0.00  0.00     0.004 A 
ATOM     22  C   UNL d   1     -49.694  12.521  23.659  0.00  0.00     0.000 A 
ATOM     23  C   UNL d   1     -50.522  12.478  23.697  0.00  0.00     0.000 A 
ATOM     24  C   UNL d   1     -50.965  12.397  23.007  0.00  0.00     0.000 A 
ATOM     25  C   UNL d   1     -50.582  12.357  22.273  0.00  0.00     0.000 A 
ATOM     26  C   UNL d   1     -49.758  12.400  22.235  0.00  0.00     0.000 A 
ENDBRANCH   4  21
TORSDOF 6
ENDMDL
