MODEL 1
REMARK VINA RESULT:      -4.9      0.000      0.000
REMARK  3 active torsions:
REMARK  status: ('A' for Active; 'I' for Inactive)
REMARK    1  A    between atoms: C_6  and  C_1 
REMARK    2  A    between atoms: C_12  and  C_6 
REMARK    3  A    between atoms: C_9  and  C_10 
ROOT
ATOM      1  C   UNL d   1      58.427   0.003  30.226  0.00  0.00     0.139 A 
ATOM      2  C   UNL d   1      59.244  -0.680  29.428  0.00  0.00     0.064 A 
ATOM      3  C   UNL d   1      59.145   0.038  29.818  0.00  0.00     0.220 A 
ATOM      4  C   UNL d   1      58.593  -1.160  29.590  0.00  0.00     0.106 A 
ATOM      5  O   UNL d   1      58.086  -0.735  30.086  0.00  0.00    -0.304 OA
ATOM      6  C   UNL d   1      58.553  -1.910  29.268  0.00  0.00     0.067 A 
ATOM      7  C   UNL d   1      59.850  -0.956  28.943  0.00  0.00     0.009 A 
ATOM      8  O   UNL d   1      59.662   0.681  29.810  0.00  0.00    -0.284 OA
ATOM      9  C   UNL d   1      59.159  -2.185  28.783  0.00  0.00     0.198 A 
ATOM     10  C   UNL d   1      59.803  -1.710  28.622  0.00  0.00     0.042 A 
ATOM     11  O   UNL d   1      59.113  -2.942  28.460  0.00  0.00    -0.286 OA
ENDROOT
BRANCH   1  12
ATOM     12  C   UNL d   1      58.102   0.600  30.694  0.00  0.00     0.028 C 
BRANCH  12  13
ATOM     13  C   UNL d   1      57.573   0.418  31.304  0.00  0.00     0.002 A 
ATOM     14  C   UNL d   1      56.773   0.352  31.134  0.00  0.00    -0.000 A 
ATOM     15  C   UNL d   1      56.238   0.172  31.728  0.00  0.00    -0.004 A 
ATOM     16  C   UNL d   1      56.509   0.055  32.508  0.00  0.00    -0.023 A 
ATOM     17  C   UNL d   1      57.316   0.122  32.676  0.00  0.00    -0.004 A 
ATOM     18  C   UNL d   1      57.846   0.305  32.066  0.00  0.00    -0.000 A 
BRANCH  16  19
ATOM     19  C   UNL d   1      55.968  -0.127  33.113  0.00  0.00     0.019 C 
ATOM     20  C   UNL d   1      55.435  -0.304  33.710  0.00  0.00     0.004 C 
ATOM     21  C   UNL d   1      56.019  -0.929  32.913  0.00  0.00     0.004 C 
ATOM     22  C   UNL d   1      55.926   0.674  33.303  0.00  0.00     0.004 C 
ENDBRANCH  16  19
ENDBRANCH  12  13
ENDBRANCH   1  12
TORSDOF 3
ENDMDL
MODEL 2
REMARK VINA RESULT:      -3.9      1.312      4.530
REMARK  3 active torsions:
REMARK  status: ('A' for Active; 'I' for Inactive)
REMARK    1  A    between atoms: C_6  and  C_1 
REMARK    2  A    between atoms: C_12  and  C_6 
REMARK    3  A    between atoms: C_9  and  C_10 
ROOT
ATOM      1  C   UNL d   1      57.899  -0.523  30.488  0.00  0.00     0.139 A 
ATOM      2  C   UNL d   1      57.421  -0.157  31.675  0.00  0.00     0.064 A 
ATOM      3  C   UNL d   1      57.965   0.041  31.089  0.00  0.00     0.220 A 
ATOM      4  C   UNL d   1      57.019  -0.839  31.442  0.00  0.00     0.106 A 
ATOM      5  O   UNL d   1      57.317  -1.065  30.705  0.00  0.00    -0.304 OA
ATOM      6  C   UNL d   1      56.444  -1.155  31.928  0.00  0.00     0.067 A 
ATOM      7  C   UNL d   1      57.243   0.203  32.394  0.00  0.00     0.009 A 
ATOM      8  O   UNL d   1      58.484   0.682  31.092  0.00  0.00    -0.284 OA
ATOM      9  C   UNL d   1      56.266  -0.796  32.647  0.00  0.00     0.198 A 
ATOM     10  C   UNL d   1      56.664  -0.121  32.878  0.00  0.00     0.042 A 
ATOM     11  O   UNL d   1      55.685  -1.119  33.134  0.00  0.00    -0.286 OA
ENDROOT
BRANCH   1  12
ATOM     12  C   UNL d   1      58.339  -0.544  29.790  0.00  0.00     0.028 C 
BRANCH  12  13
ATOM     13  C   UNL d   1      58.705  -1.245  29.543  0.00  0.00     0.002 A 
ATOM     14  C   UNL d   1      59.476  -1.397  29.779  0.00  0.00    -0.000 A 
ATOM     15  C   UNL d   1      59.852  -2.086  29.543  0.00  0.00    -0.004 A 
ATOM     16  C   UNL d   1      59.448  -2.634  29.061  0.00  0.00    -0.023 A 
ATOM     17  C   UNL d   1      58.671  -2.477  28.825  0.00  0.00    -0.004 A 
ATOM     18  C   UNL d   1      58.304  -1.777  29.071  0.00  0.00    -0.000 A 
BRANCH  16  19
ATOM     19  C   UNL d   1      59.827  -3.334  28.819  0.00  0.00     0.019 C 
ATOM     20  C   UNL d   1      60.202  -4.023  28.582  0.00  0.00     0.004 C 
ATOM     21  C   UNL d   1      59.097  -3.644  28.582  0.00  0.00     0.004 C 
ATOM     22  C   UNL d   1      60.548  -3.014  29.059  0.00  0.00     0.004 C 
ENDBRANCH  16  19
ENDBRANCH  12  13
ENDBRANCH   1  12
TORSDOF 3
ENDMDL
MODEL 3
REMARK VINA RESULT:      -3.8      1.082      1.858
REMARK  3 active torsions:
REMARK  status: ('A' for Active; 'I' for Inactive)
REMARK    1  A    between atoms: C_6  and  C_1 
REMARK    2  A    between atoms: C_12  and  C_6 
REMARK    3  A    between atoms: C_9  and  C_10 
ROOT
ATOM      1  C   UNL d   1      57.745  -0.212  30.612  0.00  0.00     0.139 A 
ATOM      2  C   UNL d   1      58.937  -0.387  30.047  0.00  0.00     0.064 A 
ATOM      3  C   UNL d   1      58.156  -0.644  30.039  0.00  0.00     0.220 A 
ATOM      4  C   UNL d   1      59.015   0.202  30.620  0.00  0.00     0.106 A 
ATOM      5  O   UNL d   1      58.274   0.310  30.970  0.00  0.00    -0.304 OA
ATOM      6  C   UNL d   1      59.742   0.555  30.742  0.00  0.00     0.067 A 
ATOM      7  C   UNL d   1      59.590  -0.618  29.601  0.00  0.00     0.009 A 
ATOM      8  O   UNL d   1      57.831  -1.227  29.553  0.00  0.00    -0.284 OA
ATOM      9  C   UNL d   1      60.395   0.323  30.295  0.00  0.00     0.198 A 
ATOM     10  C   UNL d   1      60.317  -0.260  29.728  0.00  0.00     0.042 A 
ATOM     11  O   UNL d   1      61.126   0.682  30.422  0.00  0.00    -0.286 OA
ENDROOT
BRANCH   1  12
ATOM     12  C   UNL d   1      56.944  -0.285  30.796  0.00  0.00     0.028 C 
BRANCH  12  13
ATOM     13  C   UNL d   1      56.679  -0.177  31.574  0.00  0.00     0.002 A 
ATOM     14  C   UNL d   1      56.553  -0.835  32.048  0.00  0.00    -0.000 A 
ATOM     15  C   UNL d   1      56.290  -0.744  32.819  0.00  0.00    -0.004 A 
ATOM     16  C   UNL d   1      56.152   0.021  33.122  0.00  0.00    -0.023 A 
ATOM     17  C   UNL d   1      56.280   0.682  32.641  0.00  0.00    -0.004 A 
ATOM     18  C   UNL d   1      56.545   0.575  31.864  0.00  0.00    -0.000 A 
BRANCH  16  19
ATOM     19  C   UNL d   1      55.885   0.117  33.904  0.00  0.00     0.019 C 
ATOM     20  C   UNL d   1      55.626   0.214  34.676  0.00  0.00     0.004 C 
ATOM     21  C   UNL d   1      55.179  -0.267  33.708  0.00  0.00     0.004 C 
ATOM     22  C   UNL d   1      56.593   0.499  34.087  0.00  0.00     0.004 C 
ENDBRANCH  16  19
ENDBRANCH  12  13
ENDBRANCH   1  12
TORSDOF 3
ENDMDL
MODEL 4
REMARK VINA RESULT:      -3.4      8.451      9.872
REMARK  3 active torsions:
REMARK  status: ('A' for Active; 'I' for Inactive)
REMARK    1  A    between atoms: C_6  and  C_1 
REMARK    2  A    between atoms: C_12  and  C_6 
REMARK    3  A    between atoms: C_9  and  C_10 
ROOT
ATOM      1  C   UNL d   1      59.459  -9.117  34.647  0.00  0.00     0.139 A 
ATOM      2  C   UNL d   1      60.084  -8.217  35.403  0.00  0.00     0.064 A 
ATOM      3  C   UNL d   1      60.113  -8.996  35.138  0.00  0.00     0.220 A 
ATOM      4  C   UNL d   1      59.417  -7.854  35.081  0.00  0.00     0.106 A 
ATOM      5  O   UNL d   1      59.029  -8.414  34.612  0.00  0.00    -0.304 OA
ATOM      6  C   UNL d   1      59.255  -7.073  35.257  0.00  0.00     0.067 A 
ATOM      7  C   UNL d   1      60.585  -7.793  35.901  0.00  0.00     0.009 A 
ATOM      8  O   UNL d   1      60.687  -9.560  35.322  0.00  0.00    -0.284 OA
ATOM      9  C   UNL d   1      59.757  -6.649  35.755  0.00  0.00     0.198 A 
ATOM     10  C   UNL d   1      60.417  -7.009  36.074  0.00  0.00     0.042 A 
ATOM     11  O   UNL d   1      59.590  -5.861  35.930  0.00  0.00    -0.286 OA
ENDROOT
BRANCH   1  12
ATOM     12  C   UNL d   1      59.266  -9.818  34.258  0.00  0.00     0.028 C 
BRANCH  12  13
ATOM     13  C   UNL d   1      58.986  -9.804  33.478  0.00  0.00     0.002 A 
ATOM     14  C   UNL d   1      58.176  -9.810  33.344  0.00  0.00    -0.000 A 
ATOM     15  C   UNL d   1      57.885  -9.797  32.578  0.00  0.00    -0.004 A 
ATOM     16  C   UNL d   1      58.413  -9.777  31.934  0.00  0.00    -0.023 A 
ATOM     17  C   UNL d   1      59.229  -9.771  32.073  0.00  0.00    -0.004 A 
ATOM     18  C   UNL d   1      59.510  -9.785  32.852  0.00  0.00    -0.000 A 
BRANCH  16  19
ATOM     19  C   UNL d   1      58.121  -9.764  31.155  0.00  0.00     0.019 C 
ATOM     20  C   UNL d   1      57.835  -9.751  30.387  0.00  0.00     0.004 C 
ATOM     21  C   UNL d   1      57.348  -9.736  31.449  0.00  0.00     0.004 C 
ATOM     22  C   UNL d   1      58.896  -9.792  30.875  0.00  0.00     0.004 C 
ENDBRANCH  16  19
ENDBRANCH  12  13
ENDBRANCH   1  12
TORSDOF 3
ENDMDL
