MODEL 1
REMARK VINA RESULT:      -9.4      0.000      0.000
REMARK  3 active torsions:
REMARK  status: ('A' for Active; 'I' for Inactive)
REMARK    1  A    between atoms: C_4  and  C_1 
REMARK    2  A    between atoms: C_13  and  N_2 
REMARK    3  A    between atoms: C_10  and  C_13 
ROOT
ATOM      1  C   UNL d   1      52.458  32.266  53.111  0.00  0.00     0.171 A 
ATOM      2  N   UNL d   1      53.161  32.018  53.624  0.00  0.00    -0.286 N 
ATOM      3  N   UNL d   1      52.136  31.516  52.723  0.00  0.00    -0.225 NA
ATOM      4  C   UNL d   1      53.271  31.129  53.555  0.00  0.00     0.083 A 
ATOM      5  C   UNL d   1      52.625  30.813  52.987  0.00  0.00     0.099 A 
ATOM      6  C   UNL d   1      53.872  30.565  53.932  0.00  0.00     0.019 A 
ATOM      7  C   UNL d   1      52.593  29.937  52.807  0.00  0.00     0.021 A 
ATOM      8  C   UNL d   1      53.817  29.692  53.735  0.00  0.00     0.002 A 
ATOM      9  C   UNL d   1      53.172  29.376  53.167  0.00  0.00     0.002 A 
ENDROOT
BRANCH   2  10
ATOM     10  C   UNL d   1      53.765  31.873  54.078  0.00  0.00     0.106 C 
BRANCH  10  11
ATOM     11  C   UNL d   1      54.110  32.486  54.480  0.00  0.00     0.118 A 
ATOM     12  O   UNL d   1      54.669  32.972  54.214  0.00  0.00    -0.299 OA
ATOM     13  C   UNL d   1      54.871  33.513  54.778  0.00  0.00     0.134 A 
ATOM     14 BR   UNL d   1      55.397  34.121  54.799  0.00  0.00    -0.022 Br
ATOM     15  C   UNL d   1      54.414  33.353  55.421  0.00  0.00     0.034 A 
ATOM     16  C   UNL d   1      53.933  32.716  55.254  0.00  0.00     0.029 A 
ENDBRANCH  10  11
ENDBRANCH   2  10
BRANCH   1  17
ATOM     17  C   UNL d   1      52.143  33.096  53.007  0.00  0.00     0.135 A 
ATOM     18  O   UNL d   1      51.592  33.439  53.499  0.00  0.00    -0.297 OA
ATOM     19  C   UNL d   1      51.470  34.187  53.199  0.00  0.00     0.134 A 
ATOM     20 BR   UNL d   1      51.074  34.891  53.273  0.00  0.00    -0.022 Br
ATOM     21  C   UNL d   1      51.941  34.284  52.541  0.00  0.00     0.034 A 
ATOM     22  C   UNL d   1      52.354  33.595  52.434  0.00  0.00     0.030 A 
ENDBRANCH   1  17
TORSDOF 3
ENDMDL
MODEL 2
REMARK VINA RESULT:      -8.7      1.508      3.191
REMARK  3 active torsions:
REMARK  status: ('A' for Active; 'I' for Inactive)
REMARK    1  A    between atoms: C_4  and  C_1 
REMARK    2  A    between atoms: C_13  and  N_2 
REMARK    3  A    between atoms: C_10  and  C_13 
ROOT
ATOM      1  C   UNL d   1      52.321  31.952  53.205  0.00  0.00     0.171 A 
ATOM      2  N   UNL d   1      52.699  32.763  53.334  0.00  0.00    -0.286 N 
ATOM      3  N   UNL d   1      51.467  32.096  52.945  0.00  0.00    -0.225 NA
ATOM      4  C   UNL d   1      52.090  33.398  53.157  0.00  0.00     0.083 A 
ATOM      5  C   UNL d   1      51.313  32.979  52.911  0.00  0.00     0.099 A 
ATOM      6  C   UNL d   1      52.137  34.304  53.185  0.00  0.00     0.019 A 
ATOM      7  C   UNL d   1      50.598  33.471  52.699  0.00  0.00     0.021 A 
ATOM      8  C   UNL d   1      51.405  34.774  52.967  0.00  0.00     0.002 A 
ATOM      9  C   UNL d   1      50.629  34.354  52.722  0.00  0.00     0.002 A 
ENDROOT
BRANCH   2  10
ATOM     10  C   UNL d   1      53.079  33.420  53.461  0.00  0.00     0.106 C 
BRANCH  10  11
ATOM     11  C   UNL d   1      53.749  33.405  53.917  0.00  0.00     0.118 A 
ATOM     12  O   UNL d   1      53.787  33.450  54.702  0.00  0.00    -0.299 OA
ATOM     13  C   UNL d   1      54.554  33.415  54.953  0.00  0.00     0.134 A 
ATOM     14 BR   UNL d   1      54.900  33.437  55.679  0.00  0.00    -0.022 Br
ATOM     15  C   UNL d   1      55.007  33.346  54.292  0.00  0.00     0.034 A 
ATOM     16  C   UNL d   1      54.522  33.338  53.636  0.00  0.00     0.029 A 
ENDBRANCH  10  11
ENDBRANCH   2  10
BRANCH   1  17
ATOM     17  C   UNL d   1      52.716  31.157  53.315  0.00  0.00     0.135 A 
ATOM     18  O   UNL d   1      52.749  30.759  54.023  0.00  0.00    -0.297 OA
ATOM     19  C   UNL d   1      53.155  30.069  53.866  0.00  0.00     0.134 A 
ATOM     20 BR   UNL d   1      53.451  29.374  54.160  0.00  0.00    -0.022 Br
ATOM     21  C   UNL d   1      53.359  30.062  53.077  0.00  0.00     0.034 A 
ATOM     22  C   UNL d   1      53.079  30.747  52.747  0.00  0.00     0.030 A 
ENDBRANCH   1  17
TORSDOF 3
ENDMDL
MODEL 3
REMARK VINA RESULT:      -8.4      1.656      3.114
REMARK  3 active torsions:
REMARK  status: ('A' for Active; 'I' for Inactive)
REMARK    1  A    between atoms: C_4  and  C_1 
REMARK    2  A    between atoms: C_13  and  N_2 
REMARK    3  A    between atoms: C_10  and  C_13 
ROOT
ATOM      1  C   UNL d   1      52.508  33.857  53.762  0.00  0.00     0.171 A 
ATOM      2  N   UNL d   1      53.091  33.169  53.827  0.00  0.00    -0.286 N 
ATOM      3  N   UNL d   1      52.836  34.531  54.268  0.00  0.00    -0.225 NA
ATOM      4  C   UNL d   1      53.768  33.414  54.365  0.00  0.00     0.083 A 
ATOM      5  C   UNL d   1      53.607  34.272  54.642  0.00  0.00     0.099 A 
ATOM      6  C   UNL d   1      54.511  32.971  54.639  0.00  0.00     0.019 A 
ATOM      7  C   UNL d   1      54.191  34.672  55.189  0.00  0.00     0.021 A 
ATOM      8  C   UNL d   1      55.080  33.395  55.188  0.00  0.00     0.002 A 
ATOM      9  C   UNL d   1      54.918  34.253  55.465  0.00  0.00     0.002 A 
ENDROOT
BRANCH   2  10
ATOM     10  C   UNL d   1      53.547  32.549  53.841  0.00  0.00     0.106 C 
BRANCH  10  11
ATOM     11  C   UNL d   1      53.292  31.868  53.484  0.00  0.00     0.118 A 
ATOM     12  O   UNL d   1      52.852  31.301  53.806  0.00  0.00    -0.299 OA
ATOM     13  C   UNL d   1      52.713  30.709  53.275  0.00  0.00     0.134 A 
ATOM     14 BR   UNL d   1      52.306  30.016  53.311  0.00  0.00    -0.022 Br
ATOM     15  C   UNL d   1      53.085  30.923  52.594  0.00  0.00     0.034 A 
ATOM     16  C   UNL d   1      53.452  31.643  52.706  0.00  0.00     0.029 A 
ENDBRANCH  10  11
ENDBRANCH   2  10
BRANCH   1  17
ATOM     17  C   UNL d   1      51.751  33.869  53.286  0.00  0.00     0.135 A 
ATOM     18  O   UNL d   1      51.711  34.063  52.498  0.00  0.00    -0.297 OA
ATOM     19  C   UNL d   1      50.923  34.000  52.298  0.00  0.00     0.134 A 
ATOM     20 BR   UNL d   1      50.363  34.068  51.714  0.00  0.00    -0.022 Br
ATOM     21  C   UNL d   1      50.505  33.772  52.959  0.00  0.00     0.034 A 
ATOM     22  C   UNL d   1      51.035  33.694  53.567  0.00  0.00     0.030 A 
ENDBRANCH   1  17
TORSDOF 3
ENDMDL
MODEL 4
REMARK VINA RESULT:      -8.3      0.731      2.761
REMARK  3 active torsions:
REMARK  status: ('A' for Active; 'I' for Inactive)
REMARK    1  A    between atoms: C_4  and  C_1 
REMARK    2  A    between atoms: C_13  and  N_2 
REMARK    3  A    between atoms: C_10  and  C_13 
ROOT
ATOM      1  C   UNL d   1      53.870  31.912  54.053  0.00  0.00     0.171 A 
ATOM      2  N   UNL d   1      53.119  31.863  53.551  0.00  0.00    -0.286 N 
ATOM      3  N   UNL d   1      54.137  31.063  54.211  0.00  0.00    -0.225 NA
ATOM      4  C   UNL d   1      52.926  30.999  53.402  0.00  0.00     0.083 A 
ATOM      5  C   UNL d   1      53.567  30.494  53.818  0.00  0.00     0.099 A 
ATOM      6  C   UNL d   1      52.251  30.603  52.943  0.00  0.00     0.019 A 
ATOM      7  C   UNL d   1      53.523  29.603  53.768  0.00  0.00     0.021 A 
ATOM      8  C   UNL d   1      52.230  29.707  52.909  0.00  0.00     0.002 A 
ATOM      9  C   UNL d   1      52.872  29.202  53.325  0.00  0.00     0.002 A 
ENDROOT
BRANCH   2  10
ATOM     10  C   UNL d   1      52.479  31.890  53.125  0.00  0.00     0.106 C 
BRANCH  10  11
ATOM     11  C   UNL d   1      52.118  32.606  53.004  0.00  0.00     0.118 A 
ATOM     12  O   UNL d   1      52.280  33.127  52.438  0.00  0.00    -0.299 OA
ATOM     13  C   UNL d   1      51.802  33.775  52.499  0.00  0.00     0.134 A 
ATOM     14 BR   UNL d   1      51.734  34.455  52.075  0.00  0.00    -0.022 Br
ATOM     15  C   UNL d   1      51.323  33.645  53.133  0.00  0.00     0.034 A 
ATOM     16  C   UNL d   1      51.506  32.921  53.460  0.00  0.00     0.029 A 
ENDBRANCH  10  11
ENDBRANCH   2  10
BRANCH   1  17
ATOM     17  C   UNL d   1      54.271  32.658  54.338  0.00  0.00     0.135 A 
ATOM     18  O   UNL d   1      54.086  33.038  55.033  0.00  0.00    -0.297 OA
ATOM     19  C   UNL d   1      54.584  33.683  55.067  0.00  0.00     0.134 A 
ATOM     20 BR   UNL d   1      54.818  34.338  55.485  0.00  0.00    -0.022 Br
ATOM     21  C   UNL d   1      55.055  33.683  54.402  0.00  0.00     0.034 A 
ATOM     22  C   UNL d   1      54.848  33.038  53.957  0.00  0.00     0.030 A 
ENDBRANCH   1  17
TORSDOF 3
ENDMDL
MODEL 5
REMARK VINA RESULT:      -8.2      1.631      3.743
REMARK  3 active torsions:
REMARK  status: ('A' for Active; 'I' for Inactive)
REMARK    1  A    between atoms: C_4  and  C_1 
REMARK    2  A    between atoms: C_13  and  N_2 
REMARK    3  A    between atoms: C_10  and  C_13 
ROOT
ATOM      1  C   UNL d   1      53.595  32.185  53.926  0.00  0.00     0.171 A 
ATOM      2  N   UNL d   1      53.151  32.970  53.989  0.00  0.00    -0.286 N 
ATOM      3  N   UNL d   1      54.384  32.291  54.355  0.00  0.00    -0.225 NA
ATOM      4  C   UNL d   1      53.657  33.553  54.449  0.00  0.00     0.083 A 
ATOM      5  C   UNL d   1      54.434  33.125  54.680  0.00  0.00     0.099 A 
ATOM      6  C   UNL d   1      53.514  34.416  54.690  0.00  0.00     0.019 A 
ATOM      7  C   UNL d   1      55.054  33.568  55.147  0.00  0.00     0.021 A 
ATOM      8  C   UNL d   1      54.153  34.836  55.158  0.00  0.00     0.002 A 
ATOM      9  C   UNL d   1      54.930  34.409  55.388  0.00  0.00     0.002 A 
ENDROOT
BRANCH   2  10
ATOM     10  C   UNL d   1      52.723  33.609  54.007  0.00  0.00     0.106 C 
BRANCH  10  11
ATOM     11  C   UNL d   1      52.066  33.654  53.534  0.00  0.00     0.118 A 
ATOM     12  O   UNL d   1      52.040  33.884  52.782  0.00  0.00    -0.299 OA
ATOM     13  C   UNL d   1      51.285  33.855  52.499  0.00  0.00     0.134 A 
ATOM     14 BR   UNL d   1      50.953  34.025  51.786  0.00  0.00    -0.022 Br
ATOM     15  C   UNL d   1      50.825  33.595  53.106  0.00  0.00     0.034 A 
ATOM     16  C   UNL d   1      51.295  33.465  53.760  0.00  0.00     0.029 A 
ENDBRANCH  10  11
ENDBRANCH   2  10
BRANCH   1  17
ATOM     17  C   UNL d   1      53.308  31.443  53.517  0.00  0.00     0.135 A 
ATOM     18  O   UNL d   1      52.831  30.886  53.867  0.00  0.00    -0.297 OA
ATOM     19  C   UNL d   1      52.711  30.314  53.298  0.00  0.00     0.134 A 
ATOM     20 BR   UNL d   1      52.359  29.608  53.109  0.00  0.00    -0.022 Br
ATOM     21  C   UNL d   1      53.112  30.532  52.623  0.00  0.00     0.034 A 
ATOM     22  C   UNL d   1      53.479  31.238  52.775  0.00  0.00     0.030 A 
ENDBRANCH   1  17
TORSDOF 3
ENDMDL
MODEL 6
REMARK VINA RESULT:      -8.0      1.538      3.660
REMARK  3 active torsions:
REMARK  status: ('A' for Active; 'I' for Inactive)
REMARK    1  A    between atoms: C_4  and  C_1 
REMARK    2  A    between atoms: C_13  and  N_2 
REMARK    3  A    between atoms: C_10  and  C_13 
ROOT
ATOM      1  C   UNL d   1      52.867  33.714  53.993  0.00  0.00     0.171 A 
ATOM      2  N   UNL d   1      52.471  33.065  53.504  0.00  0.00    -0.286 N 
ATOM      3  N   UNL d   1      52.336  34.444  53.944  0.00  0.00    -0.225 NA
ATOM      4  C   UNL d   1      51.707  33.388  53.158  0.00  0.00     0.083 A 
ATOM      5  C   UNL d   1      51.622  34.257  53.435  0.00  0.00     0.099 A 
ATOM      6  C   UNL d   1      51.077  33.007  52.628  0.00  0.00     0.019 A 
ATOM      7  C   UNL d   1      50.908  34.730  53.177  0.00  0.00     0.021 A 
ATOM      8  C   UNL d   1      50.372  33.504  52.384  0.00  0.00     0.002 A 
ATOM      9  C   UNL d   1      50.287  34.373  52.661  0.00  0.00     0.002 A 
ENDROOT
BRANCH   2  10
ATOM     10  C   UNL d   1      52.186  32.472  53.105  0.00  0.00     0.106 C 
BRANCH  10  11
ATOM     11  C   UNL d   1      52.587  31.768  53.108  0.00  0.00     0.118 A 
ATOM     12  O   UNL d   1      52.531  31.194  53.644  0.00  0.00    -0.299 OA
ATOM     13  C   UNL d   1      53.019  30.579  53.457  0.00  0.00     0.134 A 
ATOM     14 BR   UNL d   1      53.176  29.870  53.805  0.00  0.00    -0.022 Br
ATOM     15  C   UNL d   1      53.393  30.784  52.774  0.00  0.00     0.034 A 
ATOM     16  C   UNL d   1      53.136  31.522  52.542  0.00  0.00     0.029 A 
ENDBRANCH  10  11
ENDBRANCH   2  10
BRANCH   1  17
ATOM     17  C   UNL d   1      53.638  33.647  54.440  0.00  0.00     0.135 A 
ATOM     18  O   UNL d   1      54.369  33.782  54.110  0.00  0.00    -0.297 OA
ATOM     19  C   UNL d   1      54.905  33.659  54.712  0.00  0.00     0.134 A 
ATOM     20 BR   UNL d   1      55.685  33.652  54.935  0.00  0.00    -0.022 Br
ATOM     21  C   UNL d   1      54.496  33.455  55.387  0.00  0.00     0.034 A 
ATOM     22  C   UNL d   1      53.708  33.452  55.201  0.00  0.00     0.030 A 
ENDBRANCH   1  17
TORSDOF 3
ENDMDL
