MODEL 1
REMARK VINA RESULT:      47.0      0.000      0.000
REMARK  3 active torsions:
REMARK  status: ('A' for Active; 'I' for Inactive)
REMARK    1  A    between atoms: O_9  and  C_1 
REMARK    2  A    between atoms: C_13  and  O_9 
REMARK    3  A    between atoms: C_16  and  C_11 
ROOT
ATOM      1  C   UNL d   1     -58.712 -98.773 -44.172  0.00  0.00     0.161 A 
ATOM      2  C   UNL d   1     -57.285 -98.776 -44.135  0.00  0.00     0.064 A 
ATOM      3  C   UNL d   1     -57.997 -98.777 -43.738  0.00  0.00     0.222 A 
ATOM      4  C   UNL d   1     -57.254 -98.772 -44.956  0.00  0.00     0.106 A 
ATOM      5  C   UNL d   1     -58.681 -98.768 -45.009  0.00  0.00     0.126 A 
ATOM      6  O   UNL d   1     -57.936 -98.768 -45.382  0.00  0.00    -0.305 OA
ATOM      7  C   UNL d   1     -56.592 -98.781 -43.686  0.00  0.00     0.008 A 
ATOM      8  C   UNL d   1     -56.531 -98.771 -45.329  0.00  0.00     0.067 A 
ATOM      9  C   UNL d   1     -55.834 -98.775 -44.903  0.00  0.00     0.198 A 
ATOM     10  C   UNL d   1     -55.865 -98.780 -44.066  0.00  0.00     0.039 A 
ATOM     11  O   UNL d   1     -58.028 -98.782 -42.916  0.00  0.00    -0.284 OA
ATOM     12  O   UNL d   1     -55.102 -98.775 -45.318  0.00  0.00    -0.286 OA
ATOM     13  C   UNL d   1     -59.380 -98.764 -45.478  0.00  0.00     0.029 C 
ENDROOT
BRANCH   1  14
ATOM     14  O   UNL d   1     -59.444 -98.773 -43.757  0.00  0.00    -0.302 OA
BRANCH  14  15
ATOM     15  C   UNL d   1     -59.488 -99.119 -43.000  0.00  0.00     0.100 A 
ATOM     16  C   UNL d   1     -59.917 -99.813 -42.891  0.00  0.00     0.025 A 
ATOM     17  C   UNL d   1     -59.957-100.145 -42.151  0.00  0.00     0.002 A 
ATOM     18  C   UNL d   1     -59.564 -99.787 -41.496  0.00  0.00     0.000 A 
ATOM     19  C   UNL d   1     -59.140 -99.093 -41.622  0.00  0.00     0.002 A 
ATOM     20  C   UNL d   1     -59.101 -98.757 -42.378  0.00  0.00     0.025 A 
ENDBRANCH  14  15
ENDBRANCH   1  14
BRANCH  10  21
ATOM     21  C   UNL d   1     -55.166 -98.785 -43.597  0.00  0.00     0.003 C 
ATOM     22  C   UNL d   1     -54.815 -99.510 -43.367  0.00  0.00     0.000 C 
ENDBRANCH  10  21
TORSDOF 3
ENDMDL
MODEL 2
REMARK VINA RESULT:      49.7      1.270      3.711
REMARK  3 active torsions:
REMARK  status: ('A' for Active; 'I' for Inactive)
REMARK    1  A    between atoms: O_9  and  C_1 
REMARK    2  A    between atoms: C_13  and  O_9 
REMARK    3  A    between atoms: C_16  and  C_11 
ROOT
ATOM      1  C   UNL d   1     -56.015 -99.461 -44.022  0.00  0.00     0.161 A 
ATOM      2  C   UNL d   1     -57.435 -99.325 -43.965  0.00  0.00     0.064 A 
ATOM      3  C   UNL d   1     -56.733 -99.514 -43.596  0.00  0.00     0.222 A 
ATOM      4  C   UNL d   1     -57.452 -99.083 -44.751  0.00  0.00     0.106 A 
ATOM      5  C   UNL d   1     -56.032 -99.214 -44.822  0.00  0.00     0.126 A 
ATOM      6  O   UNL d   1     -56.767 -99.029 -45.168  0.00  0.00    -0.305 OA
ATOM      7  C   UNL d   1     -58.131 -99.384 -43.526  0.00  0.00     0.008 A 
ATOM      8  C   UNL d   1     -58.166 -98.899 -45.097  0.00  0.00     0.067 A 
ATOM      9  C   UNL d   1     -58.865 -98.952 -44.679  0.00  0.00     0.198 A 
ATOM     10  C   UNL d   1     -58.848 -99.199 -43.879  0.00  0.00     0.039 A 
ATOM     11  O   UNL d   1     -56.716 -99.756 -42.810  0.00  0.00    -0.284 OA
ATOM     12  O   UNL d   1     -59.587 -98.755 -45.066  0.00  0.00    -0.286 OA
ATOM     13  C   UNL d   1     -55.329 -99.150 -45.281  0.00  0.00     0.029 C 
ENDROOT
BRANCH   1  14
ATOM     14  O   UNL d   1     -55.293 -99.658 -43.635  0.00  0.00    -0.302 OA
BRANCH  14  15
ATOM     15  C   UNL d   1     -55.099-100.458 -43.507  0.00  0.00     0.100 A 
ATOM     16  C   UNL d   1     -55.089-100.983 -44.140  0.00  0.00     0.025 A 
ATOM     17  C   UNL d   1     -54.899-101.763 -44.009  0.00  0.00     0.002 A 
ATOM     18  C   UNL d   1     -54.714-102.037 -43.233  0.00  0.00     0.000 A 
ATOM     19  C   UNL d   1     -54.729-101.497 -42.611  0.00  0.00     0.002 A 
ATOM     20  C   UNL d   1     -54.922-100.704 -42.748  0.00  0.00     0.025 A 
ENDBRANCH  14  15
ENDBRANCH   1  14
BRANCH  10  21
ATOM     21  C   UNL d   1     -59.551 -99.263 -43.420  0.00  0.00     0.003 C 
ATOM     22  C   UNL d   1     -59.735 -99.978 -43.025  0.00  0.00     0.000 C 
ENDBRANCH  10  21
TORSDOF 3
ENDMDL
