MODEL 1
REMARK VINA RESULT:      73.1      0.000      0.000
REMARK  6 active torsions:
REMARK  status: ('A' for Active; 'I' for Inactive)
REMARK    1  A    between atoms: O_8  and  C_1 
REMARK    2  A    between atoms: C_10  and  C_5 
REMARK    3  A    between atoms: C_12  and  O_8 
REMARK    4  A    between atoms: N_9  and  C_10 
REMARK    5  A    between atoms: O_24  and  C_17 
REMARK    6  A    between atoms: C_28  and  O_24 
ROOT
ATOM      1  C   UNL d   1     -54.771-100.777 -42.570  0.00  0.00     0.161 A 
ATOM      2  C   UNL d   1     -54.773-101.256 -40.979  0.00  0.00     0.108 A 
ATOM      3  C   UNL d   1     -54.743-101.829 -41.583  0.00  0.00     0.064 A 
ATOM      4  C   UNL d   1     -54.742-101.588 -42.374  0.00  0.00     0.222 A 
ATOM      5  C   UNL d   1     -54.773-101.496 -40.187  0.00  0.00     0.079 A 
ATOM      6  O   UNL d   1     -54.802-100.446 -41.157  0.00  0.00    -0.305 OA
ATOM      7  C   UNL d   1     -54.800-100.208 -41.963  0.00  0.00     0.126 A 
ATOM      8  C   UNL d   1     -54.715-102.624 -41.390  0.00  0.00     0.009 A 
ATOM      9  C   UNL d   1     -54.745-102.297 -40.001  0.00  0.00     0.199 A 
ATOM     10  O   UNL d   1     -54.713-102.152 -42.976  0.00  0.00    -0.284 OA
ATOM     11  C   UNL d   1     -54.715-102.861 -40.603  0.00  0.00     0.042 A 
ATOM     12  O   UNL d   1     -54.746-102.535 -39.212  0.00  0.00    -0.286 OA
ATOM     13  C   UNL d   1     -54.829 -99.406 -42.149  0.00  0.00     0.029 C 
ENDROOT
BRANCH   1  14
ATOM     14  O   UNL d   1     -54.770-100.543 -43.362  0.00  0.00    -0.300 OA
BRANCH  14  15
ATOM     15  C   UNL d   1     -55.367-100.049 -43.640  0.00  0.00     0.123 A 
ATOM     16  C   UNL d   1     -55.824-100.282 -44.285  0.00  0.00     0.123 A 
ATOM     17  C   UNL d   1     -56.420 -99.796 -44.566  0.00  0.00     0.027 A 
ATOM     18  C   UNL d   1     -56.566 -99.069 -44.206  0.00  0.00     0.002 A 
ATOM     19  C   UNL d   1     -56.106 -98.830 -43.553  0.00  0.00     0.002 A 
ATOM     20  C   UNL d   1     -55.508 -99.323 -43.274  0.00  0.00     0.027 A 
BRANCH  16  21
ATOM     21  O   UNL d   1     -55.680-101.009 -44.648  0.00  0.00    -0.303 OA
BRANCH  21  22
ATOM     22  C   UNL d   1     -55.193-101.560 -44.280  0.00  0.00     0.123 C 
ATOM     23  C   UNL d   1     -55.407-101.893 -43.558  0.00  0.00     0.029 C 
ENDBRANCH  21  22
ENDBRANCH  16  21
ENDBRANCH  14  15
ENDBRANCH   1  14
BRANCH   5  24
ATOM     24  C   UNL d   1     -54.803-100.938 -39.581  0.00  0.00     0.086 C 
BRANCH  24  25
ATOM     25  N   UNL d   1     -54.884-101.196 -38.796  0.00  0.00    -0.300 N 
ATOM     26  C   UNL d   1     -54.879-102.004 -38.620  0.00  0.00     0.100 A 
ATOM     27  C   UNL d   1     -54.960-102.254 -37.843  0.00  0.00     0.100 A 
ATOM     28  N   UNL d   1     -55.047-101.705 -37.234  0.00  0.00    -0.299 N 
ATOM     29  C   UNL d   1     -55.052-100.896 -37.410  0.00  0.00     0.100 A 
ATOM     30  C   UNL d   1     -55.128-101.957 -36.455  0.00  0.00     0.100 C 
ATOM     31  C   UNL d   1     -54.970-100.638 -38.195  0.00  0.00     0.100 A 
ENDBRANCH  24  25
ENDBRANCH   5  24
TORSDOF 6
ENDMDL
MODEL 2
REMARK VINA RESULT:      75.3      1.929      3.403
REMARK  6 active torsions:
REMARK  status: ('A' for Active; 'I' for Inactive)
REMARK    1  A    between atoms: O_8  and  C_1 
REMARK    2  A    between atoms: C_10  and  C_5 
REMARK    3  A    between atoms: C_12  and  O_8 
REMARK    4  A    between atoms: N_9  and  C_10 
REMARK    5  A    between atoms: O_24  and  C_17 
REMARK    6  A    between atoms: C_28  and  O_24 
ROOT
ATOM      1  C   UNL d   1     -56.785 -99.355 -44.554  0.00  0.00     0.161 A 
ATOM      2  C   UNL d   1     -56.094-100.320 -43.391  0.00  0.00     0.108 A 
ATOM      3  C   UNL d   1     -55.760-100.287 -44.153  0.00  0.00     0.064 A 
ATOM      4  C   UNL d   1     -56.105 -99.806 -44.730  0.00  0.00     0.222 A 
ATOM      5  C   UNL d   1     -55.749-100.801 -42.813  0.00  0.00     0.079 A 
ATOM      6  O   UNL d   1     -56.769 -99.878 -43.199  0.00  0.00    -0.305 OA
ATOM      7  C   UNL d   1     -57.116 -99.391 -43.790  0.00  0.00     0.126 A 
ATOM      8  C   UNL d   1     -55.093-100.730 -44.326  0.00  0.00     0.009 A 
ATOM      9  C   UNL d   1     -55.079-101.244 -42.994  0.00  0.00     0.199 A 
ATOM     10  O   UNL d   1     -55.777 -99.770 -45.487  0.00  0.00    -0.284 OA
ATOM     11  C   UNL d   1     -54.751-101.208 -43.750  0.00  0.00     0.042 A 
ATOM     12  O   UNL d   1     -54.736-101.722 -42.418  0.00  0.00    -0.286 OA
ATOM     13  C   UNL d   1     -57.787 -98.949 -43.610  0.00  0.00     0.029 C 
ENDROOT
BRANCH   1  14
ATOM     14  O   UNL d   1     -57.126 -98.876 -45.134  0.00  0.00    -0.300 OA
BRANCH  14  15
ATOM     15  C   UNL d   1     -57.945 -98.846 -45.205  0.00  0.00     0.123 A 
ATOM     16  C   UNL d   1     -58.289 -98.786 -45.951  0.00  0.00     0.123 A 
ATOM     17  C   UNL d   1     -59.104 -98.755 -46.029  0.00  0.00     0.027 A 
ATOM     18  C   UNL d   1     -59.586 -98.784 -45.361  0.00  0.00     0.002 A 
ATOM     19  C   UNL d   1     -59.240 -98.844 -44.604  0.00  0.00     0.002 A 
ATOM     20  C   UNL d   1     -58.421 -98.875 -44.532  0.00  0.00     0.027 A 
BRANCH  16  21
ATOM     21  O   UNL d   1     -57.810 -98.757 -46.623  0.00  0.00    -0.303 OA
BRANCH  21  22
ATOM     22  C   UNL d   1     -57.846 -99.364 -47.176  0.00  0.00     0.123 C 
ATOM     23  C   UNL d   1     -58.409 -99.351 -47.776  0.00  0.00     0.029 C 
ENDBRANCH  21  22
ENDBRANCH  16  21
ENDBRANCH  14  15
ENDBRANCH   1  14
BRANCH   5  24
ATOM     24  C   UNL d   1     -56.071-100.842 -42.055  0.00  0.00     0.086 C 
BRANCH  24  25
ATOM     25  N   UNL d   1     -55.729-101.351 -41.496  0.00  0.00    -0.300 N 
ATOM     26  C   UNL d   1     -55.052-101.120 -41.081  0.00  0.00     0.100 A 
ATOM     27  C   UNL d   1     -54.717-101.626 -40.530  0.00  0.00     0.100 A 
ATOM     28  N   UNL d   1     -55.051-102.367 -40.385  0.00  0.00    -0.299 N 
ATOM     29  C   UNL d   1     -55.728-102.599 -40.800  0.00  0.00     0.100 A 
ATOM     30  C   UNL d   1     -54.714-102.875 -39.832  0.00  0.00     0.100 C 
ATOM     31  C   UNL d   1     -56.071-102.089 -41.360  0.00  0.00     0.100 A 
ENDBRANCH  24  25
ENDBRANCH   5  24
TORSDOF 6
ENDMDL
