MODEL 1
REMARK VINA RESULT:      14.5      0.000      0.000
REMARK  3 active torsions:
REMARK  status: ('A' for Active; 'I' for Inactive)
REMARK    1  A    between atoms: N_2  and  S_1 
REMARK    2  A    between atoms: N_4  and  S_1 
REMARK    3  A    between atoms: C_9  and  N_3 
ROOT
ATOM      1  N   UNL d   1      46.149 -17.990  43.954  0.00  0.00    -0.213 N 
ATOM      2  N   UNL d   1      45.853 -16.407  44.289  0.00  0.00    -0.301 N 
ATOM      3  C   UNL d   1      46.093 -17.451  43.349  0.00  0.00     0.112 A 
ATOM      4  C   UNL d   1      46.057 -17.757  44.761  0.00  0.00     0.112 A 
ATOM      5  C   UNL d   1      45.945 -16.657  43.517  0.00  0.00     0.100 A 
ATOM      6  C   UNL d   1      45.908 -16.963  44.929  0.00  0.00     0.100 A 
ENDROOT
BRANCH   2   7
ATOM      7  C   UNL d   1      45.703 -15.609  44.458  0.00  0.00     0.064 A 
ATOM      8  C   UNL d   1      46.287 -15.046  44.288  0.00  0.00     0.018 A 
ATOM      9  C   UNL d   1      46.141 -14.247  44.455  0.00  0.00     0.013 A 
ATOM     10  C   UNL d   1      45.425 -14.016  44.787  0.00  0.00     0.058 A 
ATOM     11  C   UNL d   1      44.844 -14.591  44.955  0.00  0.00     0.013 A 
ATOM     12 CL   UNL d   1      45.279 -13.217  44.955  0.00  0.00    -0.082 Cl
ATOM     13  C   UNL d   1      44.988 -15.382  44.789  0.00  0.00     0.018 A 
ENDBRANCH   2   7
BRANCH   1  14
ATOM     14  S   UNL d   1      46.300 -18.801  43.782  0.00  0.00     0.337 S 
ATOM     15  O   UNL d   1      46.193 -19.089  43.014  0.00  0.00    -0.181 OA
ATOM     16  O   UNL d   1      46.558 -19.311  44.385  0.00  0.00    -0.181 OA
BRANCH  14  17
ATOM     17  N   UNL d   1      46.390 -19.541  43.414  0.00  0.00    -0.213 N 
ATOM     18  C   UNL d   1      46.279 -20.230  43.845  0.00  0.00     0.113 C 
ATOM     19  C   UNL d   1      46.594 -19.582  42.607  0.00  0.00     0.113 C 
ENDBRANCH  14  17
ENDBRANCH   1  14
TORSDOF 3
ENDMDL
MODEL 2
REMARK VINA RESULT:      14.8      2.725      4.468
REMARK  3 active torsions:
REMARK  status: ('A' for Active; 'I' for Inactive)
REMARK    1  A    between atoms: N_2  and  S_1 
REMARK    2  A    between atoms: N_4  and  S_1 
REMARK    3  A    between atoms: C_9  and  N_3 
ROOT
ATOM      1  N   UNL d   1      45.715 -15.526  44.346  0.00  0.00    -0.213 N 
ATOM      2  N   UNL d   1      46.025 -17.111  44.031  0.00  0.00    -0.301 N 
ATOM      3  C   UNL d   1      45.741 -16.064  44.955  0.00  0.00     0.112 A 
ATOM      4  C   UNL d   1      45.845 -15.763  43.545  0.00  0.00     0.112 A 
ATOM      5  C   UNL d   1      45.897 -16.858  44.797  0.00  0.00     0.100 A 
ATOM      6  C   UNL d   1      46.000 -16.558  43.387  0.00  0.00     0.100 A 
ENDROOT
BRANCH   2   7
ATOM      7  C   UNL d   1      46.182 -17.910  43.872  0.00  0.00     0.064 A 
ATOM      8  C   UNL d   1      46.214 -18.165  43.084  0.00  0.00     0.018 A 
ATOM      9  C   UNL d   1      46.370 -18.963  42.921  0.00  0.00     0.013 A 
ATOM     10  C   UNL d   1      46.491 -19.496  43.536  0.00  0.00     0.058 A 
ATOM     11  C   UNL d   1      46.456 -19.229  44.326  0.00  0.00     0.013 A 
ATOM     12 CL   UNL d   1      46.647 -20.294  43.373  0.00  0.00    -0.082 Cl
ATOM     13  C   UNL d   1      46.302 -18.439  44.488  0.00  0.00     0.018 A 
ENDBRANCH   2   7
BRANCH   1  14
ATOM     14  S   UNL d   1      45.557 -14.715  44.507  0.00  0.00     0.337 S 
ATOM     15  O   UNL d   1      46.070 -14.129  44.228  0.00  0.00    -0.181 OA
ATOM     16  O   UNL d   1      44.884 -14.503  44.946  0.00  0.00    -0.181 OA
BRANCH  14  17
ATOM     17  N   UNL d   1      45.582 -13.885  44.554  0.00  0.00    -0.213 N 
ATOM     18  C   UNL d   1      46.200 -13.515  44.945  0.00  0.00     0.113 C 
ATOM     19  C   UNL d   1      44.979 -13.431  44.203  0.00  0.00     0.113 C 
ENDBRANCH  14  17
ENDBRANCH   1  14
TORSDOF 3
ENDMDL
