MODEL 1
REMARK VINA RESULT:      -8.2      0.000      0.000
REMARK  3 active torsions:
REMARK  status: ('A' for Active; 'I' for Inactive)
REMARK    1  A    between atoms: S_15  and  C_4 
REMARK    2  A    between atoms: C_9  and  C_16 
REMARK    3  A    between atoms: C_16  and  S_15 
ROOT
ATOM      1  C   UNL d   1     -48.266  13.129  23.084  0.00  0.00     0.141 A 
ATOM      2  C   UNL d   1     -49.070  13.314  23.098  0.00  0.00     0.110 A 
ATOM      3  O   UNL d   1     -47.851  13.808  22.870  0.00  0.00    -0.303 OA
ATOM      4  C   UNL d   1     -48.015  12.364  23.267  0.00  0.00     0.137 A 
ATOM      5  N   UNL d   1     -48.568  11.784  23.465  0.00  0.00    -0.218 NA
ATOM      6  C   UNL d   1     -49.152  14.109  22.893  0.00  0.00     0.043 A 
ATOM      7  N   UNL d   1     -49.622  12.734  23.297  0.00  0.00    -0.225 NA
ATOM      8  C   UNL d   1     -48.399  14.415  22.752  0.00  0.00     0.102 A 
ATOM      9  C   UNL d   1     -49.372  11.970  23.480  0.00  0.00     0.163 A 
ATOM     10  C   UNL d   1     -49.815  14.593  22.817  0.00  0.00     0.004 A 
ATOM     11  C   UNL d   1     -48.311  15.205  22.535  0.00  0.00     0.025 A 
ATOM     12  C   UNL d   1     -49.924  11.391  23.678  0.00  0.00     0.042 C 
ATOM     13  C   UNL d   1     -49.726  15.384  22.600  0.00  0.00     0.000 A 
ATOM     14  C   UNL d   1     -48.973  15.689  22.459  0.00  0.00     0.002 A 
ENDROOT
BRANCH   4  15
ATOM     15  S   UNL d   1     -47.211  12.179  23.253  0.00  0.00    -0.062 SA
BRANCH  15  16
ATOM     16  C   UNL d   1     -46.930  11.532  23.682  0.00  0.00     0.076 C 
BRANCH  16  17
ATOM     17  C   UNL d   1     -46.152  11.275  23.577  0.00  0.00     0.169 A 
ATOM     18  N   UNL d   1     -45.876  10.506  23.698  0.00  0.00    -0.225 NA
ATOM     19  C   UNL d   1     -45.069  10.497  23.529  0.00  0.00     0.101 A 
ATOM     20  C   UNL d   1     -44.506   9.894  23.551  0.00  0.00     0.021 A 
ATOM     21  C   UNL d   1     -44.845  11.259  23.304  0.00  0.00     0.101 A 
ATOM     22  C   UNL d   1     -43.723  10.051  23.349  0.00  0.00     0.002 A 
ATOM     23  C   UNL d   1     -43.500  10.813  23.124  0.00  0.00     0.002 A 
ATOM     24  C   UNL d   1     -44.061  11.417  23.102  0.00  0.00     0.021 A 
ATOM     25  N   UNL d   1     -45.515  11.740  23.334  0.00  0.00    -0.225 NA
ENDBRANCH  16  17
ENDBRANCH  15  16
ENDBRANCH   4  15
TORSDOF 3
ENDMDL
MODEL 2
REMARK VINA RESULT:      -8.2      1.087      2.108
REMARK  3 active torsions:
REMARK  status: ('A' for Active; 'I' for Inactive)
REMARK    1  A    between atoms: S_15  and  C_4 
REMARK    2  A    between atoms: C_9  and  C_16 
REMARK    3  A    between atoms: C_16  and  S_15 
ROOT
ATOM      1  C   UNL d   1     -48.313  12.934  23.129  0.00  0.00     0.141 A 
ATOM      2  C   UNL d   1     -48.894  13.505  23.000  0.00  0.00     0.110 A 
ATOM      3  O   UNL d   1     -48.687  12.225  23.321  0.00  0.00    -0.303 OA
ATOM      4  C   UNL d   1     -47.515  13.133  23.056  0.00  0.00     0.137 A 
ATOM      5  N   UNL d   1     -47.299  13.904  22.853  0.00  0.00    -0.218 NA
ATOM      6  C   UNL d   1     -49.630  13.148  23.112  0.00  0.00     0.043 A 
ATOM      7  N   UNL d   1     -48.678  14.275  22.798  0.00  0.00    -0.225 NA
ATOM      8  C   UNL d   1     -49.503  12.358  23.310  0.00  0.00     0.102 A 
ATOM      9  C   UNL d   1     -47.882  14.475  22.724  0.00  0.00     0.163 A 
ATOM     10  C   UNL d   1     -50.399  13.442  23.060  0.00  0.00     0.004 A 
ATOM     11  C   UNL d   1     -50.145  11.861  23.455  0.00  0.00     0.025 A 
ATOM     12  C   UNL d   1     -47.666  15.244  22.522  0.00  0.00     0.042 C 
ATOM     13  C   UNL d   1     -51.041  12.945  23.205  0.00  0.00     0.000 A 
ATOM     14  C   UNL d   1     -50.913  12.155  23.402  0.00  0.00     0.002 A 
ENDROOT
BRANCH   4  15
ATOM     15  S   UNL d   1     -46.933  12.563  23.184  0.00  0.00    -0.062 SA
BRANCH  15  16
ATOM     16  C   UNL d   1     -46.166  12.687  22.905  0.00  0.00     0.076 C 
BRANCH  16  17
ATOM     17  C   UNL d   1     -45.588  12.109  23.019  0.00  0.00     0.169 A 
ATOM     18  N   UNL d   1     -44.805  12.149  22.757  0.00  0.00    -0.225 NA
ATOM     19  C   UNL d   1     -44.424  11.456  22.990  0.00  0.00     0.101 A 
ATOM     20  C   UNL d   1     -43.651  11.188  22.887  0.00  0.00     0.021 A 
ATOM     21  C   UNL d   1     -44.970  10.987  23.397  0.00  0.00     0.101 A 
ATOM     22  C   UNL d   1     -43.423  10.455  23.188  0.00  0.00     0.002 A 
ATOM     23  C   UNL d   1     -43.968   9.988  23.593  0.00  0.00     0.002 A 
ATOM     24  C   UNL d   1     -44.742  10.253  23.698  0.00  0.00     0.021 A 
ATOM     25  N   UNL d   1     -45.689  11.392  23.414  0.00  0.00    -0.225 NA
ENDBRANCH  16  17
ENDBRANCH  15  16
ENDBRANCH   4  15
TORSDOF 3
ENDMDL
MODEL 3
REMARK VINA RESULT:      -7.5      1.224      1.686
REMARK  3 active torsions:
REMARK  status: ('A' for Active; 'I' for Inactive)
REMARK    1  A    between atoms: S_15  and  C_4 
REMARK    2  A    between atoms: C_9  and  C_16 
REMARK    3  A    between atoms: C_16  and  S_15 
ROOT
ATOM      1  C   UNL d   1     -48.822  13.699  23.200  0.00  0.00     0.141 A 
ATOM      2  C   UNL d   1     -49.600  13.584  23.450  0.00  0.00     0.110 A 
ATOM      3  O   UNL d   1     -48.708  14.506  23.078  0.00  0.00    -0.303 OA
ATOM      4  C   UNL d   1     -48.315  13.052  23.117  0.00  0.00     0.137 A 
ATOM      5  N   UNL d   1     -48.588  12.291  23.283  0.00  0.00    -0.218 NA
ATOM      6  C   UNL d   1     -49.968  14.323  23.481  0.00  0.00     0.043 A 
ATOM      7  N   UNL d   1     -49.871  12.824  23.615  0.00  0.00    -0.225 NA
ATOM      8  C   UNL d   1     -49.418  14.892  23.251  0.00  0.00     0.102 A 
ATOM      9  C   UNL d   1     -49.367  12.177  23.532  0.00  0.00     0.163 A 
ATOM     10  C   UNL d   1     -50.733  14.548  23.689  0.00  0.00     0.004 A 
ATOM     11  C   UNL d   1     -49.634  15.688  23.230  0.00  0.00     0.025 A 
ATOM     12  C   UNL d   1     -49.638  11.417  23.698  0.00  0.00     0.042 C 
ATOM     13  C   UNL d   1     -50.949  15.344  23.668  0.00  0.00     0.000 A 
ATOM     14  C   UNL d   1     -50.398  15.914  23.438  0.00  0.00     0.002 A 
ENDROOT
BRANCH   4  15
ATOM     15  S   UNL d   1     -47.537  13.166  22.867  0.00  0.00    -0.062 SA
BRANCH  15  16
ATOM     16  C   UNL d   1     -46.916  12.820  23.286  0.00  0.00     0.076 C 
BRANCH  16  17
ATOM     17  C   UNL d   1     -46.169  12.759  22.940  0.00  0.00     0.169 A 
ATOM     18  N   UNL d   1     -45.856  13.269  22.371  0.00  0.00    -0.225 NA
ATOM     19  C   UNL d   1     -45.099  13.003  22.180  0.00  0.00     0.101 A 
ATOM     20  C   UNL d   1     -44.529  13.286  21.655  0.00  0.00     0.021 A 
ATOM     21  C   UNL d   1     -44.944  12.328  22.630  0.00  0.00     0.101 A 
ATOM     22  C   UNL d   1     -43.807  12.897  21.579  0.00  0.00     0.002 A 
ATOM     23  C   UNL d   1     -43.652  12.223  22.029  0.00  0.00     0.002 A 
ATOM     24  C   UNL d   1     -44.220  11.938  22.555  0.00  0.00     0.021 A 
ATOM     25  N   UNL d   1     -45.606  12.178  23.099  0.00  0.00    -0.225 NA
ENDBRANCH  16  17
ENDBRANCH  15  16
ENDBRANCH   4  15
TORSDOF 3
ENDMDL
MODEL 4
REMARK VINA RESULT:      -5.9      7.956     10.086
REMARK  3 active torsions:
REMARK  status: ('A' for Active; 'I' for Inactive)
REMARK    1  A    between atoms: S_15  and  C_4 
REMARK    2  A    between atoms: C_9  and  C_16 
REMARK    3  A    between atoms: C_16  and  S_15 
ROOT
ATOM      1  C   UNL d   1     -39.182  14.301  20.531  0.00  0.00     0.141 A 
ATOM      2  C   UNL d   1     -39.550  14.400  21.263  0.00  0.00     0.110 A 
ATOM      3  O   UNL d   1     -38.526  13.814  20.638  0.00  0.00    -0.303 OA
ATOM      4  C   UNL d   1     -39.494  14.667  19.859  0.00  0.00     0.137 A 
ATOM      5  N   UNL d   1     -40.173  15.132  19.920  0.00  0.00    -0.218 NA
ATOM      6  C   UNL d   1     -39.119  13.974  21.824  0.00  0.00     0.043 A 
ATOM      7  N   UNL d   1     -40.228  14.865  21.323  0.00  0.00    -0.225 NA
ATOM      8  C   UNL d   1     -38.486  13.612  21.438  0.00  0.00     0.102 A 
ATOM      9  C   UNL d   1     -40.540  15.231  20.654  0.00  0.00     0.163 A 
ATOM     10  C   UNL d   1     -39.222  13.870  22.635  0.00  0.00     0.004 A 
ATOM     11  C   UNL d   1     -37.957  13.146  21.865  0.00  0.00     0.025 A 
ATOM     12  C   UNL d   1     -41.218  15.696  20.714  0.00  0.00     0.042 C 
ATOM     13  C   UNL d   1     -38.692  13.403  23.061  0.00  0.00     0.000 A 
ATOM     14  C   UNL d   1     -38.060  13.041  22.675  0.00  0.00     0.002 A 
ENDROOT
BRANCH   4  15
ATOM     15  S   UNL d   1     -39.127  14.568  19.127  0.00  0.00    -0.062 SA
BRANCH  15  16
ATOM     16  C   UNL d   1     -39.556  14.687  18.432  0.00  0.00     0.076 C 
BRANCH  16  17
ATOM     17  C   UNL d   1     -39.186  14.600  17.699  0.00  0.00     0.169 A 
ATOM     18  N   UNL d   1     -38.910  15.214  17.220  0.00  0.00    -0.225 NA
ATOM     19  C   UNL d   1     -38.581  14.879  16.543  0.00  0.00     0.101 A 
ATOM     20  C   UNL d   1     -38.224  15.213  15.878  0.00  0.00     0.021 A 
ATOM     21  C   UNL d   1     -38.652  14.058  16.602  0.00  0.00     0.101 A 
ATOM     22  C   UNL d   1     -37.939  14.730  15.274  0.00  0.00     0.002 A 
ATOM     23  C   UNL d   1     -38.011  13.910  15.334  0.00  0.00     0.002 A 
ATOM     24  C   UNL d   1     -38.367  13.574  15.997  0.00  0.00     0.021 A 
ATOM     25  N   UNL d   1     -39.026  13.887  17.317  0.00  0.00    -0.225 NA
ENDBRANCH  16  17
ENDBRANCH  15  16
ENDBRANCH   4  15
TORSDOF 3
ENDMDL
MODEL 5
REMARK VINA RESULT:      -5.9      1.515      5.069
REMARK  3 active torsions:
REMARK  status: ('A' for Active; 'I' for Inactive)
REMARK    1  A    between atoms: S_15  and  C_4 
REMARK    2  A    between atoms: C_9  and  C_16 
REMARK    3  A    between atoms: C_16  and  S_15 
ROOT
ATOM      1  C   UNL d   1     -45.578  12.810  22.555  0.00  0.00     0.141 A 
ATOM      2  C   UNL d   1     -45.010  12.211  22.566  0.00  0.00     0.110 A 
ATOM      3  O   UNL d   1     -45.267  13.451  22.140  0.00  0.00    -0.303 OA
ATOM      4  C   UNL d   1     -46.307  12.694  22.925  0.00  0.00     0.137 A 
ATOM      5  N   UNL d   1     -46.468  11.980  23.306  0.00  0.00    -0.218 NA
ATOM      6  C   UNL d   1     -44.346  12.483  22.157  0.00  0.00     0.043 A 
ATOM      7  N   UNL d   1     -45.172  11.498  22.947  0.00  0.00    -0.225 NA
ATOM      8  C   UNL d   1     -44.505  13.248  21.893  0.00  0.00     0.102 A 
ATOM      9  C   UNL d   1     -45.899  11.382  23.316  0.00  0.00     0.163 A 
ATOM     10  C   UNL d   1     -43.620  12.131  21.991  0.00  0.00     0.004 A 
ATOM     11  C   UNL d   1     -43.935  13.661  21.463  0.00  0.00     0.025 A 
ATOM     12  C   UNL d   1     -46.060  10.669  23.697  0.00  0.00     0.042 C 
ATOM     13  C   UNL d   1     -43.050  12.545  21.561  0.00  0.00     0.000 A 
ATOM     14  C   UNL d   1     -43.208  13.310  21.297  0.00  0.00     0.002 A 
ENDROOT
BRANCH   4  15
ATOM     15  S   UNL d   1     -46.875  13.292  22.914  0.00  0.00    -0.062 SA
BRANCH  15  16
ATOM     16  C   UNL d   1     -47.662  13.110  22.740  0.00  0.00     0.076 C 
BRANCH  16  17
ATOM     17  C   UNL d   1     -48.252  13.672  22.867  0.00  0.00     0.169 A 
ATOM     18  N   UNL d   1     -48.983  13.534  23.226  0.00  0.00    -0.225 NA
ATOM     19  C   UNL d   1     -49.398  14.247  23.239  0.00  0.00     0.101 A 
ATOM     20  C   UNL d   1     -50.147  14.445  23.524  0.00  0.00     0.021 A 
ATOM     21  C   UNL d   1     -48.925  14.826  22.888  0.00  0.00     0.101 A 
ATOM     22  C   UNL d   1     -50.422  15.220  23.459  0.00  0.00     0.002 A 
ATOM     23  C   UNL d   1     -49.949  15.798  23.109  0.00  0.00     0.002 A 
ATOM     24  C   UNL d   1     -49.200  15.601  22.823  0.00  0.00     0.021 A 
ATOM     25  N   UNL d   1     -48.217  14.470  22.659  0.00  0.00    -0.225 NA
ENDBRANCH  16  17
ENDBRANCH  15  16
ENDBRANCH   4  15
TORSDOF 3
ENDMDL
