MODEL 1
REMARK VINA RESULT:      87.7      0.000      0.000
REMARK  4 active torsions:
REMARK  status: ('A' for Active; 'I' for Inactive)
REMARK    1  A    between atoms: C_7  and  C_1 
REMARK    2  A    between atoms: C_8  and  C_3 
REMARK    3  A    between atoms: C_10  and  C_6 
REMARK    4  A    between atoms: C_9  and  C_8 
ROOT
ATOM      1  C   UNL d   1      59.480  49.274  50.492  0.00  0.00     0.293 A 
ATOM      2  N   UNL d   1      58.748  49.429  50.854  0.00  0.00    -0.223 N 
ATOM      3  C   UNL d   1      60.175  49.237  50.959  0.00  0.00     0.113 A 
ATOM      4  C   UNL d   1      58.711  49.547  51.682  0.00  0.00     0.356 A 
ATOM      5  N   UNL d   1      59.405  49.510  52.149  0.00  0.00    -0.192 NA
ATOM      6  C   UNL d   1      60.137  49.355  51.788  0.00  0.00     0.094 A 
ATOM      7  O   UNL d   1      57.971  49.701  52.028  0.00  0.00    -0.244 OA
ATOM      8  O   UNL d   1      60.100  49.112  49.955  0.00  0.00    -0.267 OA
ATOM      9  C   UNL d   1      58.064  49.467  50.405  0.00  0.00     0.106 C 
ENDROOT
BRANCH   3  10
ATOM     10  C   UNL d   1      60.907  49.082  50.597  0.00  0.00     0.207 C 
ATOM     11  O   UNL d   1      61.401  49.702  50.375  0.00  0.00    -0.286 OA
BRANCH  10  12
ATOM     12  C   UNL d   1      61.143  48.291  50.458  0.00  0.00     0.069 A 
ATOM     13  S   UNL d   1      60.945  47.571  50.819  0.00  0.00    -0.083 SA
ATOM     14  C   UNL d   1      61.365  46.974  50.429  0.00  0.00     0.035 A 
ATOM     15  C   UNL d   1      61.823  47.279  49.834  0.00  0.00     0.008 A 
ATOM     16  C   UNL d   1      61.693  48.102  49.841  0.00  0.00     0.010 A 
ENDBRANCH  10  12
ENDBRANCH   3  10
BRANCH   1  17
ATOM     17  C   UNL d   1      58.940  49.269  49.877  0.00  0.00     0.469 C 
ATOM     18  F   UNL d   1      59.114  49.638  49.338  0.00  0.00    -0.162 F 
ATOM     19  F   UNL d   1      58.374  49.252  49.254  0.00  0.00    -0.162 F 
ATOM     20  F   UNL d   1      58.312  48.881  49.925  0.00  0.00    -0.162 F 
ENDBRANCH   1  17
BRANCH   6  21
ATOM     21  C   UNL d   1      60.817  49.319  52.242  0.00  0.00     0.021 A 
ATOM     22  C   UNL d   1      60.797  49.530  53.032  0.00  0.00     0.043 A 
ATOM     23  C   UNL d   1      61.490  49.492  53.494  0.00  0.00     0.196 A 
ATOM     24  O   UNL d   1      61.465  49.703  54.280  0.00  0.00    -0.287 OA
ATOM     25  C   UNL d   1      62.186  49.244  53.152  0.00  0.00     0.042 A 
ATOM     26  C   UNL d   1      62.212  49.033  52.363  0.00  0.00     0.003 A 
ATOM     27  C   UNL d   1      61.527  49.070  51.908  0.00  0.00     0.002 A 
ENDBRANCH   6  21
TORSDOF 4
ENDMDL
