MODEL 1
REMARK VINA RESULT:      19.8      0.000      0.000
REMARK  5 active torsions:
REMARK  status: ('A' for Active; 'I' for Inactive)
REMARK    1  A    between atoms: C_8  and  N_1 
REMARK    2  A    between atoms: C_6  and  C_2 
REMARK    3  A    between atoms: C_9  and  C_6 
REMARK    4  A    between atoms: C_7  and  C_9 
REMARK    5  A    between atoms: C_14  and  C_8 
ROOT
ATOM      1  N   UNL d   1      46.269 -18.134  43.446  0.00  0.00    -0.289 N 
ATOM      2  C   UNL d   1      46.301 -17.638  44.099  0.00  0.00     0.148 A 
ATOM      3  N   UNL d   1      46.357 -18.130  44.789  0.00  0.00    -0.227 NA
ATOM      4  C   UNL d   1      46.304 -18.931  43.689  0.00  0.00     0.083 A 
ATOM      5  C   UNL d   1      46.359 -18.898  44.543  0.00  0.00     0.099 A 
ATOM      6  C   UNL d   1      46.293 -19.646  43.280  0.00  0.00     0.019 A 
ATOM      7  C   UNL d   1      46.403 -19.641  44.955  0.00  0.00     0.021 A 
ATOM      8  C   UNL d   1      46.336 -20.330  43.692  0.00  0.00     0.002 A 
ATOM      9  C   UNL d   1      46.390 -20.327  44.516  0.00  0.00     0.002 A 
ENDROOT
BRANCH   1  10
ATOM     10  C   UNL d   1      46.215 -17.723  42.754  0.00  0.00     0.082 C 
BRANCH  10  11
ATOM     11  C   UNL d   1      46.322 -18.123  42.050  0.00  0.00     0.018 A 
ATOM     12  C   UNL d   1      46.395 -17.707  41.342  0.00  0.00     0.002 A 
ATOM     13  C   UNL d   1      46.506 -18.140  40.618  0.00  0.00     0.000 A 
ATOM     14  C   UNL d   1      46.541 -18.964  40.618  0.00  0.00     0.000 A 
ATOM     15  C   UNL d   1      46.467 -19.380  41.326  0.00  0.00     0.000 A 
ATOM     16  C   UNL d   1      46.647 -19.350  39.921  0.00  0.00     0.000 C 
ATOM     17  C   UNL d   1      46.359 -18.973  42.035  0.00  0.00     0.002 A 
ENDBRANCH  10  11
ENDBRANCH   1  10
BRANCH   2  18
ATOM     18  C   UNL d   1      46.297 -16.843  44.318  0.00  0.00     0.039 C 
BRANCH  18  19
ATOM     19  C   UNL d   1      45.594 -16.486  44.534  0.00  0.00     0.028 C 
BRANCH  19  20
ATOM     20  C   UNL d   1      45.523 -15.662  44.501  0.00  0.00     0.100 A 
ATOM     21  O   UNL d   1      45.005 -15.229  44.027  0.00  0.00    -0.305 OA
ATOM     22  C   UNL d   1      45.133 -14.427  44.182  0.00  0.00     0.123 A 
ATOM     23  C   UNL d   1      45.726 -14.353  44.749  0.00  0.00     0.029 A 
ATOM     24  C   UNL d   1      45.965 -15.133  44.943  0.00  0.00     0.027 A 
ENDBRANCH  19  20
ENDBRANCH  18  19
ENDBRANCH   2  18
TORSDOF 5
ENDMDL
