MODEL 1
REMARK VINA RESULT:      -2.5      0.000      0.000
REMARK  5 active torsions:
REMARK  status: ('A' for Active; 'I' for Inactive)
REMARK    1  A    between atoms: C_2  and  S_1 
REMARK    2  A    between atoms: N_3  and  S_1 
REMARK    3  A    between atoms: C_6  and  C_7 
REMARK    4  A    between atoms: C_7  and  C_8 
REMARK    5  A    between atoms: C_8  and  C_12 
ROOT
ATOM      1  C   UNL d   1      59.219  -1.226  29.259  0.00  0.00     0.104 A 
ATOM      2  C   UNL d   1      59.702  -0.645  28.970  0.00  0.00     0.012 A 
ATOM      3  C   UNL d   1      58.579  -1.047  29.724  0.00  0.00     0.013 A 
ATOM      4  C   UNL d   1      58.414  -0.244  29.907  0.00  0.00     0.001 A 
ATOM      5  C   UNL d   1      59.537   0.158  29.153  0.00  0.00     0.001 A 
ATOM      6  C   UNL d   1      58.899   0.337  29.616  0.00  0.00     0.000 A 
ATOM      7  C   UNL d   1      60.362  -0.839  28.490  0.00  0.00     0.001 C 
ENDROOT
BRANCH   1   8
ATOM      8  S   UNL d   1      59.384  -2.029  29.076  0.00  0.00     0.271 S 
ATOM      9  O   UNL d   1      58.852  -1.996  28.455  0.00  0.00    -0.200 OA
ATOM     10  O   UNL d   1      59.930  -2.063  29.713  0.00  0.00    -0.200 OA
BRANCH   8  11
ATOM     11  N   UNL d   1      59.539  -2.810  28.891  0.00  0.00    -0.229 N 
ATOM     12  C   UNL d   1      58.925  -3.295  28.642  0.00  0.00     0.092 A 
ATOM     13  C   UNL d   1      59.083  -4.087  28.455  0.00  0.00     0.020 A 
ATOM     14  C   UNL d   1      59.857  -4.390  28.519  0.00  0.00     0.003 A 
ATOM     15  C   UNL d   1      60.448  -3.885  28.770  0.00  0.00     0.020 A 
ATOM     16  C   UNL d   1      60.294  -3.096  28.956  0.00  0.00     0.092 A 
ENDBRANCH   8  11
ENDBRANCH   1   8
BRANCH   4  17
ATOM     17  C   UNL d   1      57.740  -0.063  30.395  0.00  0.00     0.006 C 
BRANCH  17  18
ATOM     18  C   UNL d   1      57.824   0.120  31.206  0.00  0.00     0.070 C 
BRANCH  18  19
ATOM     19  C   UNL d   1      57.187   0.042  31.714  0.00  0.00     0.211 C 
ATOM     20  O   UNL d   1      56.730  -0.655  31.710  0.00  0.00    -0.644 OA
ATOM     21  O   UNL d   1      56.993   0.645  32.230  0.00  0.00    -0.644 OA
ENDBRANCH  18  19
ENDBRANCH  17  18
ENDBRANCH   4  17
TORSDOF 5
ENDMDL
MODEL 2
REMARK VINA RESULT:      -2.4      0.999      1.496
REMARK  5 active torsions:
REMARK  status: ('A' for Active; 'I' for Inactive)
REMARK    1  A    between atoms: C_2  and  S_1 
REMARK    2  A    between atoms: N_3  and  S_1 
REMARK    3  A    between atoms: C_6  and  C_7 
REMARK    4  A    between atoms: C_7  and  C_8 
REMARK    5  A    between atoms: C_8  and  C_12 
ROOT
ATOM      1  C   UNL d   1      58.415  -0.587  29.810  0.00  0.00     0.104 A 
ATOM      2  C   UNL d   1      58.252   0.086  29.392  0.00  0.00     0.012 A 
ATOM      3  C   UNL d   1      58.122  -0.696  30.559  0.00  0.00     0.013 A 
ATOM      4  C   UNL d   1      57.642  -0.100  30.905  0.00  0.00     0.001 A 
ATOM      5  C   UNL d   1      57.772   0.682  29.738  0.00  0.00     0.001 A 
ATOM      6  C   UNL d   1      57.480   0.573  30.484  0.00  0.00     0.000 A 
ATOM      7  C   UNL d   1      58.559   0.191  28.618  0.00  0.00     0.001 C 
ENDROOT
BRANCH   1   8
ATOM      8  S   UNL d   1      58.895  -1.183  29.464  0.00  0.00     0.271 S 
ATOM      9  O   UNL d   1      59.566  -0.784  29.708  0.00  0.00    -0.200 OA
ATOM     10  O   UNL d   1      58.206  -1.593  29.214  0.00  0.00    -0.200 OA
BRANCH   8  11
ATOM     11  N   UNL d   1      59.369  -1.759  29.130  0.00  0.00    -0.229 N 
ATOM     12  C   UNL d   1      59.021  -2.422  28.794  0.00  0.00     0.092 A 
ATOM     13  C   UNL d   1      59.503  -3.006  28.455  0.00  0.00     0.020 A 
ATOM     14  C   UNL d   1      60.332  -2.921  28.455  0.00  0.00     0.003 A 
ATOM     15  C   UNL d   1      60.650  -2.252  28.796  0.00  0.00     0.020 A 
ATOM     16  C   UNL d   1      60.174  -1.669  29.134  0.00  0.00     0.092 A 
ENDBRANCH   8  11
ENDBRANCH   1   8
BRANCH   4  17
ATOM     17  C   UNL d   1      57.338  -0.221  31.692  0.00  0.00     0.006 C 
BRANCH  17  18
ATOM     18  C   UNL d   1      56.575  -0.536  31.822  0.00  0.00     0.070 C 
BRANCH  18  19
ATOM     19  C   UNL d   1      56.343  -0.756  32.575  0.00  0.00     0.211 C 
ATOM     20  O   UNL d   1      56.263  -1.562  32.770  0.00  0.00    -0.644 OA
ATOM     21  O   UNL d   1      56.188  -0.189  33.143  0.00  0.00    -0.644 OA
ENDBRANCH  18  19
ENDBRANCH  17  18
ENDBRANCH   4  17
TORSDOF 5
ENDMDL
