MODEL 1
REMARK VINA RESULT:      58.5      0.000      0.000
REMARK  5 active torsions:
REMARK  status: ('A' for Active; 'I' for Inactive)
REMARK    1  A    between atoms: C_11  and  C_1 
REMARK    2  A    between atoms: C_5  and  S_13 
REMARK       I    between atoms: C_12  and  N_14 
REMARK    3  A    between atoms: C_18  and  C_12 
REMARK    4  A    between atoms: S_13  and  C_18 
REMARK    5  A    between atoms: N_14  and  C_19 
ROOT
ATOM      1  C   UNL d   1     -55.095-101.047 -43.410  0.00  0.00     0.024 A 
ATOM      2  C   UNL d   1     -54.874-100.734 -42.679  0.00  0.00     0.004 A 
ATOM      3  C   UNL d   1     -55.221-101.847 -43.503  0.00  0.00     0.004 A 
ATOM      4  C   UNL d   1     -54.908-102.059 -42.127  0.00  0.00     0.085 A 
ATOM      5  C   UNL d   1     -55.128-102.355 -42.859  0.00  0.00     0.019 A 
ATOM      6  C   UNL d   1     -54.780-101.243 -42.035  0.00  0.00     0.019 A 
ENDROOT
BRANCH   4   7
ATOM      7  N   UNL d   1     -54.818-102.577 -41.491  0.00  0.00    -0.208 NA
ATOM      8  C   UNL d   1     -55.004-102.322 -40.728  0.00  0.00     0.286 C 
ATOM      9  O   UNL d   1     -55.277-101.557 -40.606  0.00  0.00    -0.265 OA
BRANCH   8  10
ATOM     10  C   UNL d   1     -54.915-102.836 -40.089  0.00  0.00     0.100 C 
BRANCH  10  11
ATOM     11  S   UNL d   1     -54.719-102.534 -39.344  0.00  0.00    -0.054 SA
BRANCH  11  12
ATOM     12  C   UNL d   1     -55.230-102.646 -38.703  0.00  0.00     0.164 A 
ATOM     13  S   UNL d   1     -55.017-102.636 -37.912  0.00  0.00    -0.039 SA
ATOM     14  C   UNL d   1     -55.702-102.772 -37.463  0.00  0.00     0.134 A 
ATOM     15  C   UNL d   1     -55.744-102.808 -36.635  0.00  0.00     0.030 C 
ATOM     16  N   UNL d   1     -56.336-102.865 -37.985  0.00  0.00    -0.140 NA
ATOM     17  N   UNL d   1     -56.046-102.788 -38.755  0.00  0.00    -0.134 NA
ENDBRANCH  11  12
ENDBRANCH  10  11
ENDBRANCH   8  10
ENDBRANCH   4   7
BRANCH   1  18
ATOM     18  C   UNL d   1     -55.192-100.537 -44.069  0.00  0.00     0.111 A 
ATOM     19  N   UNL d   1     -54.713-100.566 -44.733  0.00  0.00    -0.239 NA
ATOM     20  C   UNL d   1     -54.972 -99.989 -45.259  0.00  0.00     0.088 A 
ATOM     21  C   UNL d   1     -54.712 -99.761 -46.003  0.00  0.00     0.020 A 
ATOM     22  C   UNL d   1     -55.615 -99.603 -44.913  0.00  0.00     0.049 A 
ATOM     23  C   UNL d   1     -55.084 -99.154 -46.408  0.00  0.00     0.002 A 
ATOM     24  C   UNL d   1     -55.726 -98.765 -46.069  0.00  0.00     0.001 A 
ATOM     25  C   UNL d   1     -55.989 -98.995 -45.315  0.00  0.00     0.008 A 
ATOM     26  S   UNL d   1     -55.749 -99.943 -44.179  0.00  0.00    -0.066 SA
ENDBRANCH   1  18
TORSDOF 5
ENDMDL
MODEL 2
REMARK VINA RESULT:      60.2      1.205      6.099
REMARK  5 active torsions:
REMARK  status: ('A' for Active; 'I' for Inactive)
REMARK    1  A    between atoms: C_11  and  C_1 
REMARK    2  A    between atoms: C_5  and  S_13 
REMARK       I    between atoms: C_12  and  N_14 
REMARK    3  A    between atoms: C_18  and  C_12 
REMARK    4  A    between atoms: S_13  and  C_18 
REMARK    5  A    between atoms: N_14  and  C_19 
ROOT
ATOM      1  C   UNL d   1     -55.250-102.101 -40.669  0.00  0.00     0.024 A 
ATOM      2  C   UNL d   1     -54.769-102.563 -41.154  0.00  0.00     0.004 A 
ATOM      3  C   UNL d   1     -55.666-101.468 -40.970  0.00  0.00     0.004 A 
ATOM      4  C   UNL d   1     -55.136-101.735 -42.268  0.00  0.00     0.085 A 
ATOM      5  C   UNL d   1     -55.609-101.285 -41.773  0.00  0.00     0.019 A 
ATOM      6  C   UNL d   1     -54.712-102.379 -41.957  0.00  0.00     0.019 A 
ENDROOT
BRANCH   4   7
ATOM      7  N   UNL d   1     -55.086-101.541 -43.068  0.00  0.00    -0.208 NA
ATOM      8  C   UNL d   1     -54.898-100.769 -43.289  0.00  0.00     0.286 C 
ATOM      9  O   UNL d   1     -54.760-100.198 -42.715  0.00  0.00    -0.265 OA
BRANCH   8  10
ATOM     10  C   UNL d   1     -54.847-100.570 -44.089  0.00  0.00     0.100 C 
BRANCH  10  11
ATOM     11  S   UNL d   1     -55.008 -99.795 -44.330  0.00  0.00    -0.054 SA
BRANCH  11  12
ATOM     12  C   UNL d   1     -55.786 -99.561 -44.485  0.00  0.00     0.164 A 
ATOM     13  S   UNL d   1     -56.307 -99.238 -43.941  0.00  0.00    -0.039 SA
ATOM     14  C   UNL d   1     -57.023 -99.088 -44.333  0.00  0.00     0.134 A 
ATOM     15  C   UNL d   1     -57.707 -98.761 -43.995  0.00  0.00     0.030 C 
ATOM     16  N   UNL d   1     -56.937 -99.321 -45.122  0.00  0.00    -0.140 NA
ATOM     17  N   UNL d   1     -56.170 -99.615 -45.218  0.00  0.00    -0.134 NA
ENDBRANCH  11  12
ENDBRANCH  10  11
ENDBRANCH   8  10
ENDBRANCH   4   7
BRANCH   1  18
ATOM     18  C   UNL d   1     -55.314-102.281 -39.851  0.00  0.00     0.111 A 
ATOM     19  N   UNL d   1     -56.030-102.409 -39.474  0.00  0.00    -0.239 NA
ATOM     20  C   UNL d   1     -55.875-102.570 -38.683  0.00  0.00     0.088 A 
ATOM     21  C   UNL d   1     -56.365-102.739 -38.047  0.00  0.00     0.020 A 
ATOM     22  C   UNL d   1     -55.057-102.541 -38.575  0.00  0.00     0.049 A 
ATOM     23  C   UNL d   1     -56.051-102.880 -37.304  0.00  0.00     0.002 A 
ATOM     24  C   UNL d   1     -55.236-102.852 -37.188  0.00  0.00     0.001 A 
ATOM     25  C   UNL d   1     -54.740-102.681 -37.832  0.00  0.00     0.008 A 
ATOM     26  S   UNL d   1     -54.713-102.363 -39.297  0.00  0.00    -0.066 SA
ENDBRANCH   1  18
TORSDOF 5
ENDMDL
