MODEL 1
REMARK VINA RESULT:      -6.0      0.000      0.000
REMARK  1 active torsions:
REMARK  status: ('A' for Active; 'I' for Inactive)
REMARK    1  A    between atoms: C_6  and  CA_1 
ROOT
ATOM      1  CA  UNL d   1     -47.992  11.997  23.100  0.00  0.00     0.147 A 
ATOM      2  N   UNL d   1     -48.011  12.744  22.764  0.00  0.00    -0.237 NA
ATOM      3  C   UNL d   1     -47.288  11.918  23.523  0.00  0.00     0.052 A 
ATOM      4  C   UNL d   1     -47.316  13.133  22.978  0.00  0.00     0.106 A 
ATOM      5  C   UNL d   1     -46.870  12.624  23.446  0.00  0.00     0.119 A 
ATOM      6  C   UNL d   1     -46.898  13.840  22.901  0.00  0.00     0.048 A 
ATOM      7  O   UNL d   1     -46.174  13.014  23.661  0.00  0.00    -0.303 OA
ATOM      8  C   UNL d   1     -46.189  13.769  23.324  0.00  0.00     0.124 A 
ENDROOT
BRANCH   1   9
ATOM      9  C   UNL d   1     -48.580  11.419  23.027  0.00  0.00     0.230 C 
ATOM     10  O   UNL d   1     -48.931  11.099  23.698  0.00  0.00    -0.643 OA
ATOM     11  OXT UNL d   1     -48.815  11.163  22.281  0.00  0.00    -0.643 OA
ENDBRANCH   1   9
TORSDOF 1
ENDMDL
MODEL 2
REMARK VINA RESULT:      -5.9      0.789      2.533
REMARK  1 active torsions:
REMARK  status: ('A' for Active; 'I' for Inactive)
REMARK    1  A    between atoms: C_6  and  CA_1 
ROOT
ATOM      1  CA  UNL d   1     -47.173  12.400  23.326  0.00  0.00     0.147 A 
ATOM      2  N   UNL d   1     -47.689  12.766  22.807  0.00  0.00    -0.237 NA
ATOM      3  C   UNL d   1     -47.570  11.777  23.695  0.00  0.00     0.052 A 
ATOM      4  C   UNL d   1     -48.412  12.371  22.850  0.00  0.00     0.106 A 
ATOM      5  C   UNL d   1     -48.339  11.761  23.398  0.00  0.00     0.119 A 
ATOM      6  C   UNL d   1     -49.181  12.356  22.553  0.00  0.00     0.048 A 
ATOM      7  O   UNL d   1     -49.063  11.366  23.441  0.00  0.00    -0.303 OA
ATOM      8  C   UNL d   1     -49.587  11.732  22.918  0.00  0.00     0.124 A 
ENDROOT
BRANCH   1   9
ATOM      9  C   UNL d   1     -46.385  12.617  23.460  0.00  0.00     0.230 C 
ATOM     10  O   UNL d   1     -46.202  13.383  23.698  0.00  0.00    -0.643 OA
ATOM     11  OXT UNL d   1     -45.783  12.067  23.354  0.00  0.00    -0.643 OA
ENDBRANCH   1   9
TORSDOF 1
ENDMDL
MODEL 3
REMARK VINA RESULT:      -5.8      1.737      2.779
REMARK  1 active torsions:
REMARK  status: ('A' for Active; 'I' for Inactive)
REMARK    1  A    between atoms: C_6  and  CA_1 
ROOT
ATOM      1  CA  UNL d   1     -46.913  13.700  22.808  0.00  0.00     0.147 A 
ATOM      2  N   UNL d   1     -47.139  14.483  22.896  0.00  0.00    -0.237 NA
ATOM      3  C   UNL d   1     -47.549  13.277  22.495  0.00  0.00     0.052 A 
ATOM      4  C   UNL d   1     -47.919  14.550  22.636  0.00  0.00     0.106 A 
ATOM      5  C   UNL d   1     -48.172  13.806  22.389  0.00  0.00     0.119 A 
ATOM      6  C   UNL d   1     -48.543  15.079  22.530  0.00  0.00     0.048 A 
ATOM      7  O   UNL d   1     -48.953  13.874  22.129  0.00  0.00    -0.303 OA
ATOM      8  C   UNL d   1     -49.185  14.661  22.216  0.00  0.00     0.124 A 
ENDROOT
BRANCH   1   9
ATOM      9  C   UNL d   1     -46.171  13.386  23.001  0.00  0.00     0.230 C 
ATOM     10  O   UNL d   1     -45.529  13.507  22.502  0.00  0.00    -0.643 OA
ATOM     11  OXT UNL d   1     -46.076  12.953  23.693  0.00  0.00    -0.643 OA
ENDBRANCH   1   9
TORSDOF 1
ENDMDL
MODEL 4
REMARK VINA RESULT:      -5.5      1.519      2.235
REMARK  1 active torsions:
REMARK  status: ('A' for Active; 'I' for Inactive)
REMARK    1  A    between atoms: C_6  and  CA_1 
ROOT
ATOM      1  CA  UNL d   1     -47.925  13.812  22.714  0.00  0.00     0.147 A 
ATOM      2  N   UNL d   1     -48.134  13.033  22.859  0.00  0.00    -0.237 NA
ATOM      3  C   UNL d   1     -47.139  13.919  22.943  0.00  0.00     0.052 A 
ATOM      4  C   UNL d   1     -47.476  12.652  23.179  0.00  0.00     0.106 A 
ATOM      5  C   UNL d   1     -46.862  13.199  23.230  0.00  0.00     0.119 A 
ATOM      6  C   UNL d   1     -47.199  11.930  23.467  0.00  0.00     0.048 A 
ATOM      7  O   UNL d   1     -46.204  12.817  23.551  0.00  0.00    -0.303 OA
ATOM      8  C   UNL d   1     -46.410  12.031  23.698  0.00  0.00     0.124 A 
ENDROOT
BRANCH   1   9
ATOM      9  C   UNL d   1     -48.420  14.394  22.393  0.00  0.00     0.230 C 
ATOM     10  O   UNL d   1     -48.897  14.219  21.747  0.00  0.00    -0.643 OA
ATOM     11  OXT UNL d   1     -48.434  15.148  22.721  0.00  0.00    -0.643 OA
ENDBRANCH   1   9
TORSDOF 1
ENDMDL
MODEL 5
REMARK VINA RESULT:      -5.2      1.436      2.185
REMARK  1 active torsions:
REMARK  status: ('A' for Active; 'I' for Inactive)
REMARK    1  A    between atoms: C_6  and  CA_1 
ROOT
ATOM      1  CA  UNL d   1     -48.955  12.564  22.070  0.00  0.00     0.147 A 
ATOM      2  N   UNL d   1     -48.318  12.914  22.447  0.00  0.00    -0.237 NA
ATOM      3  C   UNL d   1     -49.000  11.774  22.309  0.00  0.00     0.052 A 
ATOM      4  C   UNL d   1     -47.962  12.341  22.923  0.00  0.00     0.106 A 
ATOM      5  C   UNL d   1     -48.383  11.639  22.838  0.00  0.00     0.119 A 
ATOM      6  C   UNL d   1     -47.345  12.206  23.453  0.00  0.00     0.048 A 
ATOM      7  O   UNL d   1     -48.027  11.066  23.315  0.00  0.00    -0.303 OA
ATOM      8  C   UNL d   1     -47.383  11.415  23.698  0.00  0.00     0.124 A 
ENDROOT
BRANCH   1   9
ATOM      9  C   UNL d   1     -49.469  12.938  21.539  0.00  0.00     0.230 C 
ATOM     10  O   UNL d   1     -49.211  13.586  21.103  0.00  0.00    -0.643 OA
ATOM     11  OXT UNL d   1     -50.237  12.662  21.446  0.00  0.00    -0.643 OA
ENDBRANCH   1   9
TORSDOF 1
ENDMDL
MODEL 6
REMARK VINA RESULT:      -5.1      1.705      2.020
REMARK  1 active torsions:
REMARK  status: ('A' for Active; 'I' for Inactive)
REMARK    1  A    between atoms: C_6  and  CA_1 
ROOT
ATOM      1  CA  UNL d   1     -48.966  12.467  22.686  0.00  0.00     0.147 A 
ATOM      2  N   UNL d   1     -48.542  12.978  23.165  0.00  0.00    -0.237 NA
ATOM      3  C   UNL d   1     -49.280  12.899  22.056  0.00  0.00     0.052 A 
ATOM      4  C   UNL d   1     -48.591  13.732  22.834  0.00  0.00     0.106 A 
ATOM      5  C   UNL d   1     -49.046  13.683  22.150  0.00  0.00     0.119 A 
ATOM      6  C   UNL d   1     -48.357  14.518  22.928  0.00  0.00     0.048 A 
ATOM      7  O   UNL d   1     -49.095  14.438  21.819  0.00  0.00    -0.303 OA
ATOM      8  C   UNL d   1     -48.669  14.957  22.299  0.00  0.00     0.124 A 
ENDROOT
BRANCH   1   9
ATOM      9  C   UNL d   1     -49.063  11.654  22.812  0.00  0.00     0.230 C 
ATOM     10  O   UNL d   1     -49.687  11.379  23.271  0.00  0.00    -0.643 OA
ATOM     11  OXT UNL d   1     -48.534  11.121  22.477  0.00  0.00    -0.643 OA
ENDBRANCH   1   9
TORSDOF 1
ENDMDL
MODEL 7
REMARK VINA RESULT:      -5.0      1.225      2.790
REMARK  1 active torsions:
REMARK  status: ('A' for Active; 'I' for Inactive)
REMARK    1  A    between atoms: C_6  and  CA_1 
ROOT
ATOM      1  CA  UNL d   1     -48.097  12.934  22.983  0.00  0.00     0.147 A 
ATOM      2  N   UNL d   1     -48.835  13.231  23.181  0.00  0.00    -0.237 NA
ATOM      3  C   UNL d   1     -48.119  12.111  23.053  0.00  0.00     0.052 A 
ATOM      4  C   UNL d   1     -49.319  12.592  23.377  0.00  0.00     0.106 A 
ATOM      5  C   UNL d   1     -48.877  11.901  23.298  0.00  0.00     0.119 A 
ATOM      6  C   UNL d   1     -50.078  12.381  23.621  0.00  0.00     0.048 A 
ATOM      7  O   UNL d   1     -49.362  11.262  23.493  0.00  0.00    -0.303 OA
ATOM      8  C   UNL d   1     -50.107  11.557  23.694  0.00  0.00     0.124 A 
ENDROOT
BRANCH   1   9
ATOM      9  C   UNL d   1     -47.442  13.383  22.751  0.00  0.00     0.230 C 
ATOM     10  O   UNL d   1     -46.931  13.100  22.172  0.00  0.00    -0.643 OA
ATOM     11  OXT UNL d   1     -47.300  14.114  23.100  0.00  0.00    -0.643 OA
ENDBRANCH   1   9
TORSDOF 1
ENDMDL
MODEL 8
REMARK VINA RESULT:      -4.5      9.414     10.016
REMARK  1 active torsions:
REMARK  status: ('A' for Active; 'I' for Inactive)
REMARK    1  A    between atoms: C_6  and  CA_1 
ROOT
ATOM      1  CA  UNL d   1     -40.251  14.717  17.350  0.00  0.00     0.147 A 
ATOM      2  N   UNL d   1     -39.594  14.682  16.862  0.00  0.00    -0.237 NA
ATOM      3  C   UNL d   1     -40.228  14.073  17.867  0.00  0.00     0.052 A 
ATOM      4  C   UNL d   1     -39.159  14.014  17.075  0.00  0.00     0.106 A 
ATOM      5  C   UNL d   1     -39.550  13.638  17.694  0.00  0.00     0.119 A 
ATOM      6  C   UNL d   1     -38.480  13.578  16.902  0.00  0.00     0.048 A 
ATOM      7  O   UNL d   1     -39.114  12.970  17.906  0.00  0.00    -0.303 OA
ATOM      8  C   UNL d   1     -38.450  12.930  17.416  0.00  0.00     0.124 A 
ENDROOT
BRANCH   1   9
ATOM      9  C   UNL d   1     -40.839  15.300  17.329  0.00  0.00     0.230 C 
ATOM     10  O   UNL d   1     -40.824  15.922  17.866  0.00  0.00    -0.643 OA
ATOM     11  OXT UNL d   1     -41.439  15.257  16.769  0.00  0.00    -0.643 OA
ENDBRANCH   1   9
TORSDOF 1
ENDMDL
MODEL 9
REMARK VINA RESULT:      -4.4      8.212      8.975
REMARK  1 active torsions:
REMARK  status: ('A' for Active; 'I' for Inactive)
REMARK    1  A    between atoms: C_6  and  CA_1 
ROOT
ATOM      1  CA  UNL d   1     -40.631  15.104  17.869  0.00  0.00     0.147 A 
ATOM      2  N   UNL d   1     -40.656  15.711  18.419  0.00  0.00    -0.237 NA
ATOM      3  C   UNL d   1     -40.531  14.390  18.271  0.00  0.00     0.052 A 
ATOM      4  C   UNL d   1     -40.572  15.375  19.168  0.00  0.00     0.106 A 
ATOM      5  C   UNL d   1     -40.495  14.560  19.077  0.00  0.00     0.119 A 
ATOM      6  C   UNL d   1     -40.536  15.545  19.974  0.00  0.00     0.048 A 
ATOM      7  O   UNL d   1     -40.411  14.224  19.826  0.00  0.00    -0.303 OA
ATOM      8  C   UNL d   1     -40.436  14.832  20.384  0.00  0.00     0.124 A 
ENDROOT
BRANCH   1   9
ATOM      9  C   UNL d   1     -40.695  15.193  17.048  0.00  0.00     0.230 C 
ATOM     10  O   UNL d   1     -41.435  15.215  16.691  0.00  0.00    -0.643 OA
ATOM     11  OXT UNL d   1     -40.017  15.259  16.588  0.00  0.00    -0.643 OA
ENDBRANCH   1   9
TORSDOF 1
ENDMDL
