MODEL 1
REMARK VINA RESULT:      -2.8      0.000      0.000
REMARK  6 active torsions:
REMARK  status: ('A' for Active; 'I' for Inactive)
REMARK       I    between atoms: N_3  and  C_1 
REMARK    1  A    between atoms: O_10  and  C_1 
REMARK    2  A    between atoms: N_2  and  C_4 
REMARK    3  A    between atoms: C_9  and  N_3 
REMARK    4  A    between atoms: C_17  and  O_10 
REMARK    5  A    between atoms: C_18  and  C_17 
REMARK    6  A    between atoms: C_19  and  C_18 
ROOT
ATOM      1  C   UNL d   1      32.836  21.839 -21.045  0.00  0.00     0.064 A 
ATOM      2  C   UNL d   1      33.156  21.995 -21.795  0.00  0.00     0.020 A 
ATOM      3  C   UNL d   1      32.602  21.073 -20.846  0.00  0.00     0.020 A 
ATOM      4  C   UNL d   1      33.007  20.620 -22.150  0.00  0.00     0.137 A 
ATOM      5  C   UNL d   1      32.686  20.464 -21.395  0.00  0.00     0.034 A 
ATOM      6  C   UNL d   1      33.240  21.387 -22.344  0.00  0.00     0.034 A 
ENDROOT
BRANCH   4   7
ATOM      7  N   UNL d   1      33.092  20.018 -22.699  0.00  0.00    -0.344 NA
ATOM      8  C   UNL d   1      33.179  19.418 -23.256  0.00  0.00     0.445 C 
ATOM      9  O   UNL d   1      33.226  19.603 -24.059  0.00  0.00    -0.220 OA
BRANCH   8  10
ATOM     10  O   UNL d   1      33.218  18.630 -23.012  0.00  0.00    -0.246 OA
BRANCH  10  11
ATOM     11  C   UNL d   1      32.915  18.033 -23.492  0.00  0.00     0.129 C 
BRANCH  11  12
ATOM     12  C   UNL d   1      32.920  17.244 -23.232  0.00  0.00     0.027 C 
BRANCH  12  13
ATOM     13  C   UNL d   1      32.390  16.701 -23.549  0.00  0.00     0.002 C 
ATOM     14  C   UNL d   1      32.474  15.899 -23.381  0.00  0.00     0.000 C 
ENDBRANCH  12  13
ENDBRANCH  11  12
ENDBRANCH  10  11
ENDBRANCH   8  10
ENDBRANCH   4   7
BRANCH   1  15
ATOM     15  N   UNL d   1      32.755  22.454 -20.498  0.00  0.00    -0.300 N 
ATOM     16  C   UNL d   1      32.263  23.094 -20.669  0.00  0.00     0.107 A 
ATOM     17  C   UNL d   1      32.185  23.702 -20.125  0.00  0.00     0.142 A 
ATOM     18  O   UNL d   1      32.596  23.674 -19.410  0.00  0.00    -0.300 OA
ATOM     19  C   UNL d   1      33.088  23.033 -19.240  0.00  0.00     0.142 A 
ATOM     20  C   UNL d   1      33.167  22.420 -19.787  0.00  0.00     0.107 A 
ENDBRANCH   1  15
TORSDOF 6
ENDMDL
MODEL 2
REMARK VINA RESULT:      -2.1      1.498      5.636
REMARK  6 active torsions:
REMARK  status: ('A' for Active; 'I' for Inactive)
REMARK       I    between atoms: N_3  and  C_1 
REMARK    1  A    between atoms: O_10  and  C_1 
REMARK    2  A    between atoms: N_2  and  C_4 
REMARK    3  A    between atoms: C_9  and  N_3 
REMARK    4  A    between atoms: C_17  and  O_10 
REMARK    5  A    between atoms: C_18  and  C_17 
REMARK    6  A    between atoms: C_19  and  C_18 
ROOT
ATOM      1  C   UNL d   1      32.687  17.850 -23.644  0.00  0.00     0.064 A 
ATOM      2  C   UNL d   1      33.075  18.003 -22.926  0.00  0.00     0.020 A 
ATOM      3  C   UNL d   1      32.422  18.475 -24.112  0.00  0.00     0.020 A 
ATOM      4  C   UNL d   1      32.932  19.407 -23.143  0.00  0.00     0.137 A 
ATOM      5  C   UNL d   1      32.542  19.252 -23.864  0.00  0.00     0.034 A 
ATOM      6  C   UNL d   1      33.196  18.779 -22.678  0.00  0.00     0.034 A 
ENDROOT
BRANCH   4   7
ATOM      7  N   UNL d   1      33.054  20.177 -22.892  0.00  0.00    -0.344 NA
ATOM      8  C   UNL d   1      33.178  20.953 -22.645  0.00  0.00     0.445 C 
ATOM      9  O   UNL d   1      33.241  21.559 -23.201  0.00  0.00    -0.220 OA
BRANCH   8  10
ATOM     10  O   UNL d   1      33.239  21.126 -21.839  0.00  0.00    -0.246 OA
BRANCH  10  11
ATOM     11  C   UNL d   1      33.015  21.867 -21.558  0.00  0.00     0.129 C 
BRANCH  11  12
ATOM     12  C   UNL d   1      33.051  22.034 -20.746  0.00  0.00     0.027 C 
BRANCH  12  13
ATOM     13  C   UNL d   1      32.586  22.633 -20.425  0.00  0.00     0.002 C 
ATOM     14  C   UNL d   1      32.904  23.144 -19.864  0.00  0.00     0.000 C 
ENDBRANCH  12  13
ENDBRANCH  11  12
ENDBRANCH  10  11
ENDBRANCH   8  10
ENDBRANCH   4   7
BRANCH   1  15
ATOM     15  N   UNL d   1      32.569  17.068 -23.887  0.00  0.00    -0.300 N 
ATOM     16  C   UNL d   1      31.809  16.802 -24.063  0.00  0.00     0.107 A 
ATOM     17  C   UNL d   1      31.696  16.026 -24.303  0.00  0.00     0.142 A 
ATOM     18  O   UNL d   1      32.340  15.515 -24.368  0.00  0.00    -0.300 OA
ATOM     19  C   UNL d   1      33.101  15.782 -24.192  0.00  0.00     0.142 A 
ATOM     20  C   UNL d   1      33.215  16.563 -23.950  0.00  0.00     0.107 A 
ENDBRANCH   1  15
TORSDOF 6
ENDMDL
MODEL 3
REMARK VINA RESULT:      -2.0      2.815      6.129
REMARK  6 active torsions:
REMARK  status: ('A' for Active; 'I' for Inactive)
REMARK       I    between atoms: N_3  and  C_1 
REMARK    1  A    between atoms: O_10  and  C_1 
REMARK    2  A    between atoms: N_2  and  C_4 
REMARK    3  A    between atoms: C_9  and  N_3 
REMARK    4  A    between atoms: C_17  and  O_10 
REMARK    5  A    between atoms: C_18  and  C_17 
REMARK    6  A    between atoms: C_19  and  C_18 
ROOT
ATOM      1  C   UNL d   1      30.157  16.809 -24.222  0.00  0.00     0.064 A 
ATOM      2  C   UNL d   1      30.228  17.516 -24.652  0.00  0.00     0.020 A 
ATOM      3  C   UNL d   1      30.771  16.562 -23.730  0.00  0.00     0.020 A 
ATOM      4  C   UNL d   1      31.526  17.729 -24.098  0.00  0.00     0.137 A 
ATOM      5  C   UNL d   1      31.454  17.019 -23.667  0.00  0.00     0.034 A 
ATOM      6  C   UNL d   1      30.910  17.973 -24.589  0.00  0.00     0.034 A 
ENDROOT
BRANCH   4   7
ATOM      7  N   UNL d   1      32.203  18.188 -24.039  0.00  0.00    -0.344 NA
ATOM      8  C   UNL d   1      32.883  18.649 -23.985  0.00  0.00     0.445 C 
ATOM      9  O   UNL d   1      33.240  18.939 -24.670  0.00  0.00    -0.220 OA
BRANCH   8  10
ATOM     10  O   UNL d   1      33.208  18.822 -23.246  0.00  0.00    -0.246 OA
BRANCH  10  11
ATOM     11  C   UNL d   1      33.121  19.574 -22.923  0.00  0.00     0.129 C 
BRANCH  11  12
ATOM     12  C   UNL d   1      33.241  19.697 -22.110  0.00  0.00     0.027 C 
BRANCH  12  13
ATOM     13  C   UNL d   1      33.083  20.431 -21.775  0.00  0.00     0.002 C 
ATOM     14  C   UNL d   1      33.186  20.544 -20.966  0.00  0.00     0.000 C 
ENDBRANCH  12  13
ENDBRANCH  11  12
ENDBRANCH  10  11
ENDBRANCH   8  10
ENDBRANCH   4   7
BRANCH   1  15
ATOM     15  N   UNL d   1      29.469  16.355 -24.290  0.00  0.00    -0.300 N 
ATOM     16  C   UNL d   1      29.142  16.211 -25.033  0.00  0.00     0.107 A 
ATOM     17  C   UNL d   1      28.460  15.760 -25.097  0.00  0.00     0.142 A 
ATOM     18  O   UNL d   1      28.103  15.453 -24.419  0.00  0.00    -0.300 OA
ATOM     19  C   UNL d   1      28.430  15.597 -23.676  0.00  0.00     0.142 A 
ATOM     20  C   UNL d   1      29.118  16.051 -23.611  0.00  0.00     0.107 A 
ENDBRANCH   1  15
TORSDOF 6
ENDMDL
MODEL 4
REMARK VINA RESULT:      -0.7      1.989      2.954
REMARK  6 active torsions:
REMARK  status: ('A' for Active; 'I' for Inactive)
REMARK       I    between atoms: N_3  and  C_1 
REMARK    1  A    between atoms: O_10  and  C_1 
REMARK    2  A    between atoms: N_2  and  C_4 
REMARK    3  A    between atoms: C_9  and  N_3 
REMARK    4  A    between atoms: C_17  and  O_10 
REMARK    5  A    between atoms: C_18  and  C_17 
REMARK    6  A    between atoms: C_19  and  C_18 
ROOT
ATOM      1  C   UNL d   1      32.704  22.981 -19.048  0.00  0.00     0.064 A 
ATOM      2  C   UNL d   1      32.901  22.215 -19.302  0.00  0.00     0.020 A 
ATOM      3  C   UNL d   1      32.576  23.579 -19.603  0.00  0.00     0.020 A 
ATOM      4  C   UNL d   1      32.842  22.644 -20.662  0.00  0.00     0.137 A 
ATOM      5  C   UNL d   1      32.644  23.413 -20.407  0.00  0.00     0.034 A 
ATOM      6  C   UNL d   1      32.970  22.049 -20.105  0.00  0.00     0.034 A 
ENDROOT
BRANCH   4   7
ATOM      7  N   UNL d   1      32.911  22.473 -21.460  0.00  0.00    -0.344 NA
ATOM      8  C   UNL d   1      32.979  22.306 -22.264  0.00  0.00     0.445 C 
ATOM      9  O   UNL d   1      32.785  22.881 -22.823  0.00  0.00    -0.220 OA
BRANCH   8  10
ATOM     10  O   UNL d   1      33.241  21.563 -22.512  0.00  0.00    -0.246 OA
BRANCH  10  11
ATOM     11  C   UNL d   1      33.040  21.283 -23.260  0.00  0.00     0.129 C 
BRANCH  11  12
ATOM     12  C   UNL d   1      33.196  20.494 -23.467  0.00  0.00     0.027 C 
BRANCH  12  13
ATOM     13  C   UNL d   1      33.238  20.275 -24.258  0.00  0.00     0.002 C 
ATOM     14  C   UNL d   1      32.818  19.619 -24.526  0.00  0.00     0.000 C 
ENDBRANCH  12  13
ENDBRANCH  11  12
ENDBRANCH  10  11
ENDBRANCH   8  10
ENDBRANCH   4   7
BRANCH   1  15
ATOM     15  N   UNL d   1      32.637  23.141 -18.240  0.00  0.00    -0.300 N 
ATOM     16  C   UNL d   1      33.241  23.545 -17.849  0.00  0.00     0.107 A 
ATOM     17  C   UNL d   1      33.171  23.702 -17.047  0.00  0.00     0.142 A 
ATOM     18  O   UNL d   1      32.500  23.457 -16.635  0.00  0.00    -0.300 OA
ATOM     19  C   UNL d   1      31.897  23.053 -17.026  0.00  0.00     0.142 A 
ATOM     20  C   UNL d   1      31.966  22.894 -17.834  0.00  0.00     0.107 A 
ENDBRANCH   1  15
TORSDOF 6
ENDMDL
