MODEL 1
REMARK VINA RESULT:     103.4      0.000      0.000
REMARK  7 active torsions:
REMARK  status: ('A' for Active; 'I' for Inactive)
REMARK    1  A    between atoms: C_11  and  N_3 
REMARK    2  A    between atoms: C_10  and  C_4 
REMARK    3  A    between atoms: C_16  and  C_11 
REMARK    4  A    between atoms: N_13  and  C_17 
REMARK    5  A    between atoms: C_18  and  N_14 
REMARK    6  A    between atoms: C_17  and  C_16 
REMARK    7  A    between atoms: C_27  and  C_18 
ROOT
ATOM      1  C   UNL d   1      59.171  49.703  50.871  0.00  0.00     0.137 A 
ATOM      2  N   UNL d   1      58.892  49.703  51.657  0.00  0.00    -0.259 N 
ATOM      3  N   UNL d   1      59.995  49.704  50.907  0.00  0.00    -0.287 N 
ATOM      4  C   UNL d   1      58.640  49.703  50.247  0.00  0.00     0.054 A 
ATOM      5  C   UNL d   1      58.077  49.703  51.803  0.00  0.00     0.266 A 
ATOM      6  C   UNL d   1      59.541  49.704  52.166  0.00  0.00     0.084 A 
ATOM      7  C   UNL d   1      60.233  49.705  51.696  0.00  0.00     0.082 A 
ATOM      8  C   UNL d   1      57.828  49.702  50.389  0.00  0.00     0.009 A 
ATOM      9  C   UNL d   1      57.538  49.702  51.167  0.00  0.00     0.061 A 
ATOM     10  O   UNL d   1      57.792  49.703  52.581  0.00  0.00    -0.267 OA
ATOM     11  C   UNL d   1      59.608  49.705  52.985  0.00  0.00     0.019 A 
ATOM     12  C   UNL d   1      57.292  49.701  49.758  0.00  0.00     0.000 C 
ATOM     13  C   UNL d   1      60.963  49.705  52.064  0.00  0.00     0.019 A 
ATOM     14  C   UNL d   1      60.347  49.705  53.337  0.00  0.00     0.002 A 
ATOM     15  C   UNL d   1      61.031  49.706  52.871  0.00  0.00     0.002 A 
ENDROOT
BRANCH   3  16
ATOM     16  C   UNL d   1      60.681  49.705  50.452  0.00  0.00     0.125 C 
BRANCH  16  17
ATOM     17  C   UNL d   1      61.090  49.000  50.326  0.00  0.00     0.231 C 
ATOM     18  O   UNL d   1      61.717  48.789  50.816  0.00  0.00    -0.283 OA
BRANCH  17  19
ATOM     19  C   UNL d   1      60.871  48.503  49.707  0.00  0.00     0.124 C 
BRANCH  19  20
ATOM     20  N   UNL d   1      61.187  47.742  49.664  0.00  0.00    -0.297 N 
ATOM     21  C   UNL d   1      61.151  47.489  50.452  0.00  0.00     0.100 A 
ATOM     22  C   UNL d   1      61.423  46.732  50.649  0.00  0.00     0.100 A 
ATOM     23  N   UNL d   1      61.733  46.220  50.071  0.00  0.00    -0.300 N 
ATOM     24  C   UNL d   1      61.768  46.483  49.275  0.00  0.00     0.100 A 
ATOM     25  C   UNL d   1      61.495  47.240  49.077  0.00  0.00     0.100 A 
BRANCH  23  26
ATOM     26  C   UNL d   1      62.002  45.468  50.280  0.00  0.00     0.080 C 
BRANCH  26  27
ATOM     27  C   UNL d   1      61.458  44.855  50.401  0.00  0.00     0.018 A 
ATOM     28  C   UNL d   1      61.010  44.581  49.765  0.00  0.00     0.002 A 
ATOM     29  C   UNL d   1      60.460  43.961  49.884  0.00  0.00     0.000 A 
ATOM     30  C   UNL d   1      60.369  43.631  50.632  0.00  0.00     0.000 A 
ATOM     31  C   UNL d   1      60.825  43.913  51.270  0.00  0.00     0.000 A 
ATOM     32  C   UNL d   1      61.369  44.527  51.149  0.00  0.00     0.002 A 
ENDBRANCH  26  27
ENDBRANCH  23  26
ENDBRANCH  19  20
ENDBRANCH  17  19
ENDBRANCH  16  17
ENDBRANCH   3  16
BRANCH   4  33
ATOM     33  C   UNL d   1      58.914  49.703  49.474  0.00  0.00     0.125 C 
ATOM     34  N   UNL d   1      58.395  49.708  48.837  0.00  0.00    -0.146 N 
ENDBRANCH   4  33
TORSDOF 7
ENDMDL
