MODEL 1
REMARK VINA RESULT:      66.3      0.000      0.000
REMARK  5 active torsions:
REMARK  status: ('A' for Active; 'I' for Inactive)
REMARK    1  A    between atoms: C_6  and  N_1 
REMARK    2  A    between atoms: C_7  and  C_2 
REMARK    3  A    between atoms: C_14  and  C_5 
REMARK    4  A    between atoms: C_11  and  C_7 
REMARK    5  A    between atoms: O_26  and  C_23 
ROOT
ATOM      1  N   UNL d   1     -50.613  26.686  33.458  0.00  0.00    -0.250 N 
ATOM      2  C   UNL d   1     -50.216  25.420  33.440  0.00  0.00     0.099 A 
ATOM      3  C   UNL d   1     -49.776  26.660  33.476  0.00  0.00     0.305 A 
ATOM      4  C   UNL d   1     -49.534  25.919  33.466  0.00  0.00     0.256 A 
ATOM      5  C   UNL d   1     -50.882  25.920  33.436  0.00  0.00     0.075 A 
ATOM      6  O   UNL d   1     -49.264  27.317  33.502  0.00  0.00    -0.263 OA
ATOM      7  O   UNL d   1     -48.729  25.678  33.479  0.00  0.00    -0.281 OA
ENDROOT
BRANCH   5   8
ATOM      8  C   UNL d   1     -51.662  25.685  33.414  0.00  0.00     0.017 A 
ATOM      9  C   UNL d   1     -51.838  24.880  33.396  0.00  0.00     0.004 A 
ATOM     10  C   UNL d   1     -52.647  24.641  33.372  0.00  0.00     0.024 A 
ATOM     11  C   UNL d   1     -53.251  25.203  33.368  0.00  0.00     0.094 A 
ATOM     12  C   UNL d   1     -53.056  26.008  33.386  0.00  0.00     0.024 A 
ATOM     13  C   UNL d   1     -52.261  26.250  33.409  0.00  0.00     0.004 A 
BRANCH  11  14
ATOM     14  O   UNL d   1     -54.033  24.971  33.346  0.00  0.00    -0.328 OA
ATOM     15  C   UNL d   1     -54.221  24.172  33.380  0.00  0.00     0.181 C 
ENDBRANCH  11  14
ENDBRANCH   5   8
BRANCH   2  16
ATOM     16  C   UNL d   1     -50.224  24.594  33.422  0.00  0.00     0.206 C 
ATOM     17  O   UNL d   1     -50.961  24.194  33.323  0.00  0.00    -0.286 OA
BRANCH  16  18
ATOM     18  C   UNL d   1     -49.526  24.184  33.501  0.00  0.00     0.069 A 
ATOM     19  S   UNL d   1     -48.746  24.508  33.558  0.00  0.00    -0.083 SA
ATOM     20  C   UNL d   1     -48.230  23.905  33.627  0.00  0.00     0.035 A 
ATOM     21  C   UNL d   1     -48.638  23.193  33.619  0.00  0.00     0.008 A 
ATOM     22  C   UNL d   1     -49.462  23.370  33.539  0.00  0.00     0.010 A 
ENDBRANCH  16  18
ENDBRANCH   2  16
BRANCH   1  23
ATOM     23  C   UNL d   1     -51.053  27.390  33.463  0.00  0.00     0.204 A 
ATOM     24  S   UNL d   1     -51.870  27.409  33.638  0.00  0.00    -0.025 SA
ATOM     25  C   UNL d   1     -52.115  28.196  33.590  0.00  0.00     0.161 A 
ATOM     26  N   UNL d   1     -51.462  28.647  33.391  0.00  0.00    -0.137 NA
ATOM     27  N   UNL d   1     -50.799  28.150  33.311  0.00  0.00    -0.122 NA
ENDBRANCH   1  23
TORSDOF 5
ENDMDL
