MODEL 1
REMARK VINA RESULT:      -8.9      0.000      0.000
REMARK  5 active torsions:
REMARK  status: ('A' for Active; 'I' for Inactive)
REMARK    1  A    between atoms: S_9  and  C_2 
REMARK    2  A    between atoms: C_7  and  C_18 
REMARK       I    between atoms: N_13  and  C_7 
REMARK    3  A    between atoms: C_18  and  S_9 
REMARK    4  A    between atoms: C_20  and  N_13 
REMARK    5  A    between atoms: C_19  and  C_20 
ROOT
ATOM      1  C   UNL d   1      52.752  31.168  53.055  0.00  0.00     0.286 C 
ATOM      2  N   UNL d   1      52.848  31.941  53.337  0.00  0.00    -0.206 NA
ATOM      3  O   UNL d   1      52.112  30.982  52.566  0.00  0.00    -0.265 OA
ENDROOT
BRANCH   2   4
ATOM      4  C   UNL d   1      53.498  32.136  53.835  0.00  0.00     0.102 C 
BRANCH   4   5
ATOM      5  C   UNL d   1      53.552  32.904  54.170  0.00  0.00     0.021 A 
ATOM      6  C   UNL d   1      53.097  33.530  53.865  0.00  0.00     0.028 A 
ATOM      7  C   UNL d   1      53.161  34.285  54.206  0.00  0.00     0.119 A 
ATOM      8  O   UNL d   1      52.797  34.994  54.037  0.00  0.00    -0.300 OA
ATOM      9  C   UNL d   1      53.673  34.406  54.841  0.00  0.00     0.119 A 
ATOM     10  C   UNL d   1      53.068  35.563  54.551  0.00  0.00     0.304 A 
ATOM     11  O   UNL d   1      53.623  35.189  55.060  0.00  0.00    -0.300 OA
ATOM     12  C   UNL d   1      54.118  33.780  55.134  0.00  0.00     0.026 A 
ATOM     13  C   UNL d   1      54.051  33.024  54.789  0.00  0.00     0.004 A 
ENDBRANCH   4   5
ENDBRANCH   2   4
BRANCH   1  14
ATOM     14  C   UNL d   1      53.304  30.593  53.270  0.00  0.00     0.101 C 
BRANCH  14  15
ATOM     15  S   UNL d   1      53.980  30.448  52.820  0.00  0.00    -0.041 SA
BRANCH  15  16
ATOM     16  C   UNL d   1      53.552  29.982  53.341  0.00  0.00     0.233 A 
ATOM     17  N   UNL d   1      53.817  29.668  54.070  0.00  0.00    -0.029 NA
ATOM     18  C   UNL d   1      53.201  29.238  54.398  0.00  0.00     0.788 A 
ATOM     19  N   UNL d   1      52.560  29.275  53.894  0.00  0.00     0.050 NA
ATOM     20  N   UNL d   1      53.224  28.832  55.124  0.00  0.00     0.064 N 
ATOM     21  N   UNL d   1      52.758  29.728  53.239  0.00  0.00    -0.105 NA
ENDBRANCH  15  16
ENDBRANCH  14  15
ENDBRANCH   1  14
TORSDOF 5
ENDMDL
MODEL 2
REMARK VINA RESULT:      -8.5      2.139      4.582
REMARK  5 active torsions:
REMARK  status: ('A' for Active; 'I' for Inactive)
REMARK    1  A    between atoms: S_9  and  C_2 
REMARK    2  A    between atoms: C_7  and  C_18 
REMARK       I    between atoms: N_13  and  C_7 
REMARK    3  A    between atoms: C_18  and  S_9 
REMARK    4  A    between atoms: C_20  and  N_13 
REMARK    5  A    between atoms: C_19  and  C_20 
ROOT
ATOM      1  C   UNL d   1      54.755  33.149  54.146  0.00  0.00     0.286 C 
ATOM      2  N   UNL d   1      54.432  32.458  53.824  0.00  0.00    -0.206 NA
ATOM      3  O   UNL d   1      55.490  33.424  53.885  0.00  0.00    -0.265 OA
ENDROOT
BRANCH   2   4
ATOM      4  C   UNL d   1      53.685  32.174  54.087  0.00  0.00     0.102 C 
BRANCH   4   5
ATOM      5  C   UNL d   1      53.389  31.445  53.794  0.00  0.00     0.021 A 
ATOM      6  C   UNL d   1      53.516  30.739  54.215  0.00  0.00     0.028 A 
ATOM      7  C   UNL d   1      53.218  30.024  53.914  0.00  0.00     0.119 A 
ATOM      8  O   UNL d   1      53.251  29.258  54.190  0.00  0.00    -0.300 OA
ATOM      9  C   UNL d   1      52.799  30.022  53.203  0.00  0.00     0.119 A 
ATOM     10  C   UNL d   1      52.861  28.769  53.670  0.00  0.00     0.304 A 
ATOM     11  O   UNL d   1      52.576  29.255  53.045  0.00  0.00    -0.300 OA
ATOM     12  C   UNL d   1      52.679  30.726  52.796  0.00  0.00     0.026 A 
ATOM     13  C   UNL d   1      52.980  31.440  53.101  0.00  0.00     0.004 A 
ENDBRANCH   4   5
ENDBRANCH   2   4
BRANCH   1  14
ATOM     14  C   UNL d   1      54.332  33.555  54.728  0.00  0.00     0.101 C 
BRANCH  14  15
ATOM     15  S   UNL d   1      54.451  33.411  55.532  0.00  0.00    -0.041 SA
BRANCH  15  16
ATOM     16  C   UNL d   1      54.152  34.056  55.124  0.00  0.00     0.233 A 
ATOM     17  N   UNL d   1      53.357  34.317  55.106  0.00  0.00    -0.029 NA
ATOM     18  C   UNL d   1      53.321  34.981  54.626  0.00  0.00     0.788 A 
ATOM     19  N   UNL d   1      54.070  35.141  54.345  0.00  0.00     0.050 NA
ATOM     20  N   UNL d   1      52.635  35.419  54.454  0.00  0.00     0.064 N 
ATOM     21  N   UNL d   1      54.593  34.582  54.640  0.00  0.00    -0.105 NA
ENDBRANCH  15  16
ENDBRANCH  14  15
ENDBRANCH   1  14
TORSDOF 5
ENDMDL
MODEL 3
REMARK VINA RESULT:      -8.4      2.407      4.464
REMARK  5 active torsions:
REMARK  status: ('A' for Active; 'I' for Inactive)
REMARK    1  A    between atoms: S_9  and  C_2 
REMARK    2  A    between atoms: C_7  and  C_18 
REMARK       I    between atoms: N_13  and  C_7 
REMARK    3  A    between atoms: C_18  and  S_9 
REMARK    4  A    between atoms: C_20  and  N_13 
REMARK    5  A    between atoms: C_19  and  C_20 
ROOT
ATOM      1  C   UNL d   1      51.401  33.419  53.138  0.00  0.00     0.286 C 
ATOM      2  N   UNL d   1      51.690  32.645  53.197  0.00  0.00    -0.206 NA
ATOM      3  O   UNL d   1      50.604  33.577  53.292  0.00  0.00    -0.265 OA
ENDROOT
BRANCH   2   4
ATOM      4  C   UNL d   1      52.500  32.480  53.041  0.00  0.00     0.102 C 
BRANCH   4   5
ATOM      5  C   UNL d   1      52.821  31.732  53.246  0.00  0.00     0.021 A 
ATOM      6  C   UNL d   1      52.379  31.037  53.129  0.00  0.00     0.028 A 
ATOM      7  C   UNL d   1      52.709  30.303  53.336  0.00  0.00     0.119 A 
ATOM      8  O   UNL d   1      52.422  29.542  53.290  0.00  0.00    -0.300 OA
ATOM      9  C   UNL d   1      53.468  30.270  53.655  0.00  0.00     0.119 A 
ATOM     10  C   UNL d   1      52.983  29.026  53.573  0.00  0.00     0.304 A 
ATOM     11  O   UNL d   1      53.647  29.489  53.804  0.00  0.00    -0.300 OA
ATOM     12  C   UNL d   1      53.897  30.963  53.766  0.00  0.00     0.026 A 
ATOM     13  C   UNL d   1      53.562  31.697  53.557  0.00  0.00     0.004 A 
ENDBRANCH   4   5
ENDBRANCH   2   4
BRANCH   1  14
ATOM     14  C   UNL d   1      51.920  34.024  52.923  0.00  0.00     0.101 C 
BRANCH  14  15
ATOM     15  S   UNL d   1      52.005  34.267  52.139  0.00  0.00    -0.041 SA
BRANCH  15  16
ATOM     16  C   UNL d   1      52.137  34.647  52.853  0.00  0.00     0.233 A 
ATOM     17  N   UNL d   1      52.877  34.862  53.180  0.00  0.00    -0.029 NA
ATOM     18  C   UNL d   1      52.736  35.229  53.900  0.00  0.00     0.788 A 
ATOM     19  N   UNL d   1      51.931  35.249  54.030  0.00  0.00     0.050 NA
ATOM     20  N   UNL d   1      53.318  35.531  54.413  0.00  0.00     0.064 N 
ATOM     21  N   UNL d   1      51.547  34.896  53.396  0.00  0.00    -0.105 NA
ENDBRANCH  15  16
ENDBRANCH  14  15
ENDBRANCH   1  14
TORSDOF 5
ENDMDL
MODEL 4
REMARK VINA RESULT:      -8.1      2.371      3.308
REMARK  5 active torsions:
REMARK  status: ('A' for Active; 'I' for Inactive)
REMARK    1  A    between atoms: S_9  and  C_2 
REMARK    2  A    between atoms: C_7  and  C_18 
REMARK       I    between atoms: N_13  and  C_7 
REMARK    3  A    between atoms: C_18  and  S_9 
REMARK    4  A    between atoms: C_20  and  N_13 
REMARK    5  A    between atoms: C_19  and  C_20 
ROOT
ATOM      1  C   UNL d   1      53.173  32.101  53.525  0.00  0.00     0.286 C 
ATOM      2  N   UNL d   1      52.502  32.477  53.216  0.00  0.00    -0.206 NA
ATOM      3  O   UNL d   1      53.169  31.284  53.651  0.00  0.00    -0.265 OA
ENDROOT
BRANCH   2   4
ATOM      4  C   UNL d   1      52.503  33.308  53.086  0.00  0.00     0.102 C 
BRANCH   4   5
ATOM      5  C   UNL d   1      51.810  33.686  52.799  0.00  0.00     0.021 A 
ATOM      6  C   UNL d   1      51.194  33.891  53.319  0.00  0.00     0.028 A 
ATOM      7  C   UNL d   1      50.514  34.264  53.020  0.00  0.00     0.119 A 
ATOM      8  O   UNL d   1      49.833  34.528  53.380  0.00  0.00    -0.300 OA
ATOM      9  C   UNL d   1      50.457  34.427  52.214  0.00  0.00     0.119 A 
ATOM     10  C   UNL d   1      49.343  34.855  52.819  0.00  0.00     0.304 A 
ATOM     11  O   UNL d   1      49.740  34.790  52.080  0.00  0.00    -0.300 OA
ATOM     12  C   UNL d   1      51.071  34.220  51.709  0.00  0.00     0.026 A 
ATOM     13  C   UNL d   1      51.751  33.846  52.012  0.00  0.00     0.004 A 
ENDBRANCH   4   5
ENDBRANCH   2   4
BRANCH   1  14
ATOM     14  C   UNL d   1      53.840  32.554  53.701  0.00  0.00     0.101 C 
BRANCH  14  15
ATOM     15  S   UNL d   1      54.480  32.608  53.184  0.00  0.00    -0.041 SA
BRANCH  15  16
ATOM     16  C   UNL d   1      54.414  32.712  53.994  0.00  0.00     0.233 A 
ATOM     17  N   UNL d   1      54.656  33.379  54.437  0.00  0.00    -0.029 NA
ATOM     18  C   UNL d   1      54.480  33.234  55.225  0.00  0.00     0.788 A 
ATOM     19  N   UNL d   1      54.137  32.497  55.285  0.00  0.00     0.050 NA
ATOM     20  N   UNL d   1      54.628  33.753  55.859  0.00  0.00     0.064 N 
ATOM     21  N   UNL d   1      54.088  32.161  54.538  0.00  0.00    -0.105 NA
ENDBRANCH  15  16
ENDBRANCH  14  15
ENDBRANCH   1  14
TORSDOF 5
ENDMDL
