MODEL 1
REMARK VINA RESULT:      51.7      0.000      0.000
REMARK  4 active torsions:
REMARK  status: ('A' for Active; 'I' for Inactive)
REMARK    1  A    between atoms: C_8  and  N_1 
REMARK    2  A    between atoms: C_7  and  C_2 
REMARK    3  A    between atoms: C_9  and  C_7 
REMARK    4  A    between atoms: C_17  and  C_8 
ROOT
ATOM      1  N   UNL d   1     -56.519 -99.441 -44.479  0.00  0.00    -0.224 N 
ATOM      2  C   UNL d   1     -57.931 -99.439 -44.672  0.00  0.00     0.117 A 
ATOM      3  C   UNL d   1     -57.270 -99.670 -44.231  0.00  0.00     0.273 A 
ATOM      4  C   UNL d   1     -56.427 -98.992 -45.150  0.00  0.00     0.359 A 
ATOM      5  N   UNL d   1     -57.085 -98.768 -45.579  0.00  0.00    -0.153 NA
ATOM      6  C   UNL d   1     -57.839 -98.991 -45.343  0.00  0.00     0.288 A 
ATOM      7  O   UNL d   1     -55.683 -98.762 -45.400  0.00  0.00    -0.244 OA
ATOM      8  O   UNL d   1     -57.362-100.121 -43.558  0.00  0.00    -0.266 OA
ATOM      9  O   UNL d   1     -58.490 -98.759 -45.783  0.00  0.00    -0.265 OA
ENDROOT
BRANCH   1  10
ATOM     10  C   UNL d   1     -55.861 -99.672 -44.039  0.00  0.00     0.087 C 
BRANCH  10  11
ATOM     11  C   UNL d   1     -55.517-100.410 -44.180  0.00  0.00     0.018 A 
ATOM     12  C   UNL d   1     -55.214-100.587 -44.913  0.00  0.00     0.002 A 
ATOM     13  C   UNL d   1     -54.870-101.324 -45.056  0.00  0.00     0.000 A 
ATOM     14  C   UNL d   1     -54.837-101.881 -44.445  0.00  0.00     0.000 A 
ATOM     15  C   UNL d   1     -55.140-101.704 -43.712  0.00  0.00     0.000 A 
ATOM     16  C   UNL d   1     -55.484-100.966 -43.570  0.00  0.00     0.002 A 
ENDBRANCH  10  11
ENDBRANCH   1  10
BRANCH   2  17
ATOM     17  C   UNL d   1     -58.696 -99.669 -44.426  0.00  0.00     0.034 C 
BRANCH  17  18
ATOM     18  C   UNL d   1     -59.020 -99.346 -43.751  0.00  0.00     0.100 A 
ATOM     19  O   UNL d   1     -58.726 -99.230 -42.990  0.00  0.00    -0.305 OA
ATOM     20  C   UNL d   1     -59.303 -98.882 -42.551  0.00  0.00     0.123 A 
ATOM     21  C   UNL d   1     -59.961 -98.770 -43.007  0.00  0.00     0.029 A 
ATOM     22  C   UNL d   1     -59.792 -99.057 -43.757  0.00  0.00     0.027 A 
ENDBRANCH  17  18
ENDBRANCH   2  17
TORSDOF 4
ENDMDL
