MODEL 1
REMARK VINA RESULT:       1.1      0.000      0.000
REMARK  3 active torsions:
REMARK  status: ('A' for Active; 'I' for Inactive)
REMARK    1  A    between atoms: N_5  and  C_1 
REMARK    2  A    between atoms: C_7  and  N_2 
REMARK    3  A    between atoms: C_9  and  C_7 
ROOT
ATOM      1  C   UNL d   1     -41.501-122.154 -52.735  0.00  0.00     0.720 A 
ATOM      2  N   UNL d   1     -41.389-122.399 -51.952  0.00  0.00    -0.139 N 
ATOM      3  N   UNL d   1     -41.487-121.329 -52.745  0.00  0.00    -0.060 NA
ATOM      4  C   UNL d   1     -41.307-121.722 -51.482  0.00  0.00     0.100 A 
ATOM      5  C   UNL d   1     -41.367-121.062 -51.971  0.00  0.00     0.116 A 
ATOM      6  C   UNL d   1     -41.184-121.633 -50.670  0.00  0.00     0.020 A 
ATOM      7  C   UNL d   1     -41.306-120.306 -51.653  0.00  0.00     0.021 A 
ATOM      8  C   UNL d   1     -41.123-120.878 -50.352  0.00  0.00     0.002 A 
ATOM      9  C   UNL d   1     -41.184-120.218 -50.841  0.00  0.00     0.002 A 
ENDROOT
BRANCH   2  10
ATOM     10  C   UNL d   1     -41.364-123.184 -51.689  0.00  0.00     0.098 C 
BRANCH  10  11
ATOM     11  C   UNL d   1     -41.750-123.391 -50.987  0.00  0.00     0.018 A 
ATOM     12  C   UNL d   1     -42.566-123.378 -50.948  0.00  0.00     0.002 A 
ATOM     13  C   UNL d   1     -42.948-123.584 -50.247  0.00  0.00     0.000 A 
ATOM     14  C   UNL d   1     -42.504-123.803 -49.584  0.00  0.00     0.000 A 
ATOM     15  C   UNL d   1     -41.677-123.812 -49.632  0.00  0.00     0.000 A 
ATOM     16  C   UNL d   1     -41.300-123.606 -50.333  0.00  0.00     0.002 A 
ENDBRANCH  10  11
ENDBRANCH   2  10
BRANCH   1  17
ATOM     17  N   UNL d   1     -41.606-122.653 -53.382  0.00  0.00    -0.136 N 
ATOM     18  C   UNL d   1     -41.127-123.319 -53.480  0.00  0.00     0.119 A 
ATOM     19  C   UNL d   1     -41.238-123.811 -54.127  0.00  0.00     0.119 A 
ATOM     20  N   UNL d   1     -41.826-123.644 -54.681  0.00  0.00    -0.239 NA
ATOM     21  C   UNL d   1     -42.304-122.978 -54.583  0.00  0.00     0.119 A 
ATOM     22  C   UNL d   1     -42.198-122.476 -53.932  0.00  0.00     0.119 A 
ENDBRANCH   1  17
TORSDOF 3
ENDMDL
