MODEL 1
REMARK VINA RESULT:      -9.2      0.000      0.000
REMARK  4 active torsions:
REMARK  status: ('A' for Active; 'I' for Inactive)
REMARK    1  A    between atoms: N_7  and  C_6 
REMARK       I    between atoms: C_8  and  N_7 
REMARK    2  A    between atoms: C_14  and  C_8 
REMARK    3  A    between atoms: C_16  and  C_14 
REMARK    4  A    between atoms: C_17  and  C_16 
ROOT
ATOM      1  C   UNL d   1      53.333  33.910  54.512  0.00  0.00     0.269 A 
ATOM      2  N   UNL d   1      53.253  34.717  54.711  0.00  0.00    -0.239 N 
ATOM      3  C   UNL d   1      52.883  33.788  53.829  0.00  0.00     0.079 A 
ATOM      4  C   UNL d   1      52.770  35.068  54.164  0.00  0.00     0.267 A 
ATOM      5  C   UNL d   1      52.535  34.504  53.614  0.00  0.00     0.063 A 
ATOM      6  C   UNL d   1      52.751  33.113  53.381  0.00  0.00     0.089 A 
ATOM      7  O   UNL d   1      53.773  33.342  54.914  0.00  0.00    -0.267 OA
ATOM      8  O   UNL d   1      52.547  35.877  54.160  0.00  0.00    -0.267 OA
ATOM      9  C   UNL d   1      53.608  35.089  55.356  0.00  0.00     0.105 C 
ATOM     10  C   UNL d   1      52.054  34.545  52.950  0.00  0.00     0.005 A 
ATOM     11  C   UNL d   1      52.267  33.153  52.712  0.00  0.00     0.019 A 
ATOM     12  C   UNL d   1      51.919  33.869  52.497  0.00  0.00     0.002 A 
ENDROOT
BRANCH   6  13
ATOM     13  N   UNL d   1      53.099  32.396  53.596  0.00  0.00    -0.208 NA
ATOM     14  C   UNL d   1      52.989  31.731  53.124  0.00  0.00     0.279 C 
ATOM     15  O   UNL d   1      52.534  31.774  52.438  0.00  0.00    -0.265 OA
BRANCH  14  16
ATOM     16  C   UNL d   1      53.337  31.015  53.339  0.00  0.00     0.062 C 
BRANCH  16  17
ATOM     17  C   UNL d   1      52.872  30.337  53.413  0.00  0.00     0.005 C 
BRANCH  17  18
ATOM     18  C   UNL d   1      53.109  29.728  53.917  0.00  0.00     0.000 A 
ATOM     19  C   UNL d   1      52.840  29.718  54.706  0.00  0.00     0.000 A 
ATOM     20  C   UNL d   1      53.077  29.109  55.210  0.00  0.00     0.000 A 
ATOM     21  C   UNL d   1      53.582  28.512  54.926  0.00  0.00     0.000 A 
ATOM     22  C   UNL d   1      53.840  28.531  54.154  0.00  0.00     0.000 A 
ATOM     23  C   UNL d   1      53.603  29.139  53.650  0.00  0.00     0.000 A 
ENDBRANCH  17  18
ENDBRANCH  16  17
ENDBRANCH  14  16
ENDBRANCH   6  13
TORSDOF 4
ENDMDL
MODEL 2
REMARK VINA RESULT:      -9.0      2.114      4.891
REMARK  4 active torsions:
REMARK  status: ('A' for Active; 'I' for Inactive)
REMARK    1  A    between atoms: N_7  and  C_6 
REMARK       I    between atoms: C_8  and  N_7 
REMARK    2  A    between atoms: C_14  and  C_8 
REMARK    3  A    between atoms: C_16  and  C_14 
REMARK    4  A    between atoms: C_17  and  C_16 
ROOT
ATOM      1  C   UNL d   1      52.823  32.411  53.126  0.00  0.00     0.269 A 
ATOM      2  N   UNL d   1      53.438  31.961  53.469  0.00  0.00    -0.239 N 
ATOM      3  C   UNL d   1      52.875  33.169  53.452  0.00  0.00     0.079 A 
ATOM      4  C   UNL d   1      53.844  32.434  53.984  0.00  0.00     0.267 A 
ATOM      5  C   UNL d   1      53.506  33.183  53.983  0.00  0.00     0.063 A 
ATOM      6  C   UNL d   1      52.423  33.844  53.330  0.00  0.00     0.089 A 
ATOM      7  O   UNL d   1      52.272  32.156  52.572  0.00  0.00    -0.267 OA
ATOM      8  O   UNL d   1      54.505  32.197  54.445  0.00  0.00    -0.267 OA
ATOM      9  C   UNL d   1      53.599  31.168  53.306  0.00  0.00     0.105 C 
ATOM     10  C   UNL d   1      53.686  33.872  54.391  0.00  0.00     0.005 A 
ATOM     11  C   UNL d   1      52.603  34.538  53.739  0.00  0.00     0.019 A 
ATOM     12  C   UNL d   1      53.235  34.552  54.270  0.00  0.00     0.002 A 
ENDROOT
BRANCH   6  13
ATOM     13  N   UNL d   1      51.792  33.830  52.799  0.00  0.00    -0.208 NA
ATOM     14  C   UNL d   1      51.249  34.449  52.795  0.00  0.00     0.279 C 
ATOM     15  O   UNL d   1      51.330  35.081  53.315  0.00  0.00    -0.265 OA
BRANCH  14  16
ATOM     16  C   UNL d   1      50.617  34.435  52.264  0.00  0.00     0.062 C 
BRANCH  16  17
ATOM     17  C   UNL d   1      49.876  34.712  52.498  0.00  0.00     0.005 C 
BRANCH  17  18
ATOM     18  C   UNL d   1      49.259  34.752  51.952  0.00  0.00     0.000 A 
ATOM     19  C   UNL d   1      48.555  35.151  52.151  0.00  0.00     0.000 A 
ATOM     20  C   UNL d   1      47.939  35.191  51.605  0.00  0.00     0.000 A 
ATOM     21  C   UNL d   1      48.027  34.833  50.858  0.00  0.00     0.000 A 
ATOM     22  C   UNL d   1      48.718  34.445  50.672  0.00  0.00     0.000 A 
ATOM     23  C   UNL d   1      49.334  34.405  51.219  0.00  0.00     0.000 A 
ENDBRANCH  17  18
ENDBRANCH  16  17
ENDBRANCH  14  16
ENDBRANCH   6  13
TORSDOF 4
ENDMDL
MODEL 3
REMARK VINA RESULT:      -8.7      3.624      5.117
REMARK  4 active torsions:
REMARK  status: ('A' for Active; 'I' for Inactive)
REMARK    1  A    between atoms: N_7  and  C_6 
REMARK       I    between atoms: C_8  and  N_7 
REMARK    2  A    between atoms: C_14  and  C_8 
REMARK    3  A    between atoms: C_16  and  C_14 
REMARK    4  A    between atoms: C_17  and  C_16 
ROOT
ATOM      1  C   UNL d   1      48.133  35.849  53.022  0.00  0.00     0.269 A 
ATOM      2  N   UNL d   1      47.402  36.229  52.887  0.00  0.00    -0.239 N 
ATOM      3  C   UNL d   1      48.315  35.432  52.332  0.00  0.00     0.079 A 
ATOM      4  C   UNL d   1      47.153  36.046  52.138  0.00  0.00     0.267 A 
ATOM      5  C   UNL d   1      47.709  35.554  51.785  0.00  0.00     0.063 A 
ATOM      6  C   UNL d   1      48.958  34.959  52.137  0.00  0.00     0.089 A 
ATOM      7  O   UNL d   1      48.588  35.880  53.707  0.00  0.00    -0.267 OA
ATOM      8  O   UNL d   1      46.443  36.315  51.782  0.00  0.00    -0.267 OA
ATOM      9  C   UNL d   1      47.004  36.709  53.427  0.00  0.00     0.105 C 
ATOM     10  C   UNL d   1      47.746  35.202  51.044  0.00  0.00     0.005 A 
ATOM     11  C   UNL d   1      48.996  34.605  51.392  0.00  0.00     0.019 A 
ATOM     12  C   UNL d   1      48.390  34.726  50.846  0.00  0.00     0.002 A 
ENDROOT
BRANCH   6  13
ATOM     13  N   UNL d   1      49.564  34.837  52.683  0.00  0.00    -0.208 NA
ATOM     14  C   UNL d   1      50.250  34.446  52.451  0.00  0.00     0.279 C 
ATOM     15  O   UNL d   1      50.337  34.176  51.679  0.00  0.00    -0.265 OA
BRANCH  14  16
ATOM     16  C   UNL d   1      50.856  34.325  52.998  0.00  0.00     0.062 C 
BRANCH  16  17
ATOM     17  C   UNL d   1      51.636  34.250  52.738  0.00  0.00     0.005 C 
BRANCH  17  18
ATOM     18  C   UNL d   1      52.247  34.173  53.287  0.00  0.00     0.000 A 
ATOM     19  C   UNL d   1      52.519  33.414  53.498  0.00  0.00     0.000 A 
ATOM     20  C   UNL d   1      53.130  33.336  54.047  0.00  0.00     0.000 A 
ATOM     21  C   UNL d   1      53.469  34.018  54.385  0.00  0.00     0.000 A 
ATOM     22  C   UNL d   1      53.197  34.755  54.173  0.00  0.00     0.000 A 
ATOM     23  C   UNL d   1      52.586  34.832  53.624  0.00  0.00     0.000 A 
ENDBRANCH  17  18
ENDBRANCH  16  17
ENDBRANCH  14  16
ENDBRANCH   6  13
TORSDOF 4
ENDMDL
MODEL 4
REMARK VINA RESULT:      -7.6      4.643      6.170
REMARK  4 active torsions:
REMARK  status: ('A' for Active; 'I' for Inactive)
REMARK    1  A    between atoms: N_7  and  C_6 
REMARK       I    between atoms: C_8  and  N_7 
REMARK    2  A    between atoms: C_14  and  C_8 
REMARK    3  A    between atoms: C_16  and  C_14 
REMARK    4  A    between atoms: C_17  and  C_16 
ROOT
ATOM      1  C   UNL d   1      46.961  35.471  51.541  0.00  0.00     0.269 A 
ATOM      2  N   UNL d   1      46.190  35.728  51.348  0.00  0.00    -0.239 N 
ATOM      3  C   UNL d   1      47.155  35.826  52.263  0.00  0.00     0.079 A 
ATOM      4  C   UNL d   1      45.931  36.222  51.934  0.00  0.00     0.267 A 
ATOM      5  C   UNL d   1      46.518  36.290  52.505  0.00  0.00     0.063 A 
ATOM      6  C   UNL d   1      47.833  35.781  52.724  0.00  0.00     0.089 A 
ATOM      7  O   UNL d   1      47.438  34.964  51.104  0.00  0.00    -0.267 OA
ATOM      8  O   UNL d   1      45.182  36.602  51.955  0.00  0.00    -0.267 OA
ATOM      9  C   UNL d   1      45.769  35.513  50.672  0.00  0.00     0.105 C 
ATOM     10  C   UNL d   1      46.559  36.709  53.210  0.00  0.00     0.005 A 
ATOM     11  C   UNL d   1      47.876  36.202  53.433  0.00  0.00     0.019 A 
ATOM     12  C   UNL d   1      47.238  36.667  53.676  0.00  0.00     0.002 A 
ENDROOT
BRANCH   6  13
ATOM     13  N   UNL d   1      48.470  35.317  52.481  0.00  0.00    -0.208 NA
ATOM     14  C   UNL d   1      49.123  35.228  52.975  0.00  0.00     0.279 C 
ATOM     15  O   UNL d   1      49.145  35.600  53.710  0.00  0.00    -0.265 OA
BRANCH  14  16
ATOM     16  C   UNL d   1      49.760  34.764  52.732  0.00  0.00     0.062 C 
BRANCH  16  17
ATOM     17  C   UNL d   1      50.335  34.535  53.278  0.00  0.00     0.005 C 
BRANCH  17  18
ATOM     18  C   UNL d   1      50.978  34.081  53.033  0.00  0.00     0.000 A 
ATOM     19  C   UNL d   1      51.527  34.400  52.492  0.00  0.00     0.000 A 
ATOM     20  C   UNL d   1      52.170  33.947  52.247  0.00  0.00     0.000 A 
ATOM     21  C   UNL d   1      52.266  33.173  52.542  0.00  0.00     0.000 A 
ATOM     22  C   UNL d   1      51.725  32.870  53.070  0.00  0.00     0.000 A 
ATOM     23  C   UNL d   1      51.081  33.324  53.315  0.00  0.00     0.000 A 
ENDBRANCH  17  18
ENDBRANCH  16  17
ENDBRANCH  14  16
ENDBRANCH   6  13
TORSDOF 4
ENDMDL
MODEL 5
REMARK VINA RESULT:      -6.2      9.303     10.121
REMARK  4 active torsions:
REMARK  status: ('A' for Active; 'I' for Inactive)
REMARK    1  A    between atoms: N_7  and  C_6 
REMARK       I    between atoms: C_8  and  N_7 
REMARK    2  A    between atoms: C_14  and  C_8 
REMARK    3  A    between atoms: C_16  and  C_14 
REMARK    4  A    between atoms: C_17  and  C_16 
ROOT
ATOM      1  C   UNL d   1      44.664  29.923  56.894  0.00  0.00     0.269 A 
ATOM      2  N   UNL d   1      44.528  30.717  56.671  0.00  0.00    -0.239 N 
ATOM      3  C   UNL d   1      44.859  29.933  57.698  0.00  0.00     0.079 A 
ATOM      4  C   UNL d   1      44.638  31.187  57.321  0.00  0.00     0.267 A 
ATOM      5  C   UNL d   1      44.843  30.714  57.961  0.00  0.00     0.063 A 
ATOM      6  C   UNL d   1      45.049  29.325  58.217  0.00  0.00     0.089 A 
ATOM      7  O   UNL d   1      44.615  29.258  56.413  0.00  0.00    -0.267 OA
ATOM      8  O   UNL d   1      44.556  32.022  57.337  0.00  0.00    -0.267 OA
ATOM      9  C   UNL d   1      44.318  30.973  55.916  0.00  0.00     0.105 C 
ATOM     10  C   UNL d   1      45.016  30.888  58.745  0.00  0.00     0.005 A 
ATOM     11  C   UNL d   1      45.223  29.499  59.005  0.00  0.00     0.019 A 
ATOM     12  C   UNL d   1      45.207  30.280  59.269  0.00  0.00     0.002 A 
ENDROOT
BRANCH   6  13
ATOM     13  N   UNL d   1      45.065  28.544  57.954  0.00  0.00    -0.208 NA
ATOM     14  C   UNL d   1      45.025  27.928  58.499  0.00  0.00     0.279 C 
ATOM     15  O   UNL d   1      44.969  28.086  59.305  0.00  0.00    -0.265 OA
BRANCH  14  16
ATOM     16  C   UNL d   1      45.041  27.147  58.235  0.00  0.00     0.062 C 
BRANCH  16  17
ATOM     17  C   UNL d   1      44.557  26.581  58.592  0.00  0.00     0.005 C 
BRANCH  17  18
ATOM     18  C   UNL d   1      44.526  25.815  58.288  0.00  0.00     0.000 A 
ATOM     19  C   UNL d   1      44.472  25.166  58.808  0.00  0.00     0.000 A 
ATOM     20  C   UNL d   1      44.440  24.400  58.504  0.00  0.00     0.000 A 
ATOM     21  C   UNL d   1      44.464  24.282  57.680  0.00  0.00     0.000 A 
ATOM     22  C   UNL d   1      44.517  24.922  57.180  0.00  0.00     0.000 A 
ATOM     23  C   UNL d   1      44.548  25.689  57.484  0.00  0.00     0.000 A 
ENDBRANCH  17  18
ENDBRANCH  16  17
ENDBRANCH  14  16
ENDBRANCH   6  13
TORSDOF 4
ENDMDL
