MODEL 1
REMARK VINA RESULT:     -10.0      0.000      0.000
REMARK  4 active torsions:
REMARK  status: ('A' for Active; 'I' for Inactive)
REMARK    1  A    between atoms: C_2  and  S_1 
REMARK    2  A    between atoms: N_3  and  S_1 
REMARK    3  A    between atoms: C_4  and  C_9 
REMARK       I    between atoms: N_5  and  C_4 
REMARK    4  A    between atoms: C_6  and  N_5 
ROOT
ATOM      1  C   UNL d   1     -47.733  13.657  22.635  0.00  0.00     0.104 A 
ATOM      2  C   UNL d   1     -47.181  13.055  22.717  0.00  0.00     0.018 A 
ATOM      3  C   UNL d   1     -46.385  13.239  22.808  0.00  0.00     0.059 A 
ATOM      4  C   UNL d   1     -47.486  14.450  22.644  0.00  0.00     0.012 A 
ATOM      5  C   UNL d   1     -46.138  14.026  22.818  0.00  0.00     0.005 A 
ATOM      6  C   UNL d   1     -46.693  14.631  22.735  0.00  0.00     0.001 A 
ATOM      7  C   UNL d   1     -48.042  15.060  22.561  0.00  0.00     0.001 C 
ENDROOT
BRANCH   1   8
ATOM      8  S   UNL d   1     -48.527  13.477  22.544  0.00  0.00     0.271 S 
ATOM      9  O   UNL d   1     -48.647  13.639  23.342  0.00  0.00    -0.200 OA
ATOM     10  O   UNL d   1     -48.400  13.318  21.750  0.00  0.00    -0.200 OA
BRANCH   8  11
ATOM     11  N   UNL d   1     -49.325  13.298  22.463  0.00  0.00    -0.229 N 
ATOM     12  C   UNL d   1     -49.646  12.897  23.146  0.00  0.00     0.092 A 
ATOM     13  C   UNL d   1     -50.291  12.641  23.323  0.00  0.00     0.020 A 
ATOM     14  C   UNL d   1     -50.977  12.672  22.853  0.00  0.00     0.002 A 
ATOM     15  C   UNL d   1     -51.043  13.020  22.058  0.00  0.00     0.002 A 
ATOM     16  C   UNL d   1     -50.408  13.410  21.585  0.00  0.00     0.020 A 
ATOM     17  C   UNL d   1     -49.610  13.518  21.820  0.00  0.00     0.092 A 
ENDBRANCH   8  11
ENDBRANCH   1   8
BRANCH   3  18
ATOM     18  C   UNL d   1     -45.835  12.640  22.890  0.00  0.00     0.281 C 
ATOM     19  N   UNL d   1     -45.993  12.001  23.377  0.00  0.00    -0.187 NA
ATOM     20  O   UNL d   1     -45.288  12.786  22.506  0.00  0.00    -0.265 OA
BRANCH  19  21
ATOM     21  C   UNL d   1     -45.433  11.390  23.460  0.00  0.00     0.194 A 
ATOM     22  N   UNL d   1     -44.622  11.464  23.329  0.00  0.00    -0.106 NA
ATOM     23  O   UNL d   1     -44.274  10.718  23.478  0.00  0.00    -0.207 OA
ATOM     24  C   UNL d   1     -44.874  10.197  23.698  0.00  0.00     0.153 A 
ATOM     25  C   UNL d   1     -45.593  10.609  23.689  0.00  0.00     0.070 A 
ENDBRANCH  19  21
ENDBRANCH   3  18
TORSDOF 4
ENDMDL
MODEL 2
REMARK VINA RESULT:      -9.0      1.343      2.032
REMARK  4 active torsions:
REMARK  status: ('A' for Active; 'I' for Inactive)
REMARK    1  A    between atoms: C_2  and  S_1 
REMARK    2  A    between atoms: N_3  and  S_1 
REMARK    3  A    between atoms: C_4  and  C_9 
REMARK       I    between atoms: N_5  and  C_4 
REMARK    4  A    between atoms: C_6  and  N_5 
ROOT
ATOM      1  C   UNL d   1     -48.387  12.636  23.111  0.00  0.00     0.104 A 
ATOM      2  C   UNL d   1     -47.604  12.830  22.958  0.00  0.00     0.018 A 
ATOM      3  C   UNL d   1     -47.004  12.311  23.172  0.00  0.00     0.059 A 
ATOM      4  C   UNL d   1     -48.570  11.916  23.483  0.00  0.00     0.012 A 
ATOM      5  C   UNL d   1     -47.184  11.596  23.542  0.00  0.00     0.005 A 
ATOM      6  C   UNL d   1     -47.971  11.401  23.696  0.00  0.00     0.001 A 
ATOM      7  C   UNL d   1     -49.361  11.717  23.639  0.00  0.00     0.001 C 
ENDROOT
BRANCH   1   8
ATOM      8  S   UNL d   1     -48.988  13.151  22.898  0.00  0.00     0.271 S 
ATOM      9  O   UNL d   1     -49.055  13.383  23.685  0.00  0.00    -0.200 OA
ATOM     10  O   UNL d   1     -48.914  12.914  22.118  0.00  0.00    -0.200 OA
BRANCH   8  11
ATOM     11  N   UNL d   1     -49.591  13.670  22.696  0.00  0.00    -0.229 N 
ATOM     12  C   UNL d   1     -49.565  14.399  23.142  0.00  0.00     0.092 A 
ATOM     13  C   UNL d   1     -49.962  14.995  23.156  0.00  0.00     0.020 A 
ATOM     14  C   UNL d   1     -50.631  15.151  22.687  0.00  0.00     0.002 A 
ATOM     15  C   UNL d   1     -50.977  14.621  22.089  0.00  0.00     0.002 A 
ATOM     16  C   UNL d   1     -50.699  13.817  21.854  0.00  0.00     0.020 A 
ATOM     17  C   UNL d   1     -50.037  13.409  22.171  0.00  0.00     0.092 A 
ENDBRANCH   8  11
ENDBRANCH   1   8
BRANCH   3  18
ATOM     18  C   UNL d   1     -46.225  12.504  23.020  0.00  0.00     0.281 C 
ATOM     19  N   UNL d   1     -45.897  12.342  22.287  0.00  0.00    -0.187 NA
ATOM     20  O   UNL d   1     -45.954  12.793  23.577  0.00  0.00    -0.265 OA
BRANCH  19  21
ATOM     21  C   UNL d   1     -45.103  12.539  22.130  0.00  0.00     0.194 A 
ATOM     22  N   UNL d   1     -44.455  12.045  22.259  0.00  0.00    -0.106 NA
ATOM     23  O   UNL d   1     -43.769  12.465  22.026  0.00  0.00    -0.207 OA
ATOM     24  C   UNL d   1     -44.006  13.208  21.758  0.00  0.00     0.153 A 
ATOM     25  C   UNL d   1     -44.830  13.258  21.821  0.00  0.00     0.070 A 
ENDBRANCH  19  21
ENDBRANCH   3  18
TORSDOF 4
ENDMDL
MODEL 3
REMARK VINA RESULT:      -7.0      7.966      9.391
REMARK  4 active torsions:
REMARK  status: ('A' for Active; 'I' for Inactive)
REMARK    1  A    between atoms: C_2  and  S_1 
REMARK    2  A    between atoms: N_3  and  S_1 
REMARK    3  A    between atoms: C_4  and  C_9 
REMARK       I    between atoms: N_5  and  C_4 
REMARK    4  A    between atoms: C_6  and  N_5 
ROOT
ATOM      1  C   UNL d   1     -40.025  14.981  20.399  0.00  0.00     0.104 A 
ATOM      2  C   UNL d   1     -39.769  14.587  19.726  0.00  0.00     0.018 A 
ATOM      3  C   UNL d   1     -40.136  14.726  19.004  0.00  0.00     0.059 A 
ATOM      4  C   UNL d   1     -40.655  15.520  20.348  0.00  0.00     0.012 A 
ATOM      5  C   UNL d   1     -40.762  15.261  18.952  0.00  0.00     0.005 A 
ATOM      6  C   UNL d   1     -41.019  15.657  19.628  0.00  0.00     0.001 A 
ATOM      7  C   UNL d   1     -40.916  15.921  21.026  0.00  0.00     0.001 C 
ENDROOT
BRANCH   1   8
ATOM      8  S   UNL d   1     -39.661  14.844  21.120  0.00  0.00     0.271 S 
ATOM      9  O   UNL d   1     -40.253  14.303  21.306  0.00  0.00    -0.200 OA
ATOM     10  O   UNL d   1     -39.076  15.384  20.927  0.00  0.00    -0.200 OA
BRANCH   8  11
ATOM     11  N   UNL d   1     -39.303  14.700  21.845  0.00  0.00    -0.229 N 
ATOM     12  C   UNL d   1     -39.299  13.870  22.053  0.00  0.00     0.092 A 
ATOM     13  C   UNL d   1     -39.058  13.493  22.612  0.00  0.00     0.020 A 
ATOM     14  C   UNL d   1     -38.672  13.799  23.283  0.00  0.00     0.002 A 
ATOM     15  C   UNL d   1     -38.489  14.637  23.435  0.00  0.00     0.002 A 
ATOM     16  C   UNL d   1     -38.669  15.331  22.920  0.00  0.00     0.020 A 
ATOM     17  C   UNL d   1     -39.056  15.310  22.176  0.00  0.00     0.092 A 
ENDBRANCH   8  11
ENDBRANCH   1   8
BRANCH   3  18
ATOM     18  C   UNL d   1     -39.881  14.333  18.334  0.00  0.00     0.281 C 
ATOM     19  N   UNL d   1     -39.145  14.499  18.016  0.00  0.00    -0.187 NA
ATOM     20  O   UNL d   1     -40.366  13.895  18.136  0.00  0.00    -0.265 OA
BRANCH  19  21
ATOM     21  C   UNL d   1     -38.884  14.100  17.333  0.00  0.00     0.194 A 
ATOM     22  N   UNL d   1     -38.576  13.335  17.316  0.00  0.00    -0.106 NA
ATOM     23  O   UNL d   1     -38.387  13.157  16.521  0.00  0.00    -0.207 OA
ATOM     24  C   UNL d   1     -38.583  13.813  16.061  0.00  0.00     0.153 A 
ATOM     25  C   UNL d   1     -38.891  14.399  16.560  0.00  0.00     0.070 A 
ENDBRANCH  19  21
ENDBRANCH   3  18
TORSDOF 4
ENDMDL
