MODEL 1
REMARK VINA RESULT:       0.9      0.000      0.000
REMARK  10 active torsions:
REMARK  status: ('A' for Active; 'I' for Inactive)
REMARK    1  A    between atoms: C_4  and  N_1 
REMARK    2  A    between atoms: C_10  and  C_2 
REMARK    3  A    between atoms: N_16  and  C_4 
REMARK    4  A    between atoms: O_22  and  C_8 
REMARK    5  A    between atoms: O_15  and  C_10 
REMARK    6  A    between atoms: O_23  and  C_11 
REMARK    7  A    between atoms: C_14  and  O_15 
REMARK    8  A    between atoms: C_25  and  N_16 
REMARK    9  A    between atoms: O_24  and  C_28 
REMARK   10  A    between atoms: C_28  and  C_25 
ROOT
ATOM      1  N   UNL d   1      32.933  21.903 -21.345  0.00  0.00    -0.280 N 
ATOM      2  C   UNL d   1      33.024  21.633 -22.119  0.00  0.00     0.091 A 
ATOM      3  C   UNL d   1      32.901  22.144 -22.744  0.00  0.00     0.020 A 
ATOM      4  C   UNL d   1      32.686  22.927 -22.603  0.00  0.00     0.005 A 
ATOM      5  C   UNL d   1      32.992  21.873 -23.513  0.00  0.00     0.028 A 
ATOM      6  C   UNL d   1      32.718  22.686 -21.205  0.00  0.00     0.082 A 
ATOM      7  C   UNL d   1      32.868  22.386 -24.147  0.00  0.00     0.116 A 
ATOM      8  C   UNL d   1      32.562  23.440 -23.233  0.00  0.00     0.026 A 
ATOM      9  C   UNL d   1      32.653  23.169 -24.007  0.00  0.00     0.116 A 
ATOM     10  C   UNL d   1      32.594  23.200 -21.839  0.00  0.00     0.019 A 
ENDROOT
BRANCH   2  11
ATOM     11  C   UNL d   1      33.239  20.849 -22.259  0.00  0.00     0.140 C 
BRANCH  11  12
ATOM     12  O   UNL d   1      32.687  20.245 -22.156  0.00  0.00    -0.304 OA
BRANCH  12  13
ATOM     13  C   UNL d   1      32.774  19.532 -22.563  0.00  0.00     0.100 A 
ATOM     14  C   UNL d   1      32.846  18.826 -22.145  0.00  0.00     0.025 A 
ATOM     15  C   UNL d   1      32.934  18.113 -22.551  0.00  0.00     0.002 A 
ATOM     16  C   UNL d   1      33.007  17.398 -22.137  0.00  0.00     0.000 C 
ATOM     17  C   UNL d   1      32.948  18.108 -23.375  0.00  0.00     0.000 A 
ATOM     18  C   UNL d   1      32.876  18.815 -23.794  0.00  0.00     0.002 A 
ATOM     19  C   UNL d   1      32.788  19.528 -23.388  0.00  0.00     0.025 A 
ATOM     20  C   UNL d   1      32.892  18.799 -24.626  0.00  0.00     0.000 C 
ENDBRANCH  12  13
ENDBRANCH  11  12
ENDBRANCH   2  11
BRANCH   1  21
ATOM     21  C   UNL d   1      33.057  21.388 -20.702  0.00  0.00     0.206 C 
ATOM     22  S   UNL d   1      32.993  20.564 -20.815  0.00  0.00    -0.038 SA
BRANCH  21  23
ATOM     23  N   UNL d   1      33.241  21.690 -19.965  0.00  0.00    -0.215 NA
BRANCH  23  24
ATOM     24  C   UNL d   1      32.960  21.322 -19.284  0.00  0.00     0.128 C 
BRANCH  24  25
ATOM     25  C   UNL d   1      33.221  21.571 -18.542  0.00  0.00     0.137 C 
BRANCH  25  26
ATOM     26  O   UNL d   1      32.750  22.053 -18.084  0.00  0.00    -0.325 OA
ATOM     27  C   UNL d   1      33.088  22.544 -17.520  0.00  0.00     0.182 C 
ENDBRANCH  25  26
ENDBRANCH  24  25
ENDBRANCH  23  24
ENDBRANCH  21  23
ENDBRANCH   1  21
BRANCH   7  28
ATOM     28  O   UNL d   1      32.959  22.117 -24.926  0.00  0.00    -0.326 OA
ATOM     29  C   UNL d   1      33.183  21.329 -25.078  0.00  0.00     0.181 C 
ENDBRANCH   7  28
BRANCH   9  30
ATOM     30  O   UNL d   1      32.529  23.684 -24.646  0.00  0.00    -0.326 OA
ATOM     31  C   UNL d   1      31.795  23.698 -25.039  0.00  0.00     0.181 C 
ENDBRANCH   9  30
TORSDOF 10
ENDMDL
MODEL 2
REMARK VINA RESULT:       1.1      3.736      5.536
REMARK  10 active torsions:
REMARK  status: ('A' for Active; 'I' for Inactive)
REMARK    1  A    between atoms: C_4  and  N_1 
REMARK    2  A    between atoms: C_10  and  C_2 
REMARK    3  A    between atoms: N_16  and  C_4 
REMARK    4  A    between atoms: O_22  and  C_8 
REMARK    5  A    between atoms: O_15  and  C_10 
REMARK    6  A    between atoms: O_23  and  C_11 
REMARK    7  A    between atoms: C_14  and  O_15 
REMARK    8  A    between atoms: C_25  and  N_16 
REMARK    9  A    between atoms: O_24  and  C_28 
REMARK   10  A    between atoms: C_28  and  C_25 
ROOT
ATOM      1  N   UNL d   1      30.528  18.626 -24.206  0.00  0.00    -0.280 N 
ATOM      2  C   UNL d   1      30.343  17.824 -24.145  0.00  0.00     0.091 A 
ATOM      3  C   UNL d   1      29.576  17.597 -23.983  0.00  0.00     0.020 A 
ATOM      4  C   UNL d   1      28.987  18.164 -23.881  0.00  0.00     0.005 A 
ATOM      5  C   UNL d   1      29.394  16.798 -23.922  0.00  0.00     0.028 A 
ATOM      6  C   UNL d   1      29.939  19.193 -24.105  0.00  0.00     0.082 A 
ATOM      7  C   UNL d   1      28.620  16.564 -23.758  0.00  0.00     0.116 A 
ATOM      8  C   UNL d   1      28.215  17.933 -23.718  0.00  0.00     0.026 A 
ATOM      9  C   UNL d   1      28.031  17.131 -23.656  0.00  0.00     0.116 A 
ATOM     10  C   UNL d   1      29.164  18.959 -23.941  0.00  0.00     0.019 A 
ENDROOT
BRANCH   2  11
ATOM     11  C   UNL d   1      30.933  17.256 -24.246  0.00  0.00     0.140 C 
BRANCH  11  12
ATOM     12  O   UNL d   1      31.096  16.718 -23.642  0.00  0.00    -0.304 OA
BRANCH  12  13
ATOM     13  C   UNL d   1      31.806  16.299 -23.645  0.00  0.00     0.100 A 
ATOM     14  C   UNL d   1      32.163  16.089 -22.932  0.00  0.00     0.025 A 
ATOM     15  C   UNL d   1      32.873  15.670 -22.934  0.00  0.00     0.002 A 
ATOM     16  C   UNL d   1      33.238  15.455 -22.220  0.00  0.00     0.000 C 
ATOM     17  C   UNL d   1      33.226  15.460 -23.649  0.00  0.00     0.000 A 
ATOM     18  C   UNL d   1      32.869  15.670 -24.363  0.00  0.00     0.002 A 
ATOM     19  C   UNL d   1      32.159  16.089 -24.361  0.00  0.00     0.025 A 
ATOM     20  C   UNL d   1      33.233  15.453 -25.079  0.00  0.00     0.000 C 
ENDBRANCH  12  13
ENDBRANCH  11  12
ENDBRANCH   2  11
BRANCH   1  21
ATOM     21  C   UNL d   1      31.307  18.866 -24.371  0.00  0.00     0.206 C 
ATOM     22  S   UNL d   1      31.695  18.575 -25.050  0.00  0.00    -0.038 SA
BRANCH  21  23
ATOM     23  N   UNL d   1      31.691  19.385 -23.869  0.00  0.00    -0.215 NA
BRANCH  23  24
ATOM     24  C   UNL d   1      32.474  19.599 -24.011  0.00  0.00     0.128 C 
BRANCH  24  25
ATOM     25  C   UNL d   1      32.729  20.366 -23.847  0.00  0.00     0.137 C 
BRANCH  25  26
ATOM     26  O   UNL d   1      33.068  20.537 -23.125  0.00  0.00    -0.325 OA
ATOM     27  C   UNL d   1      33.009  21.293 -22.812  0.00  0.00     0.182 C 
ENDBRANCH  25  26
ENDBRANCH  24  25
ENDBRANCH  23  24
ENDBRANCH  21  23
ENDBRANCH   1  21
BRANCH   7  28
ATOM     28  O   UNL d   1      28.432  15.759 -23.696  0.00  0.00    -0.326 OA
ATOM     29  C   UNL d   1      27.718  15.465 -24.008  0.00  0.00     0.181 C 
ENDBRANCH   7  28
BRANCH   9  30
ATOM     30  O   UNL d   1      27.254  16.894 -23.492  0.00  0.00    -0.326 OA
ATOM     31  C   UNL d   1      26.769  17.353 -22.993  0.00  0.00     0.181 C 
ENDBRANCH   9  30
TORSDOF 10
ENDMDL
