MODEL 1
REMARK VINA RESULT:      40.5      0.000      0.000
REMARK  8 active torsions:
REMARK  status: ('A' for Active; 'I' for Inactive)
REMARK    1  A    between atoms: C_4  and  C_1 
REMARK    2  A    between atoms: C_10  and  C_2 
REMARK    3  A    between atoms: C_15  and  C_9 
REMARK    4  A    between atoms: O_21  and  C_10 
REMARK    5  A    between atoms: O_22  and  C_15 
REMARK    6  A    between atoms: C_24  and  C_17 
REMARK    7  A    between atoms: C_25  and  O_21 
REMARK    8  A    between atoms: C_26  and  O_22 
ROOT
ATOM      1  C   UNL d   1      14.101  13.349  -1.780  0.00  0.00     0.090 A 
ATOM      2  C   UNL d   1      14.057  12.531  -1.691  0.00  0.00     0.168 A 
ATOM      3  C   UNL d   1      13.921  13.692  -2.508  0.00  0.00     0.201 A 
ATOM      4  C   UNL d   1      13.698  13.221  -3.140  0.00  0.00     0.062 A 
ATOM      5  O   UNL d   1      13.833  12.058  -2.328  0.00  0.00    -0.301 OA
ATOM      6  C   UNL d   1      13.654  12.403  -3.050  0.00  0.00     0.106 A 
ATOM      7  C   UNL d   1      13.526  13.568  -3.840  0.00  0.00     0.008 A 
ATOM      8  C   UNL d   1      13.438  11.933  -3.661  0.00  0.00     0.067 A 
ATOM      9  C   UNL d   1      13.258  12.278  -4.388  0.00  0.00     0.198 A 
ATOM     10  C   UNL d   1      13.302  13.096  -4.478  0.00  0.00     0.039 A 
ATOM     11  O   UNL d   1      13.965  14.510  -2.598  0.00  0.00    -0.286 OA
ATOM     12  O   UNL d   1      13.024  11.779  -5.050  0.00  0.00    -0.286 OA
ENDROOT
BRANCH   1  13
ATOM     13  C   UNL d   1      14.318  13.818  -1.169  0.00  0.00     0.105 A 
ATOM     14  O   UNL d   1      15.011  14.220  -1.159  0.00  0.00    -0.302 OA
ATOM     15  C   UNL d   1      15.060  14.653  -0.444  0.00  0.00     0.163 A 
ATOM     16  C   UNL d   1      14.366  14.499  -0.014  0.00  0.00     0.032 A 
ATOM     17  C   UNL d   1      13.900  13.973  -0.472  0.00  0.00     0.027 A 
BRANCH  15  18
ATOM     18  C   UNL d   1      15.701  15.153  -0.208  0.00  0.00     0.323 C 
ATOM     19  O   UNL d   1      16.430  14.839  -0.020  0.00  0.00    -0.257 OA
BRANCH  18  20
ATOM     20  O   UNL d   1      15.591  15.983  -0.165  0.00  0.00    -0.270 OA
BRANCH  20  21
ATOM     21  C   UNL d   1      15.848  16.470  -0.771  0.00  0.00     0.126 C 
ATOM     22  C   UNL d   1      15.440  17.141  -0.978  0.00  0.00     0.029 C 
ENDBRANCH  20  21
ENDBRANCH  18  20
ENDBRANCH  15  18
ENDBRANCH   1  13
BRANCH   2  23
ATOM     23  C   UNL d   1      14.235  12.162  -0.965  0.00  0.00     0.323 C 
ATOM     24  O   UNL d   1      13.669  12.181  -0.359  0.00  0.00    -0.257 OA
BRANCH  23  25
ATOM     25  O   UNL d   1      14.956  11.785  -0.840  0.00  0.00    -0.270 OA
BRANCH  25  26
ATOM     26  C   UNL d   1      15.307  11.806  -0.089  0.00  0.00     0.126 C 
ATOM     27  C   UNL d   1      16.128  11.779  -0.020  0.00  0.00     0.029 C 
ENDBRANCH  25  26
ENDBRANCH  23  25
ENDBRANCH   2  23
BRANCH  10  28
ATOM     28  C   UNL d   1      13.113  13.437  -5.232  0.00  0.00     0.003 C 
ATOM     29  C   UNL d   1      13.353  13.078  -5.935  0.00  0.00     0.000 C 
ENDBRANCH  10  28
TORSDOF 8
ENDMDL
