MODEL 1
REMARK VINA RESULT:      29.7      0.000      0.000
REMARK  4 active torsions:
REMARK  status: ('A' for Active; 'I' for Inactive)
REMARK    1  A    between atoms: N_7  and  C_1 
REMARK    2  A    between atoms: N_8  and  C_4 
REMARK    3  A    between atoms: N_11  and  C_5 
REMARK    4  A    between atoms: C_13  and  N_8 
ROOT
ATOM      1  C   UNL d   1     -58.602 -98.821 -45.163  0.00  0.00     0.201 A 
ATOM      2  N   UNL d   1     -57.477 -98.852 -44.253  0.00  0.00    -0.038 NA
ATOM      3  N   UNL d   1     -57.278 -98.786 -45.667  0.00  0.00    -0.036 NA
ATOM      4  C   UNL d   1     -56.967 -98.817 -44.913  0.00  0.00     0.753 A 
ATOM      5  C   UNL d   1     -58.291 -98.853 -44.392  0.00  0.00     0.206 A 
ATOM      6  C   UNL d   1     -58.097 -98.787 -45.797  0.00  0.00     0.227 A 
ATOM      7  N   UNL d   1     -58.399 -98.755 -46.569  0.00  0.00    -0.125 N 
ENDROOT
BRANCH   4   8
ATOM      8  N   UNL d   1     -56.153 -98.816 -44.774  0.00  0.00    -0.059 NA
BRANCH   8   9
ATOM      9  C   UNL d   1     -55.793 -99.510 -44.502  0.00  0.00     0.100 A 
ATOM     10  C   UNL d   1     -55.885-100.226 -44.912  0.00  0.00     0.020 A 
ATOM     11  C   UNL d   1     -55.535-100.914 -44.652  0.00  0.00     0.008 A 
ATOM     12  C   UNL d   1     -55.076-100.914 -43.967  0.00  0.00     0.035 A 
ATOM     13  C   UNL d   1     -54.974-100.212 -43.547  0.00  0.00     0.008 A 
ATOM     14 BR   UNL d   1     -54.713-101.613 -43.692  0.00  0.00    -0.049 Br
ATOM     15  C   UNL d   1     -55.334 -99.518 -43.820  0.00  0.00     0.020 A 
ENDBRANCH   8   9
ENDBRANCH   4   8
BRANCH   5  16
ATOM     16  N   UNL d   1     -58.825 -98.888 -43.731  0.00  0.00    -0.222 NA
ATOM     17  C   UNL d   1     -58.528 -98.761 -42.962  0.00  0.00     0.121 C 
ENDBRANCH   5  16
BRANCH   1  18
ATOM     18  N   UNL d   1     -59.444 -98.824 -45.275  0.00  0.00    -0.107 N 
ATOM     19  O   UNL d   1     -59.739 -98.756 -46.037  0.00  0.00    -0.531 OA
ATOM     20  O   UNL d   1     -59.935 -98.892 -44.640  0.00  0.00    -0.531 OA
ENDBRANCH   1  18
TORSDOF 4
ENDMDL
MODEL 2
REMARK VINA RESULT:      30.3      0.780      1.629
REMARK  4 active torsions:
REMARK  status: ('A' for Active; 'I' for Inactive)
REMARK    1  A    between atoms: N_7  and  C_1 
REMARK    2  A    between atoms: N_8  and  C_4 
REMARK    3  A    between atoms: N_11  and  C_5 
REMARK    4  A    between atoms: C_13  and  N_8 
ROOT
ATOM      1  C   UNL d   1     -58.711 -98.798 -44.104  0.00  0.00     0.201 A 
ATOM      2  N   UNL d   1     -57.483 -98.829 -44.871  0.00  0.00    -0.038 NA
ATOM      3  N   UNL d   1     -57.458 -98.809 -43.441  0.00  0.00    -0.036 NA
ATOM      4  C   UNL d   1     -57.057 -98.826 -44.152  0.00  0.00     0.753 A 
ATOM      5  C   UNL d   1     -58.308 -98.816 -44.832  0.00  0.00     0.206 A 
ATOM      6  C   UNL d   1     -58.286 -98.795 -43.412  0.00  0.00     0.227 A 
ATOM      7  N   UNL d   1     -58.680 -98.778 -42.683  0.00  0.00    -0.125 N 
ENDROOT
BRANCH   4   8
ATOM      8  N   UNL d   1     -56.232 -98.839 -44.190  0.00  0.00    -0.059 NA
BRANCH   8   9
ATOM      9  C   UNL d   1     -55.852 -99.557 -44.347  0.00  0.00     0.100 A 
ATOM     10  C   UNL d   1     -56.090-100.257 -43.968  0.00  0.00     0.020 A 
ATOM     11  C   UNL d   1     -55.722-100.968 -44.114  0.00  0.00     0.008 A 
ATOM     12  C   UNL d   1     -55.096-101.010 -44.650  0.00  0.00     0.035 A 
ATOM     13  C   UNL d   1     -54.847-100.325 -45.035  0.00  0.00     0.008 A 
ATOM     14 BR   UNL d   1     -54.712-101.734 -44.808  0.00  0.00    -0.049 Br
ATOM     15  C   UNL d   1     -55.227 -99.607 -44.879  0.00  0.00     0.020 A 
ENDBRANCH   8   9
ENDBRANCH   4   8
BRANCH   5  16
ATOM     16  N   UNL d   1     -58.757 -98.819 -45.554  0.00  0.00    -0.222 NA
ATOM     17  C   UNL d   1     -58.663 -99.453 -46.087  0.00  0.00     0.121 C 
ENDBRANCH   5  16
BRANCH   1  18
ATOM     18  N   UNL d   1     -59.560 -98.785 -44.095  0.00  0.00    -0.107 N 
ATOM     19  O   UNL d   1     -59.959 -98.758 -44.811  0.00  0.00    -0.531 OA
ATOM     20  O   UNL d   1     -59.956 -98.798 -43.393  0.00  0.00    -0.531 OA
ENDBRANCH   1  18
TORSDOF 4
ENDMDL
