MODEL 1
REMARK VINA RESULT:      -5.0      0.000      0.000
REMARK  10 active torsions:
REMARK  status: ('A' for Active; 'I' for Inactive)
REMARK    1  A    between atoms: S_6  and  C_1 
REMARK    2  A    between atoms: C_12  and  N_2 
REMARK    3  A    between atoms: C_11  and  C_4 
REMARK    4  A    between atoms: C_10  and  S_6 
REMARK       I    between atoms: C_7  and  N_9 
REMARK    5  A    between atoms: C_13  and  C_7 
REMARK    6  A    between atoms: C_8  and  C_10 
REMARK    7  A    between atoms: O_18  and  C_8 
REMARK    8  A    between atoms: N_9  and  C_11 
REMARK    9  A    between atoms: C_26  and  O_18 
REMARK   10  A    between atoms: O_22  and  C_19 
ROOT
ATOM      1  C   UNL d   1     -47.351  13.957  22.792  0.00  0.00     0.201 A 
ATOM      2  N   UNL d   1     -47.088  13.177  22.825  0.00  0.00    -0.268 N 
ATOM      3  N   UNL d   1     -46.691  14.455  22.727  0.00  0.00    -0.121 NA
ATOM      4  C   UNL d   1     -46.257  13.198  22.779  0.00  0.00     0.190 A 
ATOM      5  N   UNL d   1     -46.020  13.993  22.719  0.00  0.00    -0.126 NA
ENDROOT
BRANCH   4   6
ATOM      6  C   UNL d   1     -45.752  12.544  22.792  0.00  0.00     0.141 C 
BRANCH   6   7
ATOM      7  N   UNL d   1     -45.074  12.819  22.401  0.00  0.00    -0.203 NA
ATOM      8  C   UNL d   1     -44.429  12.312  22.294  0.00  0.00     0.279 C 
ATOM      9  O   UNL d   1     -44.456  11.540  22.571  0.00  0.00    -0.265 OA
BRANCH   8  10
ATOM     10  C   UNL d   1     -43.758  12.594  21.904  0.00  0.00     0.058 A 
ATOM     11  C   UNL d   1     -43.817  12.921  21.156  0.00  0.00     0.007 A 
ATOM     12  C   UNL d   1     -43.145  13.202  20.767  0.00  0.00     0.024 A 
ATOM     13  C   UNL d   1     -42.409  13.149  21.142  0.00  0.00     0.094 A 
ATOM     14  C   UNL d   1     -42.352  12.821  21.889  0.00  0.00     0.024 A 
ATOM     15  C   UNL d   1     -43.023  12.540  22.279  0.00  0.00     0.007 A 
BRANCH  13  16
ATOM     16  O   UNL d   1     -41.738  13.430  20.752  0.00  0.00    -0.328 OA
ATOM     17  C   UNL d   1     -41.315  14.052  21.071  0.00  0.00     0.181 C 
ENDBRANCH  13  16
ENDBRANCH   8  10
ENDBRANCH   6   7
ENDBRANCH   4   6
BRANCH   2  18
ATOM     18  C   UNL d   1     -47.554  12.512  22.890  0.00  0.00     0.067 A 
ATOM     19  C   UNL d   1     -47.889  12.171  22.221  0.00  0.00     0.018 A 
ATOM     20  C   UNL d   1     -48.358  11.503  22.287  0.00  0.00     0.002 A 
ATOM     21  C   UNL d   1     -48.498  11.167  23.022  0.00  0.00     0.000 A 
ATOM     22  C   UNL d   1     -48.164  11.505  23.696  0.00  0.00     0.002 A 
ATOM     23  C   UNL d   1     -47.691  12.180  23.630  0.00  0.00     0.018 A 
ENDBRANCH   2  18
BRANCH   1  24
ATOM     24  S   UNL d   1     -48.140  14.206  22.819  0.00  0.00    -0.043 SA
BRANCH  24  25
ATOM     25  C   UNL d   1     -48.341  14.982  22.621  0.00  0.00     0.096 C 
ATOM     26  C   UNL d   1     -47.772  15.491  22.325  0.00  0.00     0.013 C 
BRANCH  25  27
ATOM     27  C   UNL d   1     -49.117  15.252  22.720  0.00  0.00     0.306 C 
ATOM     28  O   UNL d   1     -49.302  15.763  23.336  0.00  0.00    -0.258 OA
BRANCH  27  29
ATOM     29  O   UNL d   1     -49.694  15.004  22.196  0.00  0.00    -0.271 OA
BRANCH  29  30
ATOM     30  C   UNL d   1     -50.483  14.932  22.452  0.00  0.00     0.126 C 
ATOM     31  C   UNL d   1     -51.047  14.618  21.972  0.00  0.00     0.029 C 
ENDBRANCH  29  30
ENDBRANCH  27  29
ENDBRANCH  25  27
ENDBRANCH  24  25
ENDBRANCH   1  24
TORSDOF 10
ENDMDL
MODEL 2
REMARK VINA RESULT:      -3.2      3.973      8.298
REMARK  10 active torsions:
REMARK  status: ('A' for Active; 'I' for Inactive)
REMARK    1  A    between atoms: S_6  and  C_1 
REMARK    2  A    between atoms: C_12  and  N_2 
REMARK    3  A    between atoms: C_11  and  C_4 
REMARK    4  A    between atoms: C_10  and  S_6 
REMARK       I    between atoms: C_7  and  N_9 
REMARK    5  A    between atoms: C_13  and  C_7 
REMARK    6  A    between atoms: C_8  and  C_10 
REMARK    7  A    between atoms: O_18  and  C_8 
REMARK    8  A    between atoms: N_9  and  C_11 
REMARK    9  A    between atoms: C_26  and  O_18 
REMARK   10  A    between atoms: O_22  and  C_19 
ROOT
ATOM      1  C   UNL d   1     -40.144  14.649  18.588  0.00  0.00     0.201 A 
ATOM      2  N   UNL d   1     -39.974  14.560  19.390  0.00  0.00    -0.268 N 
ATOM      3  N   UNL d   1     -40.855  14.254  18.425  0.00  0.00    -0.121 NA
ATOM      4  C   UNL d   1     -40.588  14.105  19.720  0.00  0.00     0.190 A 
ATOM      5  N   UNL d   1     -41.128  13.920  19.116  0.00  0.00    -0.126 NA
ENDROOT
BRANCH   4   6
ATOM      6  C   UNL d   1     -40.651  13.876  20.512  0.00  0.00     0.141 C 
BRANCH   6   7
ATOM      7  N   UNL d   1     -41.459  13.710  20.598  0.00  0.00    -0.203 NA
ATOM      8  C   UNL d   1     -41.750  13.458  21.330  0.00  0.00     0.279 C 
ATOM      9  O   UNL d   1     -41.245  13.371  21.971  0.00  0.00    -0.265 OA
BRANCH   8  10
ATOM     10  C   UNL d   1     -42.556  13.295  21.407  0.00  0.00     0.058 A 
ATOM     11  C   UNL d   1     -43.111  13.889  21.322  0.00  0.00     0.007 A 
ATOM     12  C   UNL d   1     -43.916  13.725  21.400  0.00  0.00     0.024 A 
ATOM     13  C   UNL d   1     -44.157  12.951  21.566  0.00  0.00     0.094 A 
ATOM     14  C   UNL d   1     -43.600  12.358  21.651  0.00  0.00     0.024 A 
ATOM     15  C   UNL d   1     -42.796  12.521  21.573  0.00  0.00     0.007 A 
BRANCH  13  16
ATOM     16  O   UNL d   1     -44.962  12.788  21.643  0.00  0.00    -0.328 OA
ATOM     17  C   UNL d   1     -45.392  13.141  22.243  0.00  0.00     0.181 C 
ENDBRANCH  13  16
ENDBRANCH   8  10
ENDBRANCH   6   7
ENDBRANCH   4   6
BRANCH   2  18
ATOM     18  C   UNL d   1     -39.327  14.861  19.782  0.00  0.00     0.067 A 
ATOM     19  C   UNL d   1     -38.638  14.417  19.853  0.00  0.00     0.018 A 
ATOM     20  C   UNL d   1     -37.988  14.720  20.248  0.00  0.00     0.002 A 
ATOM     21  C   UNL d   1     -38.017  15.471  20.577  0.00  0.00     0.000 A 
ATOM     22  C   UNL d   1     -38.705  15.921  20.508  0.00  0.00     0.002 A 
ATOM     23  C   UNL d   1     -39.362  15.615  20.110  0.00  0.00     0.018 A 
ENDBRANCH   2  18
BRANCH   1  24
ATOM     24  S   UNL d   1     -39.686  15.062  18.036  0.00  0.00    -0.043 SA
BRANCH  24  25
ATOM     25  C   UNL d   1     -39.911  15.089  17.242  0.00  0.00     0.096 C 
ATOM     26  C   UNL d   1     -40.704  15.079  17.040  0.00  0.00     0.013 C 
BRANCH  25  27
ATOM     27  C   UNL d   1     -39.338  15.124  16.645  0.00  0.00     0.306 C 
ATOM     28  O   UNL d   1     -39.007  15.845  16.433  0.00  0.00    -0.258 OA
BRANCH  27  29
ATOM     29  O   UNL d   1     -39.110  14.434  16.272  0.00  0.00    -0.271 OA
BRANCH  29  30
ATOM     30  C   UNL d   1     -38.423  14.424  15.801  0.00  0.00     0.126 C 
ATOM     31  C   UNL d   1     -38.227  13.776  15.367  0.00  0.00     0.029 C 
ENDBRANCH  29  30
ENDBRANCH  27  29
ENDBRANCH  25  27
ENDBRANCH  24  25
ENDBRANCH   1  24
TORSDOF 10
ENDMDL
MODEL 3
REMARK VINA RESULT:      -2.5      4.392      7.781
REMARK  10 active torsions:
REMARK  status: ('A' for Active; 'I' for Inactive)
REMARK    1  A    between atoms: S_6  and  C_1 
REMARK    2  A    between atoms: C_12  and  N_2 
REMARK    3  A    between atoms: C_11  and  C_4 
REMARK    4  A    between atoms: C_10  and  S_6 
REMARK       I    between atoms: C_7  and  N_9 
REMARK    5  A    between atoms: C_13  and  C_7 
REMARK    6  A    between atoms: C_8  and  C_10 
REMARK    7  A    between atoms: O_18  and  C_8 
REMARK    8  A    between atoms: N_9  and  C_11 
REMARK    9  A    between atoms: C_26  and  O_18 
REMARK   10  A    between atoms: O_22  and  C_19 
ROOT
ATOM      1  C   UNL d   1     -40.737  14.422  20.367  0.00  0.00     0.201 A 
ATOM      2  N   UNL d   1     -39.975  14.736  20.350  0.00  0.00    -0.268 N 
ATOM      3  N   UNL d   1     -41.036  14.414  19.594  0.00  0.00    -0.121 NA
ATOM      4  C   UNL d   1     -39.807  14.923  19.556  0.00  0.00     0.190 A 
ATOM      5  N   UNL d   1     -40.469  14.720  19.096  0.00  0.00    -0.126 NA
ENDROOT
BRANCH   4   6
ATOM      6  C   UNL d   1     -39.104  15.253  19.273  0.00  0.00     0.141 C 
BRANCH   6   7
ATOM      7  N   UNL d   1     -38.983  14.855  18.555  0.00  0.00    -0.203 NA
ATOM      8  C   UNL d   1     -38.400  15.121  18.033  0.00  0.00     0.279 C 
ATOM      9  O   UNL d   1     -37.940  15.775  18.221  0.00  0.00    -0.265 OA
BRANCH   8  10
ATOM     10  C   UNL d   1     -38.285  14.721  17.320  0.00  0.00     0.058 A 
ATOM     11  C   UNL d   1     -38.391  15.104  16.605  0.00  0.00     0.007 A 
ATOM     12  C   UNL d   1     -38.277  14.702  15.893  0.00  0.00     0.024 A 
ATOM     13  C   UNL d   1     -38.054  13.906  15.909  0.00  0.00     0.094 A 
ATOM     14  C   UNL d   1     -37.948  13.524  16.625  0.00  0.00     0.024 A 
ATOM     15  C   UNL d   1     -38.062  13.924  17.337  0.00  0.00     0.007 A 
BRANCH  13  16
ATOM     16  O   UNL d   1     -37.940  13.505  15.197  0.00  0.00    -0.328 OA
ATOM     17  C   UNL d   1     -38.012  13.907  14.489  0.00  0.00     0.181 C 
ENDBRANCH  13  16
ENDBRANCH   8  10
ENDBRANCH   6   7
ENDBRANCH   4   6
BRANCH   2  18
ATOM     18  C   UNL d   1     -39.483  14.843  20.989  0.00  0.00     0.067 A 
ATOM     19  C   UNL d   1     -38.998  14.232  21.250  0.00  0.00     0.018 A 
ATOM     20  C   UNL d   1     -38.503  14.339  21.893  0.00  0.00     0.002 A 
ATOM     21  C   UNL d   1     -38.485  15.060  22.284  0.00  0.00     0.000 A 
ATOM     22  C   UNL d   1     -38.968  15.677  22.028  0.00  0.00     0.002 A 
ATOM     23  C   UNL d   1     -39.469  15.568  21.378  0.00  0.00     0.018 A 
ENDBRANCH   2  18
BRANCH   1  24
ATOM     24  S   UNL d   1     -41.139  14.157  21.041  0.00  0.00    -0.043 SA
BRANCH  24  25
ATOM     25  C   UNL d   1     -41.964  14.132  21.052  0.00  0.00     0.096 C 
ATOM     26  C   UNL d   1     -42.398  14.783  20.811  0.00  0.00     0.013 C 
BRANCH  25  27
ATOM     27  C   UNL d   1     -42.360  13.451  21.307  0.00  0.00     0.306 C 
ATOM     28  O   UNL d   1     -41.936  12.773  21.493  0.00  0.00    -0.258 OA
BRANCH  27  29
ATOM     29  O   UNL d   1     -43.174  13.464  21.369  0.00  0.00    -0.271 OA
BRANCH  29  30
ATOM     30  C   UNL d   1     -43.579  12.800  21.668  0.00  0.00     0.126 C 
ATOM     31  C   UNL d   1     -44.374  12.819  21.791  0.00  0.00     0.029 C 
ENDBRANCH  29  30
ENDBRANCH  27  29
ENDBRANCH  25  27
ENDBRANCH  24  25
ENDBRANCH   1  24
TORSDOF 10
ENDMDL
MODEL 4
REMARK VINA RESULT:      -2.1      0.874      1.195
REMARK  10 active torsions:
REMARK  status: ('A' for Active; 'I' for Inactive)
REMARK    1  A    between atoms: S_6  and  C_1 
REMARK    2  A    between atoms: C_12  and  N_2 
REMARK    3  A    between atoms: C_11  and  C_4 
REMARK    4  A    between atoms: C_10  and  S_6 
REMARK       I    between atoms: C_7  and  N_9 
REMARK    5  A    between atoms: C_13  and  C_7 
REMARK    6  A    between atoms: C_8  and  C_10 
REMARK    7  A    between atoms: O_18  and  C_8 
REMARK    8  A    between atoms: N_9  and  C_11 
REMARK    9  A    between atoms: C_26  and  O_18 
REMARK   10  A    between atoms: O_22  and  C_19 
ROOT
ATOM      1  C   UNL d   1     -46.556  13.749  22.730  0.00  0.00     0.201 A 
ATOM      2  N   UNL d   1     -46.209  13.004  22.667  0.00  0.00    -0.268 N 
ATOM      3  N   UNL d   1     -46.001  14.318  22.495  0.00  0.00    -0.121 NA
ATOM      4  C   UNL d   1     -45.433  13.120  22.389  0.00  0.00     0.190 A 
ATOM      5  N   UNL d   1     -45.313  13.936  22.286  0.00  0.00    -0.126 NA
ENDROOT
BRANCH   4   6
ATOM      6  C   UNL d   1     -44.876  12.527  22.241  0.00  0.00     0.141 C 
BRANCH   6   7
ATOM      7  N   UNL d   1     -44.244  12.941  21.898  0.00  0.00    -0.203 NA
ATOM      8  C   UNL d   1     -43.525  12.555  21.767  0.00  0.00     0.279 C 
ATOM      9  O   UNL d   1     -43.432  11.767  21.975  0.00  0.00    -0.265 OA
BRANCH   8  10
ATOM     10  C   UNL d   1     -42.901  12.974  21.425  0.00  0.00     0.058 A 
ATOM     11  C   UNL d   1     -42.188  13.056  21.819  0.00  0.00     0.007 A 
ATOM     12  C   UNL d   1     -41.565  13.475  21.476  0.00  0.00     0.024 A 
ATOM     13  C   UNL d   1     -41.668  13.812  20.728  0.00  0.00     0.094 A 
ATOM     14  C   UNL d   1     -42.381  13.729  20.335  0.00  0.00     0.024 A 
ATOM     15  C   UNL d   1     -43.004  13.311  20.677  0.00  0.00     0.007 A 
BRANCH  13  16
ATOM     16  O   UNL d   1     -41.045  14.231  20.386  0.00  0.00    -0.328 OA
ATOM     17  C   UNL d   1     -41.027  15.047  20.438  0.00  0.00     0.181 C 
ENDBRANCH  13  16
ENDBRANCH   8  10
ENDBRANCH   6   7
ENDBRANCH   4   6
BRANCH   2  18
ATOM     18  C   UNL d   1     -46.561  12.291  22.842  0.00  0.00     0.067 A 
ATOM     19  C   UNL d   1     -47.141  11.980  22.349  0.00  0.00     0.018 A 
ATOM     20  C   UNL d   1     -47.495  11.263  22.526  0.00  0.00     0.002 A 
ATOM     21  C   UNL d   1     -47.274  10.848  23.199  0.00  0.00     0.000 A 
ATOM     22  C   UNL d   1     -46.693  11.155  23.697  0.00  0.00     0.002 A 
ATOM     23  C   UNL d   1     -46.335  11.879  23.518  0.00  0.00     0.018 A 
ENDBRANCH   2  18
BRANCH   1  24
ATOM     24  S   UNL d   1     -47.328  13.907  22.986  0.00  0.00    -0.043 SA
BRANCH  24  25
ATOM     25  C   UNL d   1     -47.675  14.641  22.839  0.00  0.00     0.096 C 
ATOM     26  C   UNL d   1     -47.222  15.259  22.551  0.00  0.00     0.013 C 
BRANCH  25  27
ATOM     27  C   UNL d   1     -48.482  14.759  22.980  0.00  0.00     0.306 C 
ATOM     28  O   UNL d   1     -48.911  14.207  23.411  0.00  0.00    -0.258 OA
BRANCH  27  29
ATOM     29  O   UNL d   1     -48.844  15.430  22.685  0.00  0.00    -0.271 OA
BRANCH  29  30
ATOM     30  C   UNL d   1     -49.544  15.713  23.036  0.00  0.00     0.126 C 
ATOM     31  C   UNL d   1     -50.255  15.373  22.877  0.00  0.00     0.029 C 
ENDBRANCH  29  30
ENDBRANCH  27  29
ENDBRANCH  25  27
ENDBRANCH  24  25
ENDBRANCH   1  24
TORSDOF 10
ENDMDL
