MODEL 1
REMARK VINA RESULT:       0.1      0.000      0.000
REMARK  10 active torsions:
REMARK  status: ('A' for Active; 'I' for Inactive)
REMARK    1  A    between atoms: C_5  and  C_1 
REMARK    2  A    between atoms: C_10  and  C_2 
REMARK    3  A    between atoms: S_11  and  C_3 
REMARK    4  A    between atoms: C_9  and  C_4 
REMARK       I    between atoms: N_8  and  C_5 
REMARK    5  A    between atoms: C_15  and  N_8 
REMARK    6  A    between atoms: C_26  and  S_11 
REMARK    7  A    between atoms: C_13  and  C_18 
REMARK    8  A    between atoms: C_16  and  C_26 
REMARK       I    between atoms: N_19  and  C_16 
REMARK    9  A    between atoms: C_29  and  N_19 
REMARK   10  A    between atoms: O_34  and  C_23 
ROOT
ATOM      1  C   UNL d   1      33.172  20.003 -23.046  0.00  0.00     0.076 A 
ATOM      2  C   UNL d   1      33.214  18.616 -22.810  0.00  0.00     0.045 A 
ATOM      3  C   UNL d   1      33.205  18.477 -23.646  0.00  0.00     0.112 A 
ATOM      4  C   UNL d   1      33.197  19.368 -22.526  0.00  0.00     0.016 A 
ATOM      5  C   UNL d   1      33.163  19.866 -23.871  0.00  0.00     0.087 A 
ATOM      6  N   UNL d   1      33.180  19.096 -24.158  0.00  0.00    -0.239 NA
ATOM      7  C   UNL d   1      33.138  20.497 -24.407  0.00  0.00     0.021 C 
ENDROOT
BRANCH   3   8
ATOM      8  S   UNL d   1      33.221  17.703 -23.992  0.00  0.00    -0.062 SA
BRANCH   8   9
ATOM      9  C   UNL d   1      32.743  17.522 -24.649  0.00  0.00     0.099 C 
BRANCH   9  10
ATOM     10  C   UNL d   1      32.015  17.148 -24.533  0.00  0.00     0.286 C 
ATOM     11  N   UNL d   1      31.353  17.393 -24.953  0.00  0.00    -0.208 NA
ATOM     12  O   UNL d   1      31.957  16.532 -23.998  0.00  0.00    -0.265 OA
BRANCH  11  13
ATOM     13  C   UNL d   1      30.629  17.010 -24.829  0.00  0.00     0.085 A 
ATOM     14  C   UNL d   1      30.018  17.408 -24.459  0.00  0.00     0.019 A 
ATOM     15  C   UNL d   1      29.298  17.031 -24.334  0.00  0.00     0.008 A 
ATOM     16  C   UNL d   1      29.200  16.244 -24.587  0.00  0.00     0.065 A 
ATOM     17  C   UNL d   1      29.811  15.846 -24.957  0.00  0.00     0.008 A 
ATOM     18  C   UNL d   1      30.535  16.228 -25.081  0.00  0.00     0.019 A 
BRANCH  16  19
ATOM     19  C   UNL d   1      28.471  15.852 -24.464  0.00  0.00     0.211 C 
ATOM     20  O   UNL d   1      28.129  15.835 -23.706  0.00  0.00    -0.644 OA
ATOM     21  O   UNL d   1      28.101  15.487 -25.096  0.00  0.00    -0.644 OA
ENDBRANCH  16  19
ENDBRANCH  11  13
ENDBRANCH   9  10
ENDBRANCH   8   9
ENDBRANCH   3   8
BRANCH   2  22
ATOM     22  C   UNL d   1      33.239  17.989 -22.247  0.00  0.00     0.124 C 
ATOM     23  N   UNL d   1      32.645  17.397 -22.251  0.00  0.00    -0.146 N 
ENDBRANCH   2  22
BRANCH   4  24
ATOM     24  C   UNL d   1      33.205  19.503 -21.717  0.00  0.00     0.030 A 
ATOM     25  S   UNL d   1      33.235  20.183 -21.273  0.00  0.00    -0.086 SA
ATOM     26  C   UNL d   1      33.229  19.968 -20.499  0.00  0.00     0.035 A 
ATOM     27  C   UNL d   1      33.196  19.173 -20.448  0.00  0.00     0.007 A 
ATOM     28  C   UNL d   1      33.181  18.869 -21.195  0.00  0.00     0.007 A 
ENDBRANCH   4  24
BRANCH   1  29
ATOM     29  C   UNL d   1      33.155  20.773 -22.748  0.00  0.00     0.281 C 
ATOM     30  N   UNL d   1      33.051  21.411 -23.271  0.00  0.00    -0.206 NA
ATOM     31  O   UNL d   1      33.240  20.905 -21.947  0.00  0.00    -0.265 OA
BRANCH  30  32
ATOM     32  C   UNL d   1      33.035  22.178 -22.969  0.00  0.00     0.107 A 
ATOM     33  C   UNL d   1      32.818  22.794 -23.448  0.00  0.00     0.112 A 
ATOM     34  C   UNL d   1      32.804  23.561 -23.141  0.00  0.00     0.026 A 
ATOM     35  C   UNL d   1      33.004  23.700 -22.370  0.00  0.00     0.002 A 
ATOM     36  C   UNL d   1      33.226  23.076 -21.875  0.00  0.00     0.002 A 
ATOM     37  C   UNL d   1      33.241  22.309 -22.181  0.00  0.00     0.021 A 
BRANCH  33  38
ATOM     38  O   UNL d   1      32.614  22.652 -24.235  0.00  0.00    -0.327 OA
ATOM     39  C   UNL d   1      32.639  23.264 -24.787  0.00  0.00     0.181 C 
ENDBRANCH  33  38
ENDBRANCH  30  32
ENDBRANCH   1  29
TORSDOF 10
ENDMDL
MODEL 2
REMARK VINA RESULT:       1.7      1.670      6.326
REMARK  10 active torsions:
REMARK  status: ('A' for Active; 'I' for Inactive)
REMARK    1  A    between atoms: C_5  and  C_1 
REMARK    2  A    between atoms: C_10  and  C_2 
REMARK    3  A    between atoms: S_11  and  C_3 
REMARK    4  A    between atoms: C_9  and  C_4 
REMARK       I    between atoms: N_8  and  C_5 
REMARK    5  A    between atoms: C_15  and  N_8 
REMARK    6  A    between atoms: C_26  and  S_11 
REMARK    7  A    between atoms: C_13  and  C_18 
REMARK    8  A    between atoms: C_16  and  C_26 
REMARK       I    between atoms: N_19  and  C_16 
REMARK    9  A    between atoms: C_29  and  N_19 
REMARK   10  A    between atoms: O_34  and  C_23 
ROOT
ATOM      1  C   UNL d   1      30.292  16.627 -23.715  0.00  0.00     0.076 A 
ATOM      2  C   UNL d   1      31.173  17.671 -24.052  0.00  0.00     0.045 A 
ATOM      3  C   UNL d   1      31.796  17.274 -23.638  0.00  0.00     0.112 A 
ATOM      4  C   UNL d   1      30.438  17.346 -24.084  0.00  0.00     0.016 A 
ATOM      5  C   UNL d   1      30.907  16.236 -23.307  0.00  0.00     0.087 A 
ATOM      6  N   UNL d   1      31.657  16.571 -23.276  0.00  0.00    -0.239 NA
ATOM      7  C   UNL d   1      30.774  15.510 -22.930  0.00  0.00     0.021 C 
ENDROOT
BRANCH   3   8
ATOM      8  S   UNL d   1      32.586  17.578 -23.577  0.00  0.00    -0.062 SA
BRANCH   8   9
ATOM      9  C   UNL d   1      32.905  17.786 -22.837  0.00  0.00     0.099 C 
BRANCH   9  10
ATOM     10  C   UNL d   1      32.967  18.583 -22.630  0.00  0.00     0.286 C 
ATOM     11  N   UNL d   1      32.885  18.814 -21.845  0.00  0.00    -0.208 NA
ATOM     12  O   UNL d   1      33.112  19.143 -23.209  0.00  0.00    -0.265 OA
BRANCH  11  13
ATOM     13  C   UNL d   1      32.950  19.616 -21.649  0.00  0.00     0.085 A 
ATOM     14  C   UNL d   1      32.793  20.186 -22.214  0.00  0.00     0.019 A 
ATOM     15  C   UNL d   1      32.856  20.983 -22.022  0.00  0.00     0.008 A 
ATOM     16  C   UNL d   1      33.081  21.201 -21.251  0.00  0.00     0.065 A 
ATOM     17  C   UNL d   1      33.239  20.631 -20.686  0.00  0.00     0.008 A 
ATOM     18  C   UNL d   1      33.174  19.830 -20.882  0.00  0.00     0.019 A 
BRANCH  16  19
ATOM     19  C   UNL d   1      33.149  22.010 -21.047  0.00  0.00     0.211 C 
ATOM     20  O   UNL d   1      33.204  22.235 -20.248  0.00  0.00    -0.644 OA
ATOM     21  O   UNL d   1      33.160  22.573 -21.640  0.00  0.00    -0.644 OA
ENDBRANCH  16  19
ENDBRANCH  11  13
ENDBRANCH   9  10
ENDBRANCH   8   9
ENDBRANCH   3   8
BRANCH   2  22
ATOM     22  C   UNL d   1      31.287  18.411 -24.442  0.00  0.00     0.124 C 
ATOM     23  N   UNL d   1      31.819  18.466 -25.089  0.00  0.00    -0.146 N 
ENDBRANCH   2  22
BRANCH   4  24
ATOM     24  C   UNL d   1      29.835  17.730 -24.484  0.00  0.00     0.030 A 
ATOM     25  S   UNL d   1      29.095  17.493 -24.723  0.00  0.00    -0.086 SA
ATOM     26  C   UNL d   1      28.749  18.115 -25.096  0.00  0.00     0.035 A 
ATOM     27  C   UNL d   1      29.252  18.733 -25.096  0.00  0.00     0.007 A 
ATOM     28  C   UNL d   1      29.931  18.511 -24.720  0.00  0.00     0.007 A 
ENDBRANCH   4  24
BRANCH   1  29
ATOM     29  C   UNL d   1      29.535  16.298 -23.751  0.00  0.00     0.281 C 
ATOM     30  N   UNL d   1      28.997  16.442 -23.135  0.00  0.00    -0.206 NA
ATOM     31  O   UNL d   1      29.320  15.834 -24.387  0.00  0.00    -0.265 OA
BRANCH  30  32
ATOM     32  C   UNL d   1      28.243  16.112 -23.175  0.00  0.00     0.107 A 
ATOM     33  C   UNL d   1      27.831  15.966 -22.494  0.00  0.00     0.112 A 
ATOM     34  C   UNL d   1      27.075  15.634 -22.539  0.00  0.00     0.026 A 
ATOM     35  C   UNL d   1      26.747  15.454 -23.256  0.00  0.00     0.002 A 
ATOM     36  C   UNL d   1      27.161  15.600 -23.956  0.00  0.00     0.002 A 
ATOM     37  C   UNL d   1      27.917  15.932 -23.912  0.00  0.00     0.021 A 
BRANCH  33  38
ATOM     38  O   UNL d   1      28.166  16.149 -21.762  0.00  0.00    -0.327 OA
ATOM     39  C   UNL d   1      28.483  15.553 -21.290  0.00  0.00     0.181 C 
ENDBRANCH  33  38
ENDBRANCH  30  32
ENDBRANCH   1  29
TORSDOF 10
ENDMDL
