MODEL 1
REMARK VINA RESULT:     -10.4      0.000      0.000
REMARK  5 active torsions:
REMARK  status: ('A' for Active; 'I' for Inactive)
REMARK    1  A    between atoms: S_2  and  C_1 
REMARK    2  A    between atoms: C_9  and  S_2 
REMARK    3  A    between atoms: C_8  and  N_3 
REMARK    4  A    between atoms: C_7  and  C_8 
REMARK       I    between atoms: N_12  and  C_7 
REMARK    5  A    between atoms: C_14  and  C_9 
ROOT
ATOM      1  C   UNL d   1      52.922  33.448  53.737  0.00  0.00     0.107 A 
ATOM      2  N   UNL d   1      53.481  32.245  53.866  0.00  0.00    -0.299 N 
ATOM      3  C   UNL d   1      52.879  32.659  53.484  0.00  0.00     0.092 A 
ATOM      4  C   UNL d   1      53.548  33.513  54.270  0.00  0.00     0.028 A 
ATOM      5  C   UNL d   1      53.894  32.766  54.349  0.00  0.00     0.065 A 
ATOM      6  C   UNL d   1      53.846  34.154  54.692  0.00  0.00     0.002 A 
ATOM      7  C   UNL d   1      54.540  32.668  54.853  0.00  0.00     0.018 A 
ATOM      8  C   UNL d   1      54.494  34.057  55.199  0.00  0.00     0.000 A 
ATOM      9  C   UNL d   1      54.838  33.309  55.275  0.00  0.00     0.002 A 
ENDROOT
BRANCH   1  10
ATOM     10  S   UNL d   1      52.421  34.063  53.495  0.00  0.00     0.212 S 
ATOM     11  O   UNL d   1      51.913  33.791  54.085  0.00  0.00    -0.217 OA
ATOM     12  O   UNL d   1      52.933  34.332  52.903  0.00  0.00    -0.217 OA
BRANCH  10  13
ATOM     13  C   UNL d   1      51.924  34.674  53.253  0.00  0.00     0.099 C 
BRANCH  13  14
ATOM     14  C   UNL d   1      51.264  34.507  52.792  0.00  0.00     0.011 A 
ATOM     15  C   UNL d   1      51.356  34.353  51.987  0.00  0.00     0.001 A 
ATOM     16  C   UNL d   1      50.684  34.185  51.523  0.00  0.00     0.000 A 
ATOM     17  C   UNL d   1      49.931  34.173  51.871  0.00  0.00     0.000 A 
ATOM     18  C   UNL d   1      49.856  34.329  52.678  0.00  0.00     0.000 A 
ATOM     19  C   UNL d   1      50.518  34.495  53.132  0.00  0.00     0.001 A 
ENDBRANCH  13  14
ENDBRANCH  10  13
ENDBRANCH   1  10
BRANCH   2  20
ATOM     20  C   UNL d   1      53.642  31.441  53.776  0.00  0.00     0.142 C 
BRANCH  20  21
ATOM     21  C   UNL d   1      53.222  30.996  53.226  0.00  0.00     0.283 C 
ATOM     22  N   UNL d   1      53.078  30.195  53.366  0.00  0.00    -0.268 N 
ATOM     23  C   UNL d   1      52.655  29.741  52.814  0.00  0.00     0.102 C 
ATOM     24  C   UNL d   1      53.355  29.841  54.056  0.00  0.00     0.102 C 
ATOM     25  O   UNL d   1      52.946  31.350  52.537  0.00  0.00    -0.265 OA
ENDBRANCH  20  21
ENDBRANCH   2  20
TORSDOF 5
ENDMDL
MODEL 2
REMARK VINA RESULT:      -9.4      1.211      3.629
REMARK  5 active torsions:
REMARK  status: ('A' for Active; 'I' for Inactive)
REMARK    1  A    between atoms: S_2  and  C_1 
REMARK    2  A    between atoms: C_9  and  S_2 
REMARK    3  A    between atoms: C_8  and  N_3 
REMARK    4  A    between atoms: C_7  and  C_8 
REMARK       I    between atoms: N_12  and  C_7 
REMARK    5  A    between atoms: C_14  and  C_9 
ROOT
ATOM      1  C   UNL d   1      53.315  32.776  53.754  0.00  0.00     0.107 A 
ATOM      2  N   UNL d   1      52.464  33.790  53.610  0.00  0.00    -0.299 N 
ATOM      3  C   UNL d   1      52.615  33.013  53.379  0.00  0.00     0.092 A 
ATOM      4  C   UNL d   1      53.589  33.405  54.211  0.00  0.00     0.028 A 
ATOM      5  C   UNL d   1      53.059  34.035  54.120  0.00  0.00     0.065 A 
ATOM      6  C   UNL d   1      54.249  33.487  54.697  0.00  0.00     0.002 A 
ATOM      7  C   UNL d   1      53.198  34.743  54.519  0.00  0.00     0.018 A 
ATOM      8  C   UNL d   1      54.389  34.198  55.098  0.00  0.00     0.000 A 
ATOM      9  C   UNL d   1      53.857  34.825  55.004  0.00  0.00     0.002 A 
ENDROOT
BRANCH   1  10
ATOM     10  S   UNL d   1      53.677  32.032  53.681  0.00  0.00     0.212 S 
ATOM     11  O   UNL d   1      53.294  31.852  54.389  0.00  0.00    -0.217 OA
ATOM     12  O   UNL d   1      54.059  32.217  52.971  0.00  0.00    -0.217 OA
BRANCH  10  13
ATOM     13  C   UNL d   1      54.036  31.295  53.607  0.00  0.00     0.099 C 
BRANCH  13  14
ATOM     14  C   UNL d   1      53.574  30.618  53.549  0.00  0.00     0.011 A 
ATOM     15  C   UNL d   1      53.133  30.482  52.865  0.00  0.00     0.001 A 
ATOM     16  C   UNL d   1      52.665  29.794  52.809  0.00  0.00     0.000 A 
ATOM     17  C   UNL d   1      52.645  29.253  53.437  0.00  0.00     0.000 A 
ATOM     18  C   UNL d   1      53.092  29.403  54.115  0.00  0.00     0.000 A 
ATOM     19  C   UNL d   1      53.551  30.080  54.168  0.00  0.00     0.001 A 
ENDBRANCH  13  14
ENDBRANCH  10  13
ENDBRANCH   1  10
BRANCH   2  20
ATOM     20  C   UNL d   1      51.821  34.246  53.367  0.00  0.00     0.142 C 
BRANCH  20  21
ATOM     21  C   UNL d   1      51.491  34.129  52.622  0.00  0.00     0.283 C 
ATOM     22  N   UNL d   1      50.686  34.265  52.501  0.00  0.00    -0.268 N 
ATOM     23  C   UNL d   1      50.347  34.148  51.751  0.00  0.00     0.102 C 
ATOM     24  C   UNL d   1      50.212  34.519  53.125  0.00  0.00     0.102 C 
ATOM     25  O   UNL d   1      51.964  33.875  51.998  0.00  0.00    -0.265 OA
ENDBRANCH  20  21
ENDBRANCH   2  20
TORSDOF 5
ENDMDL
MODEL 3
REMARK VINA RESULT:      -8.3      1.372      3.968
REMARK  5 active torsions:
REMARK  status: ('A' for Active; 'I' for Inactive)
REMARK    1  A    between atoms: S_2  and  C_1 
REMARK    2  A    between atoms: C_9  and  S_2 
REMARK    3  A    between atoms: C_8  and  N_3 
REMARK    4  A    between atoms: C_7  and  C_8 
REMARK       I    between atoms: N_12  and  C_7 
REMARK    5  A    between atoms: C_14  and  C_9 
ROOT
ATOM      1  C   UNL d   1      52.797  32.552  53.209  0.00  0.00     0.107 A 
ATOM      2  N   UNL d   1      53.326  33.622  53.800  0.00  0.00    -0.299 N 
ATOM      3  C   UNL d   1      53.399  32.805  53.720  0.00  0.00     0.092 A 
ATOM      4  C   UNL d   1      52.360  33.213  52.979  0.00  0.00     0.028 A 
ATOM      5  C   UNL d   1      52.690  33.877  53.347  0.00  0.00     0.065 A 
ATOM      6  C   UNL d   1      51.707  33.296  52.485  0.00  0.00     0.002 A 
ATOM      7  C   UNL d   1      52.360  34.621  53.215  0.00  0.00     0.018 A 
ATOM      8  C   UNL d   1      51.374  34.043  52.351  0.00  0.00     0.000 A 
ATOM      9  C   UNL d   1      51.707  34.704  52.721  0.00  0.00     0.002 A 
ENDROOT
BRANCH   1  10
ATOM     10  S   UNL d   1      52.659  31.769  52.971  0.00  0.00     0.212 S 
ATOM     11  O   UNL d   1      53.340  31.860  52.515  0.00  0.00    -0.217 OA
ATOM     12  O   UNL d   1      51.977  31.682  53.431  0.00  0.00    -0.217 OA
BRANCH  10  13
ATOM     13  C   UNL d   1      52.522  30.992  52.736  0.00  0.00     0.099 C 
BRANCH  13  14
ATOM     14  C   UNL d   1      52.798  30.369  53.197  0.00  0.00     0.011 A 
ATOM     15  C   UNL d   1      53.607  30.211  53.226  0.00  0.00     0.001 A 
ATOM     16  C   UNL d   1      53.884  29.579  53.694  0.00  0.00     0.000 A 
ATOM     17  C   UNL d   1      53.347  29.115  54.125  0.00  0.00     0.000 A 
ATOM     18  C   UNL d   1      52.541  29.287  54.085  0.00  0.00     0.000 A 
ATOM     19  C   UNL d   1      52.271  29.909  53.624  0.00  0.00     0.001 A 
ENDBRANCH  13  14
ENDBRANCH  10  13
ENDBRANCH   1  10
BRANCH   2  20
ATOM     20  C   UNL d   1      53.813  34.104  54.259  0.00  0.00     0.142 C 
BRANCH  20  21
ATOM     21  C   UNL d   1      54.082  33.840  54.991  0.00  0.00     0.283 C 
ATOM     22  N   UNL d   1      54.881  33.907  55.186  0.00  0.00    -0.268 N 
ATOM     23  C   UNL d   1      55.159  33.642  55.923  0.00  0.00     0.102 C 
ATOM     24  C   UNL d   1      55.411  34.238  54.649  0.00  0.00     0.102 C 
ATOM     25  O   UNL d   1      53.554  33.509  55.528  0.00  0.00    -0.265 OA
ENDBRANCH  20  21
ENDBRANCH   2  20
TORSDOF 5
ENDMDL
MODEL 4
REMARK VINA RESULT:      -7.6      1.126      2.746
REMARK  5 active torsions:
REMARK  status: ('A' for Active; 'I' for Inactive)
REMARK    1  A    between atoms: S_2  and  C_1 
REMARK    2  A    between atoms: C_9  and  S_2 
REMARK    3  A    between atoms: C_8  and  N_3 
REMARK    4  A    between atoms: C_7  and  C_8 
REMARK       I    between atoms: N_12  and  C_7 
REMARK    5  A    between atoms: C_14  and  C_9 
ROOT
ATOM      1  C   UNL d   1      52.681  32.150  53.212  0.00  0.00     0.107 A 
ATOM      2  N   UNL d   1      53.846  32.155  53.858  0.00  0.00    -0.299 N 
ATOM      3  C   UNL d   1      53.238  32.640  53.584  0.00  0.00     0.092 A 
ATOM      4  C   UNL d   1      52.949  31.372  53.261  0.00  0.00     0.028 A 
ATOM      5  C   UNL d   1      53.673  31.377  53.663  0.00  0.00     0.065 A 
ATOM      6  C   UNL d   1      52.629  30.662  52.993  0.00  0.00     0.002 A 
ATOM      7  C   UNL d   1      54.070  30.666  53.792  0.00  0.00     0.018 A 
ATOM      8  C   UNL d   1      53.028  29.947  53.123  0.00  0.00     0.000 A 
ATOM      9  C   UNL d   1      53.751  29.956  53.524  0.00  0.00     0.002 A 
ENDROOT
BRANCH   1  10
ATOM     10  S   UNL d   1      51.976  32.403  52.854  0.00  0.00     0.212 S 
ATOM     11  O   UNL d   1      52.461  32.662  52.240  0.00  0.00    -0.217 OA
ATOM     12  O   UNL d   1      51.493  32.141  53.473  0.00  0.00    -0.217 OA
BRANCH  10  13
ATOM     13  C   UNL d   1      51.276  32.652  52.500  0.00  0.00     0.099 C 
BRANCH  13  14
ATOM     14  C   UNL d   1      50.995  33.413  52.638  0.00  0.00     0.011 A 
ATOM     15  C   UNL d   1      51.225  34.030  52.142  0.00  0.00     0.001 A 
ATOM     16  C   UNL d   1      50.938  34.799  52.285  0.00  0.00     0.000 A 
ATOM     17  C   UNL d   1      50.426  34.940  52.923  0.00  0.00     0.000 A 
ATOM     18  C   UNL d   1      50.206  34.311  53.411  0.00  0.00     0.000 A 
ATOM     19  C   UNL d   1      50.489  33.556  53.268  0.00  0.00     0.001 A 
ENDBRANCH  13  14
ENDBRANCH  10  13
ENDBRANCH   1  10
BRANCH   2  20
ATOM     20  C   UNL d   1      54.518  32.412  54.263  0.00  0.00     0.142 C 
BRANCH  20  21
ATOM     21  C   UNL d   1      54.447  32.959  54.874  0.00  0.00     0.283 C 
ATOM     22  N   UNL d   1      55.002  33.564  54.953  0.00  0.00    -0.268 N 
ATOM     23  C   UNL d   1      54.935  34.119  55.567  0.00  0.00     0.102 C 
ATOM     24  C   UNL d   1      55.628  33.622  54.421  0.00  0.00     0.102 C 
ATOM     25  O   UNL d   1      53.821  32.902  55.406  0.00  0.00    -0.265 OA
ENDBRANCH  20  21
ENDBRANCH   2  20
TORSDOF 5
ENDMDL
