MODEL 1
REMARK VINA RESULT:       3.9      0.000      0.000
REMARK  1 active torsions:
REMARK  status: ('A' for Active; 'I' for Inactive)
REMARK    1  A    between atoms: N_13  and  C_2 
ROOT
ATOM      1  C   UNL d   1     -41.506-121.679 -52.846  0.00  0.00     0.024 A 
ATOM      2  C   UNL d   1     -41.503-120.963 -52.434  0.00  0.00     0.138 A 
ATOM      3  C   UNL d   1     -41.375-120.957 -51.617  0.00  0.00     0.282 A 
ATOM      4  C   UNL d   1     -41.382-122.386 -52.443  0.00  0.00     0.021 A 
ATOM      5  N   UNL d   1     -41.251-121.669 -51.222  0.00  0.00    -0.271 N 
ATOM      6  C   UNL d   1     -41.254-122.386 -51.630  0.00  0.00     0.067 A 
ATOM      7  C   UNL d   1     -41.633-121.683 -53.657  0.00  0.00     0.005 A 
ATOM      8  C   UNL d   1     -41.387-123.104 -52.865  0.00  0.00     0.040 A 
ATOM      9  C   UNL d   1     -41.515-123.106 -53.681  0.00  0.00     0.196 A 
ATOM     10  C   UNL d   1     -41.638-122.394 -54.076  0.00  0.00     0.039 A 
ATOM     11  O   UNL d   1     -41.370-120.246 -51.199  0.00  0.00    -0.265 OA
ATOM     12  O   UNL d   1     -41.520-123.817 -54.100  0.00  0.00    -0.287 OA
ATOM     13  C   UNL d   1     -41.123-121.659 -50.402  0.00  0.00     0.102 C 
ATOM     14  C   UNL d   1     -41.130-123.087 -51.228  0.00  0.00     0.018 A 
ATOM     15  C   UNL d   1     -41.262-123.812 -52.460  0.00  0.00     0.003 A 
ATOM     16  C   UNL d   1     -41.757-120.970 -54.056  0.00  0.00     0.000 A 
ATOM     17  C   UNL d   1     -41.767-122.392 -54.893  0.00  0.00     0.003 A 
ATOM     18  C   UNL d   1     -41.133-123.815 -51.643  0.00  0.00     0.002 A 
ATOM     19  C   UNL d   1     -41.886-120.968 -54.869  0.00  0.00     0.000 A 
ATOM     20  C   UNL d   1     -41.890-121.679 -55.288  0.00  0.00     0.000 A 
ENDROOT
BRANCH   2  21
ATOM     21  N   UNL d   1     -41.626-120.255 -52.831  0.00  0.00    -0.238 NA
ATOM     22  C   UNL d   1     -41.145-119.603 -52.674  0.00  0.00     0.120 C 
ENDBRANCH   2  21
TORSDOF 1
ENDMDL
MODEL 2
REMARK VINA RESULT:       5.1      1.122      2.700
REMARK  1 active torsions:
REMARK  status: ('A' for Active; 'I' for Inactive)
REMARK    1  A    between atoms: N_13  and  C_2 
ROOT
ATOM      1  C   UNL d   1     -41.611-121.686 -52.912  0.00  0.00     0.024 A 
ATOM      2  C   UNL d   1     -41.773-120.973 -53.297  0.00  0.00     0.138 A 
ATOM      3  C   UNL d   1     -41.934-120.969 -54.108  0.00  0.00     0.282 A 
ATOM      4  C   UNL d   1     -41.610-122.391 -53.337  0.00  0.00     0.021 A 
ATOM      5  N   UNL d   1     -41.931-121.678 -54.525  0.00  0.00    -0.271 N 
ATOM      6  C   UNL d   1     -41.770-122.392 -54.145  0.00  0.00     0.067 A 
ATOM      7  C   UNL d   1     -41.452-121.690 -52.107  0.00  0.00     0.005 A 
ATOM      8  C   UNL d   1     -41.446-123.106 -52.943  0.00  0.00     0.040 A 
ATOM      9  C   UNL d   1     -41.286-123.108 -52.132  0.00  0.00     0.196 A 
ATOM     10  C   UNL d   1     -41.289-122.398 -51.716  0.00  0.00     0.039 A 
ATOM     11  O   UNL d   1     -42.096-120.260 -54.498  0.00  0.00    -0.265 OA
ATOM     12  O   UNL d   1     -41.124-123.816 -51.741  0.00  0.00    -0.287 OA
ATOM     13  C   UNL d   1     -42.092-121.669 -55.338  0.00  0.00     0.102 C 
ATOM     14  C   UNL d   1     -41.769-123.092 -54.568  0.00  0.00     0.018 A 
ATOM     15  C   UNL d   1     -41.446-123.813 -53.370  0.00  0.00     0.003 A 
ATOM     16  C   UNL d   1     -41.454-120.978 -51.686  0.00  0.00     0.000 A 
ATOM     17  C   UNL d   1     -41.129-122.395 -50.904  0.00  0.00     0.003 A 
ATOM     18  C   UNL d   1     -41.605-123.817 -54.181  0.00  0.00     0.002 A 
ATOM     19  C   UNL d   1     -41.295-120.976 -50.878  0.00  0.00     0.000 A 
ATOM     20  C   UNL d   1     -41.132-121.684 -50.487  0.00  0.00     0.000 A 
ENDROOT
BRANCH   2  21
ATOM     21  N   UNL d   1     -41.775-120.267 -52.877  0.00  0.00    -0.238 NA
ATOM     22  C   UNL d   1     -41.158-119.728 -52.973  0.00  0.00     0.120 C 
ENDBRANCH   2  21
TORSDOF 1
ENDMDL
