MODEL 1
REMARK VINA RESULT:      15.6      0.000      0.000
REMARK  4 active torsions:
REMARK  status: ('A' for Active; 'I' for Inactive)
REMARK    1  A    between atoms: N_2  and  S_1 
REMARK    2  A    between atoms: C_3  and  S_1 
REMARK    3  A    between atoms: C_4  and  N_2 
REMARK    4  A    between atoms: O_14  and  C_7 
ROOT
ATOM      1  S   UNL d   1      45.869 -16.745  44.723  0.00  0.00     0.285 S 
ATOM      2  O   UNL d   1      46.644 -16.575  44.955  0.00  0.00    -0.198 OA
ATOM      3  O   UNL d   1      45.078 -16.921  44.486  0.00  0.00    -0.198 OA
ENDROOT
BRANCH   1   4
ATOM      4  N   UNL d   1      46.036 -17.552  44.751  0.00  0.00    -0.156 NA
BRANCH   4   5
ATOM      5  C   UNL d   1      46.188 -17.967  44.058  0.00  0.00     0.116 A 
ATOM      6  C   UNL d   1      46.424 -18.757  44.081  0.00  0.00     0.112 A 
ATOM      7  C   UNL d   1      46.576 -19.173  43.389  0.00  0.00     0.026 A 
ATOM      8  C   UNL d   1      46.495 -18.808  42.656  0.00  0.00     0.002 A 
ATOM      9  C   UNL d   1      46.259 -18.017  42.626  0.00  0.00     0.002 A 
ATOM     10  C   UNL d   1      46.107 -17.602  43.319  0.00  0.00     0.022 A 
BRANCH   6  11
ATOM     11  O   UNL d   1      46.506 -19.131  44.843  0.00  0.00    -0.327 OA
ATOM     12  C   UNL d   1      46.609 -19.944  44.906  0.00  0.00     0.181 C 
ENDBRANCH   6  11
ENDBRANCH   4   5
ENDBRANCH   1   4
BRANCH   1  13
ATOM     13  C   UNL d   1      45.696 -15.921  44.693  0.00  0.00     0.105 A 
ATOM     14  C   UNL d   1      44.946 -15.652  44.930  0.00  0.00     0.014 A 
ATOM     15  C   UNL d   1      44.784 -14.841  44.898  0.00  0.00     0.012 A 
ATOM     16  C   UNL d   1      45.367 -14.297  44.631  0.00  0.00     0.058 A 
ATOM     17  C   UNL d   1      46.101 -14.575  44.401  0.00  0.00     0.012 A 
ATOM     18 CL   UNL d   1      45.257 -13.542  44.587  0.00  0.00    -0.082 Cl
ATOM     19  C   UNL d   1      46.279 -15.377  44.426  0.00  0.00     0.014 A 
ENDBRANCH   1  13
TORSDOF 4
ENDMDL
MODEL 2
REMARK VINA RESULT:      18.5      2.282      4.599
REMARK  4 active torsions:
REMARK  status: ('A' for Active; 'I' for Inactive)
REMARK    1  A    between atoms: N_2  and  S_1 
REMARK    2  A    between atoms: C_3  and  S_1 
REMARK    3  A    between atoms: C_4  and  N_2 
REMARK    4  A    between atoms: O_14  and  C_7 
ROOT
ATOM      1  S   UNL d   1      45.092 -14.867  44.218  0.00  0.00     0.285 S 
ATOM      2  O   UNL d   1      44.714 -15.018  43.498  0.00  0.00    -0.198 OA
ATOM      3  O   UNL d   1      45.477 -14.710  44.952  0.00  0.00    -0.198 OA
ENDROOT
BRANCH   1   4
ATOM      4  N   UNL d   1      44.800 -14.096  44.211  0.00  0.00    -0.156 NA
BRANCH   4   5
ATOM      5  C   UNL d   1      45.308 -13.459  44.320  0.00  0.00     0.116 A 
ATOM      6  C   UNL d   1      45.197 -12.754  43.908  0.00  0.00     0.112 A 
ATOM      7  C   UNL d   1      45.705 -12.117  44.016  0.00  0.00     0.026 A 
ATOM      8  C   UNL d   1      46.337 -12.172  44.539  0.00  0.00     0.002 A 
ATOM      9  C   UNL d   1      46.454 -12.876  44.955  0.00  0.00     0.002 A 
ATOM     10  C   UNL d   1      45.946 -13.512  44.846  0.00  0.00     0.022 A 
BRANCH   6  11
ATOM     11  O   UNL d   1      44.540 -12.702  43.367  0.00  0.00    -0.327 OA
ATOM     12  C   UNL d   1      44.545 -12.163  42.747  0.00  0.00     0.181 C 
ENDBRANCH   6  11
ENDBRANCH   4   5
ENDBRANCH   1   4
BRANCH   1  13
ATOM     13  C   UNL d   1      45.392 -15.654  44.227  0.00  0.00     0.105 A 
ATOM     14  C   UNL d   1      45.459 -16.075  43.513  0.00  0.00     0.014 A 
ATOM     15  C   UNL d   1      45.755 -16.848  43.532  0.00  0.00     0.012 A 
ATOM     16  C   UNL d   1      45.984 -17.202  44.259  0.00  0.00     0.058 A 
ATOM     17  C   UNL d   1      45.914 -16.777  44.954  0.00  0.00     0.012 A 
ATOM     18 CL   UNL d   1      46.262 -17.912  44.318  0.00  0.00    -0.082 Cl
ATOM     19  C   UNL d   1      45.622 -16.009  44.955  0.00  0.00     0.014 A 
ENDBRANCH   1  13
TORSDOF 4
ENDMDL
