MODEL 1
REMARK VINA RESULT:      42.3      0.000      0.000
REMARK  4 active torsions:
REMARK  status: ('A' for Active; 'I' for Inactive)
REMARK       I    between atoms: N_3  and  C_1 
REMARK    1  A    between atoms: C_9  and  C_1 
REMARK    2  A    between atoms: C_2  and  N_3 
REMARK    3  A    between atoms: O_15  and  C_6 
REMARK    4  A    between atoms: O_16  and  C_8 
ROOT
ATOM      1  C   UNL d   1     -51.517  25.118  33.307  0.00  0.00     0.109 A 
ATOM      2  C   UNL d   1     -52.328  25.246  33.308  0.00  0.00     0.046 A 
ATOM      3  C   UNL d   1     -51.735  23.702  33.309  0.00  0.00     0.039 A 
ATOM      4  C   UNL d   1     -51.222  24.338  33.308  0.00  0.00     0.113 A 
ATOM      5  C   UNL d   1     -52.562  23.832  33.310  0.00  0.00     0.082 A 
ATOM      6  C   UNL d   1     -52.850  24.606  33.309  0.00  0.00     0.106 A 
ATOM      7 CL   UNL d   1     -53.082  23.189  33.312  0.00  0.00    -0.080 Cl
ENDROOT
BRANCH   1   8
ATOM      8  N   UNL d   1     -50.999  25.758  33.306  0.00  0.00    -0.206 NA
ATOM      9  C   UNL d   1     -51.095  26.364  33.854  0.00  0.00     0.279 C 
ATOM     10  O   UNL d   1     -51.709  26.330  34.404  0.00  0.00    -0.265 OA
BRANCH   9  11
ATOM     11  C   UNL d   1     -50.582  27.006  33.859  0.00  0.00     0.058 A 
ATOM     12  C   UNL d   1     -50.685  27.624  33.323  0.00  0.00     0.006 A 
ATOM     13  C   UNL d   1     -50.171  28.271  33.326  0.00  0.00     0.012 A 
ATOM     14  C   UNL d   1     -49.553  28.292  33.873  0.00  0.00     0.058 A 
ATOM     15  C   UNL d   1     -49.447  27.674  34.411  0.00  0.00     0.012 A 
ATOM     16 CL   UNL d   1     -49.034  28.935  33.883  0.00  0.00    -0.082 Cl
ATOM     17  C   UNL d   1     -49.965  27.035  34.399  0.00  0.00     0.006 A 
ENDBRANCH   9  11
ENDBRANCH   1   8
BRANCH   4  18
ATOM     18  O   UNL d   1     -50.407  24.214  33.307  0.00  0.00    -0.327 OA
ATOM     19  C   UNL d   1     -50.052  23.827  33.945  0.00  0.00     0.181 C 
ENDBRANCH   4  18
BRANCH   6  20
ATOM     20  O   UNL d   1     -53.672  24.736  33.310  0.00  0.00    -0.327 OA
ATOM     21  C   UNL d   1     -54.144  24.307  33.827  0.00  0.00     0.181 C 
ENDBRANCH   6  20
TORSDOF 4
ENDMDL
