MODEL 1
REMARK VINA RESULT:       3.8      0.000      0.000
REMARK  4 active torsions:
REMARK  status: ('A' for Active; 'I' for Inactive)
REMARK    1  A    between atoms: N_5  and  C_1 
REMARK    2  A    between atoms: S_2  and  N_5 
REMARK    3  A    between atoms: C_7  and  S_2 
REMARK    4  A    between atoms: N_10  and  C_3 
ROOT
ATOM      1  C   UNL d   1     -41.661-122.435 -52.186  0.00  0.00     0.146 A 
ATOM      2  C   UNL d   1     -41.444-121.707 -52.509  0.00  0.00     0.105 A 
ATOM      3  C   UNL d   1     -41.345-121.642 -53.324  0.00  0.00     0.208 A 
ATOM      4  C   UNL d   1     -41.778-123.095 -52.671  0.00  0.00     0.215 A 
ATOM      5  C   UNL d   1     -41.458-122.290 -53.810  0.00  0.00     0.043 A 
ATOM      6  C   UNL d   1     -41.675-123.017 -53.487  0.00  0.00     0.044 A 
ATOM      7  O   UNL d   1     -41.128-120.915 -53.647  0.00  0.00    -0.285 OA
ATOM      8  O   UNL d   1     -41.995-123.816 -52.333  0.00  0.00    -0.285 OA
ATOM      9  C   UNL d   1     -41.359-122.225 -54.624  0.00  0.00     0.003 A 
ATOM     10  C   UNL d   1     -41.789-123.665 -53.973  0.00  0.00     0.003 A 
ATOM     11  C   UNL d   1     -41.474-122.882 -55.110  0.00  0.00     0.000 A 
ATOM     12  C   UNL d   1     -41.689-123.600 -54.787  0.00  0.00     0.000 A 
ENDROOT
BRANCH   1  13
ATOM     13  N   UNL d   1     -41.764-122.511 -51.367  0.00  0.00    -0.154 NA
BRANCH  13  14
ATOM     14  S   UNL d   1     -41.458-123.163 -50.964  0.00  0.00     0.291 S 
ATOM     15  O   UNL d   1     -41.126-123.441 -51.666  0.00  0.00    -0.198 OA
ATOM     16  O   UNL d   1     -41.151-123.816 -50.565  0.00  0.00    -0.198 OA
BRANCH  14  17
ATOM     17  C   UNL d   1     -41.792-122.881 -50.264  0.00  0.00     0.135 A 
ATOM     18  S   UNL d   1     -42.536-122.927 -49.918  0.00  0.00    -0.073 SA
ATOM     19  C   UNL d   1     -42.506-122.519 -49.198  0.00  0.00     0.036 A 
ATOM     20  C   UNL d   1     -41.746-122.223 -49.102  0.00  0.00     0.008 A 
ATOM     21  C   UNL d   1     -41.299-122.446 -49.762  0.00  0.00     0.020 A 
ENDBRANCH  14  17
ENDBRANCH  13  14
ENDBRANCH   1  13
BRANCH   2  22
ATOM     22  N   UNL d   1     -41.331-121.057 -52.016  0.00  0.00    -0.201 NA
ATOM     23  C   UNL d   1     -41.275-120.417 -52.153  0.00  0.00     0.082 A 
ATOM     24  C   UNL d   1     -41.134-119.594 -51.555  0.00  0.00     0.136 A 
ATOM     25  O   UNL d   1     -41.133-119.013 -52.230  0.00  0.00    -0.301 OA
ATOM     26  C   UNL d   1     -41.184-119.655 -52.042  0.00  0.00     0.136 A 
ATOM     27  C   UNL d   1     -41.336-120.556 -52.659  0.00  0.00     0.082 A 
ENDBRANCH   2  22
TORSDOF 4
ENDMDL
