MODEL 1
REMARK VINA RESULT:      -2.6      0.000      0.000
REMARK  2 active torsions:
REMARK  status: ('A' for Active; 'I' for Inactive)
REMARK    1  A    between atoms: S_6  and  C_1 
REMARK    2  A    between atoms: C_7  and  S_6 
ROOT
ATOM      1  C   UNL d   1      32.717  23.061 -18.793  0.00  0.00     0.194 A 
ATOM      2  N   UNL d   1      33.142  22.417 -19.148  0.00  0.00    -0.220 NA
ATOM      3  N   UNL d   1      32.321  23.458 -19.394  0.00  0.00    -0.220 NA
ATOM      4  C   UNL d   1      32.995  22.439 -19.942  0.00  0.00     0.101 A 
ATOM      5  C   UNL d   1      32.476  23.097 -20.098  0.00  0.00     0.101 A 
ATOM      6  C   UNL d   1      33.237  21.975 -20.597  0.00  0.00     0.021 A 
ATOM      7  C   UNL d   1      32.232  23.255 -20.869  0.00  0.00     0.021 A 
ATOM      8  C   UNL d   1      32.488  22.777 -21.491  0.00  0.00     0.002 A 
ATOM      9  C   UNL d   1      32.991  22.139 -21.340  0.00  0.00     0.002 A 
ENDROOT
BRANCH   1  10
ATOM     10  S   UNL d   1      32.963  22.902 -18.021  0.00  0.00    -0.049 SA
BRANCH  10  11
ATOM     11  C   UNL d   1      32.705  23.380 -17.400  0.00  0.00     0.032 C 
ATOM     12  C   UNL d   1      33.241  23.637 -16.828  0.00  0.00     0.007 C 
ATOM     13  C   UNL d   1      31.977  23.701 -17.181  0.00  0.00     0.007 C 
ENDBRANCH  10  11
ENDBRANCH   1  10
TORSDOF 2
ENDMDL
MODEL 2
REMARK VINA RESULT:      -2.6      7.187      8.431
REMARK  2 active torsions:
REMARK  status: ('A' for Active; 'I' for Inactive)
REMARK    1  A    between atoms: S_6  and  C_1 
REMARK    2  A    between atoms: C_7  and  S_6 
ROOT
ATOM      1  C   UNL d   1      30.904  16.893 -24.066  0.00  0.00     0.194 A 
ATOM      2  N   UNL d   1      30.807  16.193 -23.597  0.00  0.00    -0.220 NA
ATOM      3  N   UNL d   1      30.154  17.149 -24.287  0.00  0.00    -0.220 NA
ATOM      4  C   UNL d   1      30.014  16.044 -23.545  0.00  0.00     0.101 A 
ATOM      5  C   UNL d   1      29.602  16.648 -23.981  0.00  0.00     0.101 A 
ATOM      6  C   UNL d   1      29.551  15.453 -23.172  0.00  0.00     0.021 A 
ATOM      7  C   UNL d   1      28.779  16.636 -24.024  0.00  0.00     0.021 A 
ATOM      8  C   UNL d   1      28.354  16.038 -23.645  0.00  0.00     0.002 A 
ATOM      9  C   UNL d   1      28.754  15.453 -23.222  0.00  0.00     0.002 A 
ENDROOT
BRANCH   1  10
ATOM     10  S   UNL d   1      31.728  16.905 -24.023  0.00  0.00    -0.049 SA
BRANCH  10  11
ATOM     11  C   UNL d   1      32.147  17.548 -24.326  0.00  0.00     0.032 C 
ATOM     12  C   UNL d   1      32.555  18.052 -23.815  0.00  0.00     0.007 C 
ATOM     13  C   UNL d   1      32.278  17.847 -25.083  0.00  0.00     0.007 C 
ENDBRANCH  10  11
ENDBRANCH   1  10
TORSDOF 2
ENDMDL
MODEL 3
REMARK VINA RESULT:      -2.6      7.451      8.297
REMARK  2 active torsions:
REMARK  status: ('A' for Active; 'I' for Inactive)
REMARK    1  A    between atoms: S_6  and  C_1 
REMARK    2  A    between atoms: C_7  and  S_6 
ROOT
ATOM      1  C   UNL d   1      30.286  16.498 -23.929  0.00  0.00     0.194 A 
ATOM      2  N   UNL d   1      30.972  16.204 -23.526  0.00  0.00    -0.220 NA
ATOM      3  N   UNL d   1      30.502  17.196 -24.309  0.00  0.00    -0.220 NA
ATOM      4  C   UNL d   1      31.577  16.720 -23.667  0.00  0.00     0.101 A 
ATOM      5  C   UNL d   1      31.280  17.347 -24.162  0.00  0.00     0.101 A 
ATOM      6  C   UNL d   1      32.383  16.757 -23.439  0.00  0.00     0.021 A 
ATOM      7  C   UNL d   1      31.781  17.958 -24.397  0.00  0.00     0.021 A 
ATOM      8  C   UNL d   1      32.570  17.963 -24.154  0.00  0.00     0.002 A 
ATOM      9  C   UNL d   1      32.857  17.355 -23.675  0.00  0.00     0.002 A 
ENDROOT
BRANCH   1  10
ATOM     10  S   UNL d   1      29.786  15.886 -23.693  0.00  0.00    -0.049 SA
BRANCH  10  11
ATOM     11  C   UNL d   1      28.975  15.935 -23.846  0.00  0.00     0.032 C 
ATOM     12  C   UNL d   1      28.634  15.453 -24.422  0.00  0.00     0.007 C 
ATOM     13  C   UNL d   1      28.356  16.385 -23.539  0.00  0.00     0.007 C 
ENDBRANCH  10  11
ENDBRANCH   1  10
TORSDOF 2
ENDMDL
MODEL 4
REMARK VINA RESULT:      -2.5      1.995      3.667
REMARK  2 active torsions:
REMARK  status: ('A' for Active; 'I' for Inactive)
REMARK    1  A    between atoms: S_6  and  C_1 
REMARK    2  A    between atoms: C_7  and  S_6 
ROOT
ATOM      1  C   UNL d   1      32.890  21.282 -21.435  0.00  0.00     0.194 A 
ATOM      2  N   UNL d   1      33.070  21.462 -20.626  0.00  0.00    -0.220 NA
ATOM      3  N   UNL d   1      32.486  21.928 -21.748  0.00  0.00    -0.220 NA
ATOM      4  C   UNL d   1      32.777  22.199 -20.469  0.00  0.00     0.101 A 
ATOM      5  C   UNL d   1      32.408  22.493 -21.179  0.00  0.00     0.101 A 
ATOM      6  C   UNL d   1      32.765  22.695 -19.794  0.00  0.00     0.021 A 
ATOM      7  C   UNL d   1      32.058  23.239 -21.183  0.00  0.00     0.021 A 
ATOM      8  C   UNL d   1      32.065  23.702 -20.499  0.00  0.00     0.002 A 
ATOM      9  C   UNL d   1      32.423  23.417 -19.812  0.00  0.00     0.002 A 
ENDROOT
BRANCH   1  10
ATOM     10  S   UNL d   1      33.240  20.535 -21.431  0.00  0.00    -0.049 SA
BRANCH  10  11
ATOM     11  C   UNL d   1      33.232  20.073 -22.115  0.00  0.00     0.032 C 
ATOM     12  C   UNL d   1      33.217  19.250 -22.056  0.00  0.00     0.007 C 
ATOM     13  C   UNL d   1      33.237  20.237 -22.923  0.00  0.00     0.007 C 
ENDBRANCH  10  11
ENDBRANCH   1  10
TORSDOF 2
ENDMDL
MODEL 5
REMARK VINA RESULT:      -2.4      4.034      5.190
REMARK  2 active torsions:
REMARK  status: ('A' for Active; 'I' for Inactive)
REMARK    1  A    between atoms: S_6  and  C_1 
REMARK    2  A    between atoms: C_7  and  S_6 
ROOT
ATOM      1  C   UNL d   1      33.079  19.704 -22.438  0.00  0.00     0.194 A 
ATOM      2  N   UNL d   1      33.205  18.908 -22.175  0.00  0.00    -0.220 NA
ATOM      3  N   UNL d   1      32.966  19.681 -23.253  0.00  0.00    -0.220 NA
ATOM      4  C   UNL d   1      33.166  18.428 -22.824  0.00  0.00     0.101 A 
ATOM      5  C   UNL d   1      33.015  18.917 -23.505  0.00  0.00     0.101 A 
ATOM      6  C   UNL d   1      33.241  17.603 -22.949  0.00  0.00     0.021 A 
ATOM      7  C   UNL d   1      32.947  18.573 -24.251  0.00  0.00     0.021 A 
ATOM      8  C   UNL d   1      33.026  17.756 -24.339  0.00  0.00     0.002 A 
ATOM      9  C   UNL d   1      33.173  17.283 -23.679  0.00  0.00     0.002 A 
ENDROOT
BRANCH   1  10
ATOM     10  S   UNL d   1      33.146  20.047 -21.691  0.00  0.00    -0.049 SA
BRANCH  10  11
ATOM     11  C   UNL d   1      32.962  20.845 -21.585  0.00  0.00     0.032 C 
ATOM     12  C   UNL d   1      32.377  21.065 -21.046  0.00  0.00     0.007 C 
ATOM     13  C   UNL d   1      33.238  21.550 -21.912  0.00  0.00     0.007 C 
ENDBRANCH  10  11
ENDBRANCH   1  10
TORSDOF 2
ENDMDL
MODEL 6
REMARK VINA RESULT:      -2.4      3.081      4.796
REMARK  2 active torsions:
REMARK  status: ('A' for Active; 'I' for Inactive)
REMARK    1  A    between atoms: S_6  and  C_1 
REMARK    2  A    between atoms: C_7  and  S_6 
ROOT
ATOM      1  C   UNL d   1      33.065  19.976 -22.298  0.00  0.00     0.194 A 
ATOM      2  N   UNL d   1      33.215  20.754 -22.602  0.00  0.00    -0.220 NA
ATOM      3  N   UNL d   1      32.841  20.056 -21.511  0.00  0.00    -0.220 NA
ATOM      4  C   UNL d   1      33.079  21.279 -22.003  0.00  0.00     0.101 A 
ATOM      5  C   UNL d   1      32.843  20.838 -21.313  0.00  0.00     0.101 A 
ATOM      6  C   UNL d   1      33.123  22.113 -21.932  0.00  0.00     0.021 A 
ATOM      7  C   UNL d   1      32.668  21.233 -20.611  0.00  0.00     0.021 A 
ATOM      8  C   UNL d   1      32.721  22.056 -20.576  0.00  0.00     0.002 A 
ATOM      9  C   UNL d   1      32.950  22.484 -21.245  0.00  0.00     0.002 A 
ENDROOT
BRANCH   1  10
ATOM     10  S   UNL d   1      33.241  19.581 -23.001  0.00  0.00    -0.049 SA
BRANCH  10  11
ATOM     11  C   UNL d   1      33.104  18.769 -23.062  0.00  0.00     0.032 C 
ATOM     12  C   UNL d   1      32.769  18.457 -23.749  0.00  0.00     0.007 C 
ATOM     13  C   UNL d   1      33.229  18.122 -22.564  0.00  0.00     0.007 C 
ENDBRANCH  10  11
ENDBRANCH   1  10
TORSDOF 2
ENDMDL
MODEL 7
REMARK VINA RESULT:      -2.4      5.798      7.036
REMARK  2 active torsions:
REMARK  status: ('A' for Active; 'I' for Inactive)
REMARK    1  A    between atoms: S_6  and  C_1 
REMARK    2  A    between atoms: C_7  and  S_6 
ROOT
ATOM      1  C   UNL d   1      32.453  18.097 -23.470  0.00  0.00     0.194 A 
ATOM      2  N   UNL d   1      32.653  17.301 -23.253  0.00  0.00    -0.220 NA
ATOM      3  N   UNL d   1      31.790  18.062 -23.956  0.00  0.00    -0.220 NA
ATOM      4  C   UNL d   1      32.117  16.811 -23.606  0.00  0.00     0.101 A 
ATOM      5  C   UNL d   1      31.571  17.292 -24.050  0.00  0.00     0.101 A 
ATOM      6  C   UNL d   1      32.000  15.981 -23.620  0.00  0.00     0.021 A 
ATOM      7  C   UNL d   1      30.958  16.937 -24.472  0.00  0.00     0.021 A 
ATOM      8  C   UNL d   1      30.872  16.116 -24.464  0.00  0.00     0.002 A 
ATOM      9  C   UNL d   1      31.401  15.650 -24.033  0.00  0.00     0.002 A 
ENDROOT
BRANCH   1  10
ATOM     10  S   UNL d   1      33.067  18.451 -23.048  0.00  0.00    -0.049 SA
BRANCH  10  11
ATOM     11  C   UNL d   1      33.154  19.272 -23.059  0.00  0.00     0.032 C 
ATOM     12  C   UNL d   1      33.167  19.695 -22.350  0.00  0.00     0.007 C 
ATOM     13  C   UNL d   1      33.241  19.837 -23.655  0.00  0.00     0.007 C 
ENDBRANCH  10  11
ENDBRANCH   1  10
TORSDOF 2
ENDMDL
MODEL 8
REMARK VINA RESULT:      -2.3      2.534      3.493
REMARK  2 active torsions:
REMARK  status: ('A' for Active; 'I' for Inactive)
REMARK    1  A    between atoms: S_6  and  C_1 
REMARK    2  A    between atoms: C_7  and  S_6 
ROOT
ATOM      1  C   UNL d   1      32.812  21.190 -21.495  0.00  0.00     0.194 A 
ATOM      2  N   UNL d   1      32.782  20.360 -21.319  0.00  0.00    -0.220 NA
ATOM      3  N   UNL d   1      32.974  21.267 -22.298  0.00  0.00    -0.220 NA
ATOM      4  C   UNL d   1      32.923  19.961 -22.007  0.00  0.00     0.101 A 
ATOM      5  C   UNL d   1      33.044  20.534 -22.626  0.00  0.00     0.101 A 
ATOM      6  C   UNL d   1      32.970  19.151 -22.217  0.00  0.00     0.021 A 
ATOM      7  C   UNL d   1      33.201  20.283 -23.395  0.00  0.00     0.021 A 
ATOM      8  C   UNL d   1      33.241  19.477 -23.567  0.00  0.00     0.002 A 
ATOM      9  C   UNL d   1      33.123  18.921 -22.967  0.00  0.00     0.002 A 
ENDROOT
BRANCH   1  10
ATOM     10  S   UNL d   1      32.655  21.440 -20.724  0.00  0.00    -0.049 SA
BRANCH  10  11
ATOM     11  C   UNL d   1      32.641  22.247 -20.548  0.00  0.00     0.032 C 
ATOM     12  C   UNL d   1      33.197  22.565 -20.028  0.00  0.00     0.007 C 
ATOM     13  C   UNL d   1      32.168  22.882 -20.781  0.00  0.00     0.007 C 
ENDBRANCH  10  11
ENDBRANCH   1  10
TORSDOF 2
ENDMDL
MODEL 9
REMARK VINA RESULT:      -2.3      0.878      3.153
REMARK  2 active torsions:
REMARK  status: ('A' for Active; 'I' for Inactive)
REMARK    1  A    between atoms: S_6  and  C_1 
REMARK    2  A    between atoms: C_7  and  S_6 
ROOT
ATOM      1  C   UNL d   1      32.716  23.007 -19.665  0.00  0.00     0.194 A 
ATOM      2  N   UNL d   1      33.205  22.580 -19.118  0.00  0.00    -0.220 NA
ATOM      3  N   UNL d   1      32.209  23.483 -19.225  0.00  0.00    -0.220 NA
ATOM      4  C   UNL d   1      32.987  22.803 -18.373  0.00  0.00     0.101 A 
ATOM      5  C   UNL d   1      32.358  23.373 -18.440  0.00  0.00     0.101 A 
ATOM      6  C   UNL d   1      33.241  22.597 -17.601  0.00  0.00     0.021 A 
ATOM      7  C   UNL d   1      32.023  23.700 -17.761  0.00  0.00     0.021 A 
ATOM      8  C   UNL d   1      32.297  23.475 -17.016  0.00  0.00     0.002 A 
ATOM      9  C   UNL d   1      32.907  22.922 -16.951  0.00  0.00     0.002 A 
ENDROOT
BRANCH   1  10
ATOM     10  S   UNL d   1      33.051  22.680 -20.344  0.00  0.00    -0.049 SA
BRANCH  10  11
ATOM     11  C   UNL d   1      32.777  22.906 -21.089  0.00  0.00     0.032 C 
ATOM     12  C   UNL d   1      32.677  22.340 -21.681  0.00  0.00     0.007 C 
ATOM     13  C   UNL d   1      32.553  23.623 -21.430  0.00  0.00     0.007 C 
ENDBRANCH  10  11
ENDBRANCH   1  10
TORSDOF 2
ENDMDL
