MODEL 1
REMARK VINA RESULT:      60.4      0.000      0.000
REMARK  4 active torsions:
REMARK  status: ('A' for Active; 'I' for Inactive)
REMARK    1  A    between atoms: C_15  and  C_2 
REMARK    2  A    between atoms: C_5  and  S_13 
REMARK       I    between atoms: C_11  and  N_8 
REMARK    3  A    between atoms: C_18  and  C_11 
REMARK    4  A    between atoms: S_13  and  C_18 
ROOT
ATOM      1  N   UNL d   1     -50.706  27.802  33.516  0.00  0.00    -0.272 N 
ATOM      2  C   UNL d   1     -50.352  28.535  33.557  0.00  0.00     0.271 C 
ATOM      3  C   UNL d   1     -51.405  26.310  33.439  0.00  0.00     0.023 A 
ATOM      4  C   UNL d   1     -51.508  27.724  33.346  0.00  0.00     0.083 A 
ATOM      5  C   UNL d   1     -50.248  27.122  33.649  0.00  0.00     0.083 A 
ATOM      6  O   UNL d   1     -50.792  29.207  33.428  0.00  0.00    -0.266 OA
ATOM      7  C   UNL d   1     -51.858  26.977  33.308  0.00  0.00     0.021 A 
ATOM      8  C   UNL d   1     -50.606  26.377  33.609  0.00  0.00     0.021 A 
ENDROOT
BRANCH   2   9
ATOM      9  C   UNL d   1     -49.541  28.599  33.729  0.00  0.00     0.099 C 
BRANCH   9  10
ATOM     10  S   UNL d   1     -49.210  29.342  33.877  0.00  0.00    -0.054 SA
BRANCH  10  11
ATOM     11  C   UNL d   1     -48.572  29.425  34.413  0.00  0.00     0.164 A 
ATOM     12  S   UNL d   1     -48.064  30.072  34.468  0.00  0.00    -0.039 SA
ATOM     13  C   UNL d   1     -47.516  29.914  35.075  0.00  0.00     0.134 A 
ATOM     14  C   UNL d   1     -46.900  30.420  35.320  0.00  0.00     0.030 C 
ATOM     15  N   UNL d   1     -47.692  29.164  35.395  0.00  0.00    -0.140 NA
ATOM     16  N   UNL d   1     -48.351  28.858  34.983  0.00  0.00    -0.134 NA
ENDBRANCH  10  11
ENDBRANCH   9  10
ENDBRANCH   2   9
BRANCH   3  17
ATOM     17  C   UNL d   1     -51.745  25.570  33.402  0.00  0.00     0.110 A 
ATOM     18  N   UNL d   1     -52.544  25.415  33.368  0.00  0.00    -0.126 NA
ATOM     19  O   UNL d   1     -52.652  24.596  33.337  0.00  0.00    -0.211 OA
ATOM     20  C   UNL d   1     -51.916  24.252  33.352  0.00  0.00     0.127 A 
ATOM     21  C   UNL d   1     -51.668  23.465  33.335  0.00  0.00     0.029 A 
ATOM     22  C   UNL d   1     -51.349  24.855  33.393  0.00  0.00     0.047 A 
ATOM     23  C   UNL d   1     -50.878  23.283  33.358  0.00  0.00     0.032 A 
ATOM     24  C   UNL d   1     -50.301  23.879  33.399  0.00  0.00     0.140 A 
ATOM     25  C   UNL d   1     -50.559  24.673  33.416  0.00  0.00     0.033 A 
ATOM     26  F   UNL d   1     -49.511  23.696  33.422  0.00  0.00    -0.204 F 
ENDBRANCH   3  17
TORSDOF 4
ENDMDL
