MODEL 1
REMARK VINA RESULT:      -5.9      0.000      0.000
REMARK  1 active torsions:
REMARK  status: ('A' for Active; 'I' for Inactive)
REMARK    1  A    between atoms: C_6  and  C_1 
ROOT
ATOM      1  C   UNL d   1      57.274  -0.307  31.221  0.00  0.00     0.111 A 
ATOM      2  N   UNL d   1      56.942  -0.995  31.533  0.00  0.00    -0.239 NA
ATOM      3  S   UNL d   1      56.993   0.347  31.654  0.00  0.00    -0.066 SA
ATOM      4  C   UNL d   1      56.455  -0.770  32.157  0.00  0.00     0.088 A 
ATOM      5  C   UNL d   1      56.487   0.051  32.231  0.00  0.00     0.049 A 
ATOM      6  C   UNL d   1      55.979  -1.213  32.678  0.00  0.00     0.020 A 
ATOM      7  C   UNL d   1      56.042   0.424  32.826  0.00  0.00     0.008 A 
ATOM      8  C   UNL d   1      55.566  -0.015  33.347  0.00  0.00     0.001 A 
ATOM      9  C   UNL d   1      55.534  -0.836  33.273  0.00  0.00     0.002 A 
ENDROOT
BRANCH   1  10
ATOM     10  C   UNL d   1      57.789  -0.216  30.606  0.00  0.00     0.025 A 
ATOM     11  C   UNL d   1      58.117  -0.876  30.188  0.00  0.00     0.023 A 
ATOM     12  C   UNL d   1      58.629  -0.775  29.576  0.00  0.00     0.103 A 
ATOM     13  N   UNL d   1      58.923  -1.448  29.199  0.00  0.00    -0.148 N 
ATOM     14  C   UNL d   1      58.844   0.019  29.345  0.00  0.00     0.021 A 
ATOM     15  C   UNL d   1      58.535   0.664  29.740  0.00  0.00     0.002 A 
ATOM     16  C   UNL d   1      58.014   0.536  30.361  0.00  0.00     0.002 A 
ENDBRANCH   1  10
TORSDOF 1
ENDMDL
MODEL 2
REMARK VINA RESULT:      -5.7      0.923      3.600
REMARK  1 active torsions:
REMARK  status: ('A' for Active; 'I' for Inactive)
REMARK    1  A    between atoms: C_6  and  C_1 
ROOT
ATOM      1  C   UNL d   1      57.427   0.071  31.227  0.00  0.00     0.111 A 
ATOM      2  N   UNL d   1      57.410  -0.174  30.439  0.00  0.00    -0.239 NA
ATOM      3  S   UNL d   1      58.160   0.436  31.378  0.00  0.00    -0.066 SA
ATOM      4  C   UNL d   1      58.130   0.038  30.101  0.00  0.00     0.088 A 
ATOM      5  C   UNL d   1      58.589   0.411  30.676  0.00  0.00     0.049 A 
ATOM      6  C   UNL d   1      58.433  -0.062  29.332  0.00  0.00     0.020 A 
ATOM      7  C   UNL d   1      59.349   0.682  30.479  0.00  0.00     0.008 A 
ATOM      8  C   UNL d   1      59.655   0.584  29.712  0.00  0.00     0.001 A 
ATOM      9  C   UNL d   1      59.196   0.211  29.137  0.00  0.00     0.002 A 
ENDROOT
BRANCH   1  10
ATOM     10  C   UNL d   1      56.865  -0.001  31.801  0.00  0.00     0.025 A 
ATOM     11  C   UNL d   1      56.635  -0.751  32.119  0.00  0.00     0.023 A 
ATOM     12  C   UNL d   1      56.073  -0.813  32.692  0.00  0.00     0.103 A 
ATOM     13  N   UNL d   1      55.882  -1.567  32.971  0.00  0.00    -0.148 N 
ATOM     14  C   UNL d   1      55.702  -0.101  32.984  0.00  0.00     0.021 A 
ATOM     15  C   UNL d   1      55.915   0.629  32.686  0.00  0.00     0.002 A 
ATOM     16  C   UNL d   1      56.490   0.666  32.102  0.00  0.00     0.002 A 
ENDBRANCH   1  10
TORSDOF 1
ENDMDL
MODEL 3
REMARK VINA RESULT:      -4.4      0.912      3.646
REMARK  1 active torsions:
REMARK  status: ('A' for Active; 'I' for Inactive)
REMARK    1  A    between atoms: C_6  and  C_1 
ROOT
ATOM      1  C   UNL d   1      56.933  -0.113  31.839  0.00  0.00     0.111 A 
ATOM      2  N   UNL d   1      57.162  -0.806  31.454  0.00  0.00    -0.239 NA
ATOM      3  S   UNL d   1      57.201   0.540  31.395  0.00  0.00    -0.066 SA
ATOM      4  C   UNL d   1      57.570  -0.587  30.775  0.00  0.00     0.088 A 
ATOM      5  C   UNL d   1      57.593   0.237  30.739  0.00  0.00     0.049 A 
ATOM      6  C   UNL d   1      57.929  -1.036  30.173  0.00  0.00     0.020 A 
ATOM      7  C   UNL d   1      57.977   0.607  30.101  0.00  0.00     0.008 A 
ATOM      8  C   UNL d   1      58.337   0.161  29.498  0.00  0.00     0.001 A 
ATOM      9  C   UNL d   1      58.313  -0.663  29.534  0.00  0.00     0.002 A 
ENDROOT
BRANCH   1  10
ATOM     10  C   UNL d   1      56.522  -0.016  32.526  0.00  0.00     0.025 A 
ATOM     11  C   UNL d   1      55.838  -0.479  32.714  0.00  0.00     0.023 A 
ATOM     12  C   UNL d   1      55.433  -0.375  33.402  0.00  0.00     0.103 A 
ATOM     13  N   UNL d   1      54.773  -0.850  33.541  0.00  0.00    -0.148 N 
ATOM     14  C   UNL d   1      55.704   0.218  33.953  0.00  0.00     0.021 A 
ATOM     15  C   UNL d   1      56.363   0.672  33.784  0.00  0.00     0.002 A 
ATOM     16  C   UNL d   1      56.758   0.547  33.076  0.00  0.00     0.002 A 
ENDBRANCH   1  10
TORSDOF 1
ENDMDL
MODEL 4
REMARK VINA RESULT:      -3.6      1.306      1.747
REMARK  1 active torsions:
REMARK  status: ('A' for Active; 'I' for Inactive)
REMARK    1  A    between atoms: C_6  and  C_1 
ROOT
ATOM      1  C   UNL d   1      57.119   0.527  32.505  0.00  0.00     0.111 A 
ATOM      2  N   UNL d   1      57.213   0.682  33.310  0.00  0.00    -0.239 NA
ATOM      3  S   UNL d   1      56.319   0.345  32.359  0.00  0.00    -0.066 SA
ATOM      4  C   UNL d   1      56.475   0.596  33.664  0.00  0.00     0.088 A 
ATOM      5  C   UNL d   1      55.928   0.390  33.082  0.00  0.00     0.049 A 
ATOM      6  C   UNL d   1      56.225   0.680  34.454  0.00  0.00     0.020 A 
ATOM      7  C   UNL d   1      55.134   0.269  33.293  0.00  0.00     0.008 A 
ATOM      8  C   UNL d   1      54.880   0.352  34.080  0.00  0.00     0.001 A 
ATOM      9  C   UNL d   1      55.427   0.558  34.662  0.00  0.00     0.002 A 
ENDROOT
BRANCH   1  10
ATOM     10  C   UNL d   1      57.665   0.535  31.911  0.00  0.00     0.025 A 
ATOM     11  C   UNL d   1      57.454   0.412  31.100  0.00  0.00     0.023 A 
ATOM     12  C   UNL d   1      58.006   0.421  30.514  0.00  0.00     0.103 A 
ATOM     13  N   UNL d   1      57.753   0.296  29.738  0.00  0.00    -0.148 N 
ATOM     14  C   UNL d   1      58.823   0.559  30.720  0.00  0.00     0.021 A 
ATOM     15  C   UNL d   1      59.040   0.679  31.499  0.00  0.00     0.002 A 
ATOM     16  C   UNL d   1      58.459   0.665  32.078  0.00  0.00     0.002 A 
ENDBRANCH   1  10
TORSDOF 1
ENDMDL
MODEL 5
REMARK VINA RESULT:      -3.2      2.545      4.440
REMARK  1 active torsions:
REMARK  status: ('A' for Active; 'I' for Inactive)
REMARK    1  A    between atoms: C_6  and  C_1 
ROOT
ATOM      1  C   UNL d   1      59.214  -1.518  29.070  0.00  0.00     0.111 A 
ATOM      2  N   UNL d   1      60.008  -1.717  29.178  0.00  0.00    -0.239 NA
ATOM      3  S   UNL d   1      58.801  -2.194  28.812  0.00  0.00    -0.066 SA
ATOM      4  C   UNL d   1      60.089  -2.513  28.988  0.00  0.00     0.088 A 
ATOM      5  C   UNL d   1      59.350  -2.805  28.764  0.00  0.00     0.049 A 
ATOM      6  C   UNL d   1      60.749  -3.020  28.990  0.00  0.00     0.020 A 
ATOM      7  C   UNL d   1      59.277  -3.602  28.543  0.00  0.00     0.008 A 
ATOM      8  C   UNL d   1      59.934  -4.111  28.543  0.00  0.00     0.001 A 
ATOM      9  C   UNL d   1      60.673  -3.819  28.767  0.00  0.00     0.002 A 
ENDROOT
BRANCH   1  10
ATOM     10  C   UNL d   1      58.840  -0.811  29.178  0.00  0.00     0.025 A 
ATOM     11  C   UNL d   1      58.474  -0.600  29.912  0.00  0.00     0.023 A 
ATOM     12  C   UNL d   1      58.103   0.108  30.011  0.00  0.00     0.103 A 
ATOM     13  N   UNL d   1      57.761   0.270  30.745  0.00  0.00    -0.148 N 
ATOM     14  C   UNL d   1      58.081   0.656  29.356  0.00  0.00     0.021 A 
ATOM     15  C   UNL d   1      58.431   0.464  28.643  0.00  0.00     0.002 A 
ATOM     16  C   UNL d   1      58.802  -0.263  28.567  0.00  0.00     0.002 A 
ENDBRANCH   1  10
TORSDOF 1
ENDMDL
