MODEL 1
REMARK VINA RESULT:      80.0      0.000      0.000
REMARK  3 active torsions:
REMARK  status: ('A' for Active; 'I' for Inactive)
REMARK    1  A    between atoms: N_9  and  C_3 
REMARK    2  A    between atoms: C_12  and  C_4 
REMARK    3  A    between atoms: C_17  and  N_10 
ROOT
ATOM      1  N   UNL d   1     -54.884-101.450 -40.777  0.00  0.00    -0.196 N 
ATOM      2  C   UNL d   1     -54.864-101.225 -39.989  0.00  0.00     0.167 A 
ATOM      3  C   UNL d   1     -54.852-100.881 -41.375  0.00  0.00     0.152 A 
ATOM      4  C   UNL d   1     -54.904-101.904 -39.528  0.00  0.00     0.057 A 
ATOM      5  N   UNL d   1     -54.938-102.270 -40.808  0.00  0.00    -0.161 NA
ATOM      6  N   UNL d   1     -54.810-100.427 -39.785  0.00  0.00    -0.227 NA
ATOM      7  C   UNL d   1     -54.798-100.079 -41.172  0.00  0.00     0.057 A 
ATOM      8  C   UNL d   1     -54.950-102.545 -40.029  0.00  0.00     0.124 A 
ATOM      9  C   UNL d   1     -54.777 -99.853 -40.384  0.00  0.00     0.086 A 
ATOM     10  C   UNL d   1     -54.723 -99.043 -40.187  0.00  0.00     0.021 C 
ENDROOT
BRANCH   3  11
ATOM     11  N   UNL d   1     -54.872-101.107 -42.164  0.00  0.00    -0.286 N 
ATOM     12  C   UNL d   1     -54.714-100.552 -42.760  0.00  0.00     0.101 A 
ATOM     13  C   UNL d   1     -54.735-100.779 -43.553  0.00  0.00     0.100 A 
ATOM     14  N   UNL d   1     -54.914-101.561 -43.754  0.00  0.00    -0.301 N 
ATOM     15  C   UNL d   1     -55.071-102.113 -43.163  0.00  0.00     0.100 A 
ATOM     16  C   UNL d   1     -55.050-101.887 -42.370  0.00  0.00     0.101 A 
BRANCH  14  17
ATOM     17  C   UNL d   1     -54.934-101.791 -44.555  0.00  0.00     0.064 A 
ATOM     18  C   UNL d   1     -54.711-102.551 -44.768  0.00  0.00     0.018 A 
ATOM     19  C   UNL d   1     -54.789-102.616 -45.597  0.00  0.00     0.002 A 
ATOM     20  C   UNL d   1     -55.058-101.896 -45.880  0.00  0.00     0.002 A 
ATOM     21  C   UNL d   1     -55.150-101.383 -45.245  0.00  0.00     0.018 A 
ENDBRANCH  14  17
ENDBRANCH   3  11
BRANCH   4  22
ATOM     22  C   UNL d   1     -54.906-102.019 -38.711  0.00  0.00     0.004 A 
ATOM     23  C   UNL d   1     -55.105-101.391 -38.204  0.00  0.00     0.000 A 
ATOM     24  C   UNL d   1     -55.106-101.507 -37.387  0.00  0.00     0.000 A 
ATOM     25  C   UNL d   1     -54.911-102.244 -37.071  0.00  0.00     0.000 A 
ATOM     26  C   UNL d   1     -54.713-102.870 -37.574  0.00  0.00     0.000 A 
ATOM     27  C   UNL d   1     -54.711-102.755 -38.391  0.00  0.00     0.000 A 
ENDBRANCH   4  22
TORSDOF 3
ENDMDL
MODEL 2
REMARK VINA RESULT:      81.6      1.502      2.414
REMARK  3 active torsions:
REMARK  status: ('A' for Active; 'I' for Inactive)
REMARK    1  A    between atoms: N_9  and  C_3 
REMARK    2  A    between atoms: C_12  and  C_4 
REMARK    3  A    between atoms: C_17  and  N_10 
ROOT
ATOM      1  N   UNL d   1     -55.731-102.317 -39.208  0.00  0.00    -0.196 N 
ATOM      2  C   UNL d   1     -56.005-102.422 -38.442  0.00  0.00     0.167 A 
ATOM      3  C   UNL d   1     -56.245-102.396 -39.849  0.00  0.00     0.152 A 
ATOM      4  C   UNL d   1     -55.374-102.310 -37.927  0.00  0.00     0.057 A 
ATOM      5  N   UNL d   1     -54.929-102.140 -39.171  0.00  0.00    -0.161 NA
ATOM      6  N   UNL d   1     -56.798-102.608 -38.305  0.00  0.00    -0.227 NA
ATOM      7  C   UNL d   1     -57.042-102.582 -39.713  0.00  0.00     0.057 A 
ATOM      8  C   UNL d   1     -54.715-102.137 -38.373  0.00  0.00     0.124 A 
ATOM      9  C   UNL d   1     -57.316-102.687 -38.948  0.00  0.00     0.086 A 
ATOM     10  C   UNL d   1     -58.120-102.874 -38.819  0.00  0.00     0.021 C 
ENDROOT
BRANCH   3  11
ATOM     11  N   UNL d   1     -55.971-102.291 -40.616  0.00  0.00    -0.286 N 
ATOM     12  C   UNL d   1     -56.503-102.289 -41.253  0.00  0.00     0.101 A 
ATOM     13  C   UNL d   1     -56.227-102.183 -42.023  0.00  0.00     0.100 A 
ATOM     14  N   UNL d   1     -55.419-102.079 -42.161  0.00  0.00    -0.301 N 
ATOM     15  C   UNL d   1     -54.889-102.080 -41.530  0.00  0.00     0.100 A 
ATOM     16  C   UNL d   1     -55.165-102.185 -40.760  0.00  0.00     0.101 A 
BRANCH  14  17
ATOM     17  C   UNL d   1     -55.140-101.972 -42.940  0.00  0.00     0.064 A 
ATOM     18  C   UNL d   1     -54.982-101.216 -43.216  0.00  0.00     0.018 A 
ATOM     19  C   UNL d   1     -54.715-101.284 -44.004  0.00  0.00     0.002 A 
ATOM     20  C   UNL d   1     -54.713-102.079 -44.199  0.00  0.00     0.002 A 
ATOM     21  C   UNL d   1     -54.973-102.509 -43.549  0.00  0.00     0.018 A 
ENDBRANCH  14  17
ENDBRANCH   3  11
BRANCH   4  22
ATOM     22  C   UNL d   1     -55.317-102.345 -37.105  0.00  0.00     0.004 A 
ATOM     23  C   UNL d   1     -55.817-101.875 -36.636  0.00  0.00     0.000 A 
ATOM     24  C   UNL d   1     -55.760-101.909 -35.813  0.00  0.00     0.000 A 
ATOM     25  C   UNL d   1     -55.209-102.409 -35.455  0.00  0.00     0.000 A 
ATOM     26  C   UNL d   1     -54.712-102.877 -35.921  0.00  0.00     0.000 A 
ATOM     27  C   UNL d   1     -54.768-102.843 -36.743  0.00  0.00     0.000 A 
ENDBRANCH   4  22
TORSDOF 3
ENDMDL
