MODEL 1
REMARK VINA RESULT:      10.9      0.000      0.000
REMARK  2 active torsions:
REMARK  status: ('A' for Active; 'I' for Inactive)
REMARK    1  A    between atoms: C_6  and  C_3 
REMARK    2  A    between atoms: O_13  and  C_10 
ROOT
ATOM      1  C   UNL d   1     -54.719-101.887 -38.424  0.00  0.00     0.018 A 
ATOM      2  C   UNL d   1     -54.731-102.668 -38.649  0.00  0.00     0.004 A 
ATOM      3  C   UNL d   1     -54.712-101.300 -38.994  0.00  0.00     0.004 A 
ATOM      4  C   UNL d   1     -54.729-102.274 -40.021  0.00  0.00     0.094 A 
ATOM      5  C   UNL d   1     -54.717-101.493 -39.797  0.00  0.00     0.024 A 
ATOM      6  C   UNL d   1     -54.737-102.880 -39.448  0.00  0.00     0.024 A 
ENDROOT
BRANCH   1   7
ATOM      7  C   UNL d   1     -54.720-102.116 -37.626  0.00  0.00     0.090 A 
ATOM      8  N   UNL d   1     -54.720-102.763 -37.105  0.00  0.00    -0.219 NA
ATOM      9  C   UNL d   1     -54.722-102.453 -36.343  0.00  0.00     0.215 A 
ATOM     10  S   UNL d   1     -54.723-101.656 -36.400  0.00  0.00    -0.045 SA
ATOM     11  N   UNL d   1     -54.723-102.871 -35.616  0.00  0.00    -0.120 N 
ATOM     12  C   UNL d   1     -54.722-101.432 -37.178  0.00  0.00     0.058 A 
ENDBRANCH   1   7
BRANCH   4  13
ATOM     13  O   UNL d   1     -54.735-102.481 -40.835  0.00  0.00    -0.328 OA
ATOM     14  C   UNL d   1     -54.714-101.890 -41.419  0.00  0.00     0.181 C 
ENDBRANCH   4  13
TORSDOF 2
ENDMDL
