MODEL 1
REMARK VINA RESULT:      34.1      0.000      0.000
REMARK  3 active torsions:
REMARK  status: ('A' for Active; 'I' for Inactive)
REMARK    1  A    between atoms: C_6  and  C_2 
REMARK    2  A    between atoms: C_7  and  C_6 
REMARK    3  A    between atoms: C_8  and  C_7 
ROOT
ATOM      1  N   UNL d   1     -54.713-101.643 -37.869  0.00  0.00    -0.225 NA
ATOM      2  C   UNL d   1     -54.933-102.331 -38.313  0.00  0.00     0.163 A 
ATOM      3  N   UNL d   1     -55.274-102.866 -37.790  0.00  0.00    -0.225 NA
ATOM      4  C   UNL d   1     -54.921-101.775 -37.098  0.00  0.00     0.101 A 
ATOM      5  C   UNL d   1     -55.280-102.544 -37.020  0.00  0.00     0.101 A 
ATOM      6  C   UNL d   1     -54.850-101.307 -36.391  0.00  0.00     0.021 A 
ATOM      7  C   UNL d   1     -55.548-102.828 -36.294  0.00  0.00     0.021 A 
ATOM      8  C   UNL d   1     -55.469-102.369 -35.644  0.00  0.00     0.002 A 
ATOM      9  C   UNL d   1     -55.125-101.620 -35.692  0.00  0.00     0.002 A 
ENDROOT
BRANCH   2  10
ATOM     10  C   UNL d   1     -54.734-102.230 -39.109  0.00  0.00     0.039 C 
BRANCH  10  11
ATOM     11  C   UNL d   1     -54.834-102.850 -39.632  0.00  0.00     0.003 C 
BRANCH  11  12
ATOM     12  C   UNL d   1     -55.171-102.708 -40.375  0.00  0.00     0.000 A 
ATOM     13  C   UNL d   1     -54.718-102.400 -40.993  0.00  0.00     0.001 A 
ATOM     14  C   UNL d   1     -55.077-102.269 -41.719  0.00  0.00     0.011 A 
ATOM     15  C   UNL d   1     -55.863-102.434 -41.840  0.00  0.00     0.058 A 
ATOM     16  C   UNL d   1     -56.314-102.742 -41.221  0.00  0.00     0.011 A 
ATOM     17 CL   UNL d   1     -56.202-102.292 -42.585  0.00  0.00    -0.082 Cl
ATOM     18  C   UNL d   1     -55.961-102.875 -40.494  0.00  0.00     0.001 A 
ENDBRANCH  11  12
ENDBRANCH  10  11
ENDBRANCH   2  10
TORSDOF 3
ENDMDL
