MODEL 1
REMARK VINA RESULT:      -3.3      0.000      0.000
REMARK  6 active torsions:
REMARK  status: ('A' for Active; 'I' for Inactive)
REMARK    1  A    between atoms: C_7  and  N_1 
REMARK    2  A    between atoms: S_10  and  C_2 
REMARK    3  A    between atoms: C_22  and  S_10 
REMARK    4  A    between atoms: C_13  and  C_22 
REMARK       I    between atoms: N_17  and  C_13 
REMARK    5  A    between atoms: C_14  and  C_23 
REMARK    6  A    between atoms: C_23  and  N_17 
ROOT
ATOM      1  N   UNL d   1      59.738  -1.406  29.080  0.00  0.00    -0.254 N 
ATOM      2  C   UNL d   1      58.960  -1.411  29.358  0.00  0.00     0.183 A 
ATOM      3  N   UNL d   1      58.523  -2.108  29.360  0.00  0.00    -0.201 NA
ATOM      4  C   UNL d   1      60.070  -2.114  28.803  0.00  0.00     0.271 A 
ATOM      5  C   UNL d   1      59.630  -2.802  28.807  0.00  0.00     0.115 A 
ATOM      6  C   UNL d   1      58.858  -2.801  29.084  0.00  0.00     0.192 A 
ATOM      7  N   UNL d   1      59.156  -4.038  28.701  0.00  0.00    -0.145 NA
ATOM      8  N   UNL d   1      58.565  -3.568  29.018  0.00  0.00    -0.128 NA
ATOM      9  C   UNL d   1      59.823  -3.567  28.567  0.00  0.00     0.130 A 
ATOM     10  O   UNL d   1      60.849  -2.112  28.523  0.00  0.00    -0.266 OA
ENDROOT
BRANCH   2  11
ATOM     11  S   UNL d   1      58.617  -0.708  29.639  0.00  0.00    -0.044 SA
BRANCH  11  12
ATOM     12  C   UNL d   1      57.835  -0.710  29.896  0.00  0.00     0.101 C 
BRANCH  12  13
ATOM     13  C   UNL d   1      57.529  -0.057  30.298  0.00  0.00     0.286 C 
ATOM     14  N   UNL d   1      57.289  -0.139  31.086  0.00  0.00    -0.204 NA
ATOM     15  O   UNL d   1      57.461   0.674  29.920  0.00  0.00    -0.265 OA
BRANCH  14  16
ATOM     16  C   UNL d   1      56.982   0.513  31.491  0.00  0.00     0.127 C 
BRANCH  16  17
ATOM     17  C   UNL d   1      56.749   0.432  32.282  0.00  0.00     0.119 A 
ATOM     18  O   UNL d   1      57.180   0.653  32.941  0.00  0.00    -0.304 OA
ATOM     19  C   UNL d   1      56.741   0.474  33.616  0.00  0.00     0.123 A 
ATOM     20  C   UNL d   1      56.034   0.141  33.373  0.00  0.00     0.029 A 
ATOM     21  C   UNL d   1      56.031   0.112  32.554  0.00  0.00     0.028 A 
ENDBRANCH  16  17
ENDBRANCH  14  16
ENDBRANCH  12  13
ENDBRANCH  11  12
ENDBRANCH   2  11
BRANCH   1  22
ATOM     22  C   UNL d   1      60.173  -0.714  29.079  0.00  0.00     0.075 A 
ATOM     23  C   UNL d   1      60.694  -0.553  29.702  0.00  0.00     0.051 A 
ATOM     24 BR   UNL d   1      60.772  -1.088  30.320  0.00  0.00    -0.048 Br
ATOM     25  C   UNL d   1      61.132   0.145  29.701  0.00  0.00     0.008 A 
ATOM     26  C   UNL d   1      61.052   0.682  29.078  0.00  0.00     0.001 A 
ATOM     27  C   UNL d   1      60.531   0.517  28.457  0.00  0.00     0.002 A 
ATOM     28  C   UNL d   1      60.093  -0.180  28.459  0.00  0.00     0.018 A 
ENDBRANCH   1  22
TORSDOF 6
ENDMDL
MODEL 2
REMARK VINA RESULT:      -0.8      1.237      2.615
REMARK  6 active torsions:
REMARK  status: ('A' for Active; 'I' for Inactive)
REMARK    1  A    between atoms: C_7  and  N_1 
REMARK    2  A    between atoms: S_10  and  C_2 
REMARK    3  A    between atoms: C_22  and  S_10 
REMARK    4  A    between atoms: C_13  and  C_22 
REMARK       I    between atoms: N_17  and  C_13 
REMARK    5  A    between atoms: C_14  and  C_23 
REMARK    6  A    between atoms: C_23  and  N_17 
ROOT
ATOM      1  N   UNL d   1      59.375  -1.534  29.309  0.00  0.00    -0.254 N 
ATOM      2  C   UNL d   1      58.960  -1.057  29.842  0.00  0.00     0.183 A 
ATOM      3  N   UNL d   1      59.249  -0.316  30.050  0.00  0.00    -0.201 NA
ATOM      4  C   UNL d   1      60.086  -1.252  28.989  0.00  0.00     0.271 A 
ATOM      5  C   UNL d   1      60.367  -0.515  29.199  0.00  0.00     0.115 A 
ATOM      6  C   UNL d   1      59.951  -0.046  29.729  0.00  0.00     0.192 A 
ATOM      7  N   UNL d   1      61.042   0.618  29.361  0.00  0.00    -0.145 NA
ATOM      8  N   UNL d   1      60.370   0.656  29.828  0.00  0.00    -0.128 NA
ATOM      9  C   UNL d   1      61.047  -0.109  28.966  0.00  0.00     0.130 A 
ATOM     10  O   UNL d   1      60.504  -1.727  28.455  0.00  0.00    -0.266 OA
ENDROOT
BRANCH   2  11
ATOM     11  S   UNL d   1      58.247  -1.329  30.170  0.00  0.00    -0.044 SA
BRANCH  11  12
ATOM     12  C   UNL d   1      57.770  -0.811  30.596  0.00  0.00     0.101 C 
BRANCH  12  13
ATOM     13  C   UNL d   1      57.237  -1.102  31.155  0.00  0.00     0.286 C 
ATOM     14  N   UNL d   1      57.057  -0.648  31.824  0.00  0.00    -0.204 NA
ATOM     15  O   UNL d   1      56.882  -1.841  31.052  0.00  0.00    -0.265 OA
BRANCH  14  16
ATOM     16  C   UNL d   1      56.524  -0.937  32.385  0.00  0.00     0.127 C 
BRANCH  16  17
ATOM     17  C   UNL d   1      56.013  -0.414  32.773  0.00  0.00     0.119 A 
ATOM     18  O   UNL d   1      55.876   0.369  32.578  0.00  0.00    -0.304 OA
ATOM     19  C   UNL d   1      55.328   0.682  33.109  0.00  0.00     0.123 A 
ATOM     20  C   UNL d   1      55.124   0.090  33.635  0.00  0.00     0.029 A 
ATOM     21  C   UNL d   1      55.540  -0.587  33.436  0.00  0.00     0.028 A 
ENDBRANCH  16  17
ENDBRANCH  14  16
ENDBRANCH  12  13
ENDBRANCH  11  12
ENDBRANCH   2  11
BRANCH   1  22
ATOM     22  C   UNL d   1      59.089  -2.271  29.103  0.00  0.00     0.075 A 
ATOM     23  C   UNL d   1      59.497  -2.953  29.336  0.00  0.00     0.051 A 
ATOM     24 BR   UNL d   1      60.188  -2.887  29.775  0.00  0.00    -0.048 Br
ATOM     25  C   UNL d   1      59.208  -3.696  29.128  0.00  0.00     0.008 A 
ATOM     26  C   UNL d   1      58.512  -3.760  28.687  0.00  0.00     0.001 A 
ATOM     27  C   UNL d   1      58.108  -3.076  28.455  0.00  0.00     0.002 A 
ATOM     28  C   UNL d   1      58.396  -2.334  28.663  0.00  0.00     0.018 A 
ENDBRANCH   1  22
TORSDOF 6
ENDMDL
