MODEL 1
REMARK VINA RESULT:      -3.5      0.000      0.000
REMARK  3 active torsions:
REMARK  status: ('A' for Active; 'I' for Inactive)
REMARK       I    between atoms: N_2  and  C_1 
REMARK       I    between atoms: N_5  and  C_1 
REMARK       I    between atoms: C_4  and  N_3 
REMARK    1  A    between atoms: O_14  and  C_4 
REMARK    2  A    between atoms: C_12  and  N_5 
REMARK    3  A    between atoms: C_20  and  O_14 
ROOT
ATOM      1  C   UNL d   1      59.617  -0.074  29.343  0.00  0.00     0.354 C 
ATOM      2  N   UNL d   1      58.995  -0.258  29.863  0.00  0.00    -0.253 N 
ATOM      3  N   UNL d   1      57.776  -0.589  30.889  0.00  0.00    -0.249 N 
ATOM      4  C   UNL d   1      57.142  -0.755  31.427  0.00  0.00     0.378 C 
ATOM      5  N   UNL d   1      59.912  -0.669  28.821  0.00  0.00    -0.192 NA
ATOM      6  O   UNL d   1      59.967   0.681  29.317  0.00  0.00    -0.244 OA
ATOM      7  C   UNL d   1      58.651  -1.015  29.882  0.00  0.00     0.104 A 
ATOM      8  C   UNL d   1      58.720   0.324  30.360  0.00  0.00     0.104 A 
ATOM      9  C   UNL d   1      58.097   0.151  30.884  0.00  0.00     0.104 A 
ATOM     10  C   UNL d   1      58.041  -1.165  30.404  0.00  0.00     0.104 A 
ATOM     11  O   UNL d   1      56.791  -1.488  31.463  0.00  0.00    -0.237 OA
ENDROOT
BRANCH   5  12
ATOM     12  C   UNL d   1      59.590  -1.399  28.832  0.00  0.00     0.087 A 
ATOM     13  C   UNL d   1      59.957  -2.034  29.203  0.00  0.00     0.031 A 
ATOM     14  C   UNL d   1      59.619  -2.760  29.205  0.00  0.00     0.059 A 
ATOM     15 CL   UNL d   1      60.022  -3.386  29.594  0.00  0.00    -0.082 Cl
ATOM     16  C   UNL d   1      58.895  -2.891  28.833  0.00  0.00     0.011 A 
ATOM     17  C   UNL d   1      58.520  -2.254  28.457  0.00  0.00     0.002 A 
ATOM     18  C   UNL d   1      58.857  -1.527  28.455  0.00  0.00     0.019 A 
ENDBRANCH   5  12
BRANCH   4  19
ATOM     19  O   UNL d   1      56.872  -0.155  31.928  0.00  0.00    -0.257 OA
BRANCH  19  20
ATOM     20  C   UNL d   1      56.237  -0.293  32.422  0.00  0.00     0.128 C 
ATOM     21  C   UNL d   1      55.973   0.293  32.939  0.00  0.00     0.029 C 
ENDBRANCH  19  20
ENDBRANCH   4  19
TORSDOF 3
ENDMDL
MODEL 2
REMARK VINA RESULT:      -2.3      1.196      1.525
REMARK  3 active torsions:
REMARK  status: ('A' for Active; 'I' for Inactive)
REMARK       I    between atoms: N_2  and  C_1 
REMARK       I    between atoms: N_5  and  C_1 
REMARK       I    between atoms: C_4  and  N_3 
REMARK    1  A    between atoms: O_14  and  C_4 
REMARK    2  A    between atoms: C_12  and  N_5 
REMARK    3  A    between atoms: C_20  and  O_14 
ROOT
ATOM      1  C   UNL d   1      60.183   0.394  30.631  0.00  0.00     0.354 C 
ATOM      2  N   UNL d   1      59.400   0.387  30.910  0.00  0.00    -0.253 N 
ATOM      3  N   UNL d   1      57.876   0.385  31.482  0.00  0.00    -0.249 N 
ATOM      4  C   UNL d   1      57.085   0.388  31.786  0.00  0.00     0.378 C 
ATOM      5  N   UNL d   1      60.351   0.099  29.857  0.00  0.00    -0.192 NA
ATOM      6  O   UNL d   1      60.816   0.682  31.088  0.00  0.00    -0.244 OA
ATOM      7  C   UNL d   1      58.773   0.097  30.446  0.00  0.00     0.104 A 
ATOM      8  C   UNL d   1      59.252   0.673  31.657  0.00  0.00     0.104 A 
ATOM      9  C   UNL d   1      58.471   0.671  31.946  0.00  0.00     0.104 A 
ATOM     10  C   UNL d   1      58.015   0.103  30.748  0.00  0.00     0.104 A 
ATOM     11  O   UNL d   1      56.456   0.109  31.350  0.00  0.00    -0.237 OA
ENDROOT
BRANCH   5  12
ATOM     12  C   UNL d   1      59.757  -0.181  29.404  0.00  0.00     0.087 A 
ATOM     13  C   UNL d   1      59.554  -0.977  29.392  0.00  0.00     0.031 A 
ATOM     14  C   UNL d   1      58.955  -1.243  28.930  0.00  0.00     0.059 A 
ATOM     15 CL   UNL d   1      58.775  -2.063  28.943  0.00  0.00    -0.082 Cl
ATOM     16  C   UNL d   1      58.526  -0.723  28.455  0.00  0.00     0.011 A 
ATOM     17  C   UNL d   1      58.726   0.082  28.463  0.00  0.00     0.002 A 
ATOM     18  C   UNL d   1      59.325   0.347  28.924  0.00  0.00     0.019 A 
ENDBRANCH   5  12
BRANCH   4  19
ATOM     19  O   UNL d   1      56.947   0.681  32.547  0.00  0.00    -0.257 OA
BRANCH  19  20
ATOM     20  C   UNL d   1      56.275   0.459  32.953  0.00  0.00     0.128 C 
ATOM     21  C   UNL d   1      56.255   0.486  33.777  0.00  0.00     0.029 C 
ENDBRANCH  19  20
ENDBRANCH   4  19
TORSDOF 3
ENDMDL
MODEL 3
REMARK VINA RESULT:      -1.8      8.541      9.791
REMARK  3 active torsions:
REMARK  status: ('A' for Active; 'I' for Inactive)
REMARK       I    between atoms: N_2  and  C_1 
REMARK       I    between atoms: N_5  and  C_1 
REMARK       I    between atoms: C_4  and  N_3 
REMARK    1  A    between atoms: O_14  and  C_4 
REMARK    2  A    between atoms: C_12  and  N_5 
REMARK    3  A    between atoms: C_20  and  O_14 
ROOT
ATOM      1  C   UNL d   1      58.711  -9.248  35.596  0.00  0.00     0.354 C 
ATOM      2  N   UNL d   1      59.180  -9.232  34.909  0.00  0.00    -0.253 N 
ATOM      3  N   UNL d   1      60.082  -9.226  33.555  0.00  0.00    -0.249 N 
ATOM      4  C   UNL d   1      60.549  -9.228  32.847  0.00  0.00     0.378 C 
ATOM      5  N   UNL d   1      58.837  -8.668  36.197  0.00  0.00    -0.192 NA
ATOM      6  O   UNL d   1      58.117  -9.817  35.717  0.00  0.00    -0.244 OA
ATOM      7  C   UNL d   1      59.772  -8.659  34.797  0.00  0.00     0.104 A 
ATOM      8  C   UNL d   1      59.049  -9.796  34.338  0.00  0.00     0.104 A 
ATOM      9  C   UNL d   1      59.513  -9.790  33.646  0.00  0.00     0.104 A 
ATOM     10  C   UNL d   1      60.216  -8.670  34.111  0.00  0.00     0.104 A 
ATOM     11  O   UNL d   1      61.133  -8.677  32.715  0.00  0.00    -0.237 OA
ENDROOT
BRANCH   5  12
ATOM     12  C   UNL d   1      59.402  -8.113  36.100  0.00  0.00     0.087 A 
ATOM     13  C   UNL d   1      59.222  -7.332  35.917  0.00  0.00     0.031 A 
ATOM     14  C   UNL d   1      59.802  -6.788  35.823  0.00  0.00     0.059 A 
ATOM     15 CL   UNL d   1      59.582  -5.999  35.637  0.00  0.00    -0.082 Cl
ATOM     16  C   UNL d   1      60.596  -6.997  35.906  0.00  0.00     0.011 A 
ATOM     17  C   UNL d   1      60.784  -7.783  36.090  0.00  0.00     0.002 A 
ATOM     18  C   UNL d   1      60.204  -8.327  36.185  0.00  0.00     0.019 A 
ENDBRANCH   5  12
BRANCH   4  19
ATOM     19  O   UNL d   1      60.406  -9.807  32.273  0.00  0.00    -0.257 OA
BRANCH  19  20
ATOM     20  C   UNL d   1      60.628  -9.676  31.499  0.00  0.00     0.128 C 
ATOM     21  C   UNL d   1      60.059  -9.584  30.909  0.00  0.00     0.029 C 
ENDBRANCH  19  20
ENDBRANCH   4  19
TORSDOF 3
ENDMDL
MODEL 4
REMARK VINA RESULT:      -0.8      2.538      4.673
REMARK  3 active torsions:
REMARK  status: ('A' for Active; 'I' for Inactive)
REMARK       I    between atoms: N_2  and  C_1 
REMARK       I    between atoms: N_5  and  C_1 
REMARK       I    between atoms: C_4  and  N_3 
REMARK    1  A    between atoms: O_14  and  C_4 
REMARK    2  A    between atoms: C_12  and  N_5 
REMARK    3  A    between atoms: C_20  and  O_14 
ROOT
ATOM      1  C   UNL d   1      57.827   0.423  33.786  0.00  0.00     0.354 C 
ATOM      2  N   UNL d   1      57.801   0.418  32.955  0.00  0.00    -0.253 N 
ATOM      3  N   UNL d   1      57.778   0.419  31.328  0.00  0.00    -0.249 N 
ATOM      4  C   UNL d   1      57.773   0.422  30.480  0.00  0.00     0.378 C 
ATOM      5  N   UNL d   1      57.152   0.166  34.225  0.00  0.00    -0.192 NA
ATOM      6  O   UNL d   1      58.499   0.674  34.209  0.00  0.00    -0.244 OA
ATOM      7  C   UNL d   1      57.125   0.166  32.541  0.00  0.00     0.104 A 
ATOM      8  C   UNL d   1      58.457   0.668  32.545  0.00  0.00     0.104 A 
ATOM      9  C   UNL d   1      58.442   0.667  31.713  0.00  0.00     0.104 A 
ATOM     10  C   UNL d   1      57.131   0.172  31.724  0.00  0.00     0.104 A 
ATOM     11  O   UNL d   1      57.123   0.179  30.054  0.00  0.00    -0.237 OA
ENDROOT
BRANCH   5  12
ATOM     12  C   UNL d   1      56.499  -0.078  33.837  0.00  0.00     0.087 A 
ATOM     13  C   UNL d   1      55.838   0.402  33.748  0.00  0.00     0.031 A 
ATOM     14  C   UNL d   1      55.189   0.141  33.356  0.00  0.00     0.059 A 
ATOM     15 CL   UNL d   1      54.532   0.659  33.284  0.00  0.00    -0.082 Cl
ATOM     16  C   UNL d   1      55.169  -0.616  33.031  0.00  0.00     0.011 A 
ATOM     17  C   UNL d   1      55.833  -1.105  33.117  0.00  0.00     0.002 A 
ATOM     18  C   UNL d   1      56.481  -0.845  33.509  0.00  0.00     0.019 A 
ENDBRANCH   5  12
BRANCH   4  19
ATOM     19  O   UNL d   1      58.447   0.678  30.075  0.00  0.00    -0.257 OA
BRANCH  19  20
ATOM     20  C   UNL d   1      58.823   0.175  29.554  0.00  0.00     0.128 C 
ATOM     21  C   UNL d   1      58.641   0.191  28.749  0.00  0.00     0.029 C 
ENDBRANCH  19  20
ENDBRANCH   4  19
TORSDOF 3
ENDMDL
MODEL 5
REMARK VINA RESULT:      -0.7      8.958      9.533
REMARK  3 active torsions:
REMARK  status: ('A' for Active; 'I' for Inactive)
REMARK       I    between atoms: N_2  and  C_1 
REMARK       I    between atoms: N_5  and  C_1 
REMARK       I    between atoms: C_4  and  N_3 
REMARK    1  A    between atoms: O_14  and  C_4 
REMARK    2  A    between atoms: C_12  and  N_5 
REMARK    3  A    between atoms: C_20  and  O_14 
ROOT
ATOM      1  C   UNL d   1      60.462  -9.570  33.423  0.00  0.00     0.354 C 
ATOM      2  N   UNL d   1      59.693  -9.579  33.109  0.00  0.00    -0.253 N 
ATOM      3  N   UNL d   1      58.198  -9.605  32.466  0.00  0.00    -0.249 N 
ATOM      4  C   UNL d   1      57.422  -9.620  32.125  0.00  0.00     0.378 C 
ATOM      5  N   UNL d   1      60.576  -9.371  34.237  0.00  0.00    -0.192 NA
ATOM      6  O   UNL d   1      61.133  -9.752  32.966  0.00  0.00    -0.244 OA
ATOM      7  C   UNL d   1      59.028  -9.397  33.574  0.00  0.00     0.104 A 
ATOM      8  C   UNL d   1      59.597  -9.773  32.325  0.00  0.00     0.104 A 
ATOM      9  C   UNL d   1      58.831  -9.785  31.999  0.00  0.00     0.104 A 
ATOM     10  C   UNL d   1      58.285  -9.414  33.236  0.00  0.00     0.104 A 
ATOM     11  O   UNL d   1      56.758  -9.445  32.561  0.00  0.00    -0.237 OA
ENDROOT
BRANCH   5  12
ATOM     12  C   UNL d   1      59.946  -9.194  34.692  0.00  0.00     0.087 A 
ATOM     13  C   UNL d   1      59.749  -8.420  34.887  0.00  0.00     0.031 A 
ATOM     14  C   UNL d   1      59.112  -8.260  35.346  0.00  0.00     0.059 A 
ATOM     15 CL   UNL d   1      58.942  -7.457  35.524  0.00  0.00    -0.082 Cl
ATOM     16  C   UNL d   1      58.636  -8.868  35.635  0.00  0.00     0.011 A 
ATOM     17  C   UNL d   1      58.829  -9.651  35.442  0.00  0.00     0.002 A 
ATOM     18  C   UNL d   1      59.466  -9.812  34.983  0.00  0.00     0.019 A 
ENDBRANCH   5  12
BRANCH   4  19
ATOM     19  O   UNL d   1      57.338  -9.818  31.326  0.00  0.00    -0.257 OA
BRANCH  19  20
ATOM     20  C   UNL d   1      56.634  -9.667  30.941  0.00  0.00     0.128 C 
ATOM     21  C   UNL d   1      56.591  -9.696  30.118  0.00  0.00     0.029 C 
ENDBRANCH  19  20
ENDBRANCH   4  19
TORSDOF 3
ENDMDL
MODEL 6
REMARK VINA RESULT:      -0.6      1.895      3.522
REMARK  3 active torsions:
REMARK  status: ('A' for Active; 'I' for Inactive)
REMARK       I    between atoms: N_2  and  C_1 
REMARK       I    between atoms: N_5  and  C_1 
REMARK       I    between atoms: C_4  and  N_3 
REMARK    1  A    between atoms: O_14  and  C_4 
REMARK    2  A    between atoms: C_12  and  N_5 
REMARK    3  A    between atoms: C_20  and  O_14 
ROOT
ATOM      1  C   UNL d   1      60.085   0.089  29.276  0.00  0.00     0.354 C 
ATOM      2  N   UNL d   1      59.749  -0.667  29.190  0.00  0.00    -0.253 N 
ATOM      3  N   UNL d   1      59.117  -2.155  29.004  0.00  0.00    -0.249 N 
ATOM      4  C   UNL d   1      58.794  -2.932  28.903  0.00  0.00     0.378 C 
ATOM      5  N   UNL d   1      59.672   0.678  29.721  0.00  0.00    -0.192 NA
ATOM      6  O   UNL d   1      60.818   0.292  28.940  0.00  0.00    -0.244 OA
ATOM      7  C   UNL d   1      59.015  -0.861  29.530  0.00  0.00     0.104 A 
ATOM      8  C   UNL d   1      60.157  -1.225  28.760  0.00  0.00     0.104 A 
ATOM      9  C   UNL d   1      59.830  -1.985  28.667  0.00  0.00     0.104 A 
ATOM     10  C   UNL d   1      58.713  -1.613  29.426  0.00  0.00     0.104 A 
ATOM     11  O   UNL d   1      58.078  -3.145  29.226  0.00  0.00    -0.237 OA
ENDROOT
BRANCH   5  12
ATOM     12  C   UNL d   1      58.967   0.502  30.051  0.00  0.00     0.087 A 
ATOM     13  C   UNL d   1      58.893   0.303  30.845  0.00  0.00     0.031 A 
ATOM     14  C   UNL d   1      58.178   0.130  31.161  0.00  0.00     0.059 A 
ATOM     15 CL   UNL d   1      58.139  -0.069  31.976  0.00  0.00    -0.082 Cl
ATOM     16  C   UNL d   1      57.496   0.145  30.697  0.00  0.00     0.011 A 
ATOM     17  C   UNL d   1      57.564   0.345  29.895  0.00  0.00     0.002 A 
ATOM     18  C   UNL d   1      58.280   0.519  29.579  0.00  0.00     0.019 A 
ENDBRANCH   5  12
BRANCH   4  19
ATOM     19  O   UNL d   1      59.218  -3.490  28.463  0.00  0.00    -0.257 OA
BRANCH  19  20
ATOM     20  C   UNL d   1      58.979  -4.271  28.459  0.00  0.00     0.128 C 
ATOM     21  C   UNL d   1      59.453  -4.857  28.794  0.00  0.00     0.029 C 
ENDBRANCH  19  20
ENDBRANCH   4  19
TORSDOF 3
ENDMDL
