MODEL 1
REMARK VINA RESULT:      -2.8      0.000      0.000
REMARK  5 active torsions:
REMARK  status: ('A' for Active; 'I' for Inactive)
REMARK    1  A    between atoms: N_3  and  C_1 
REMARK       I    between atoms: C_9  and  N_3 
REMARK       I    between atoms: N_5  and  C_8 
REMARK    2  A    between atoms: C_8  and  C_16 
REMARK    3  A    between atoms: C_17  and  C_9 
REMARK    4  A    between atoms: S_13  and  C_17 
REMARK    5  A    between atoms: C_16  and  S_13 
ROOT
ATOM      1  N   UNL d   1      32.022  18.776 -23.564  0.00  0.00    -0.183 NA
ATOM      2  C   UNL d   1      32.788  18.633 -23.279  0.00  0.00     0.287 C 
ATOM      3  O   UNL d   1      33.101  17.865 -23.298  0.00  0.00    -0.265 OA
ENDROOT
BRANCH   2   4
ATOM      4  C   UNL d   1      33.241  19.247 -22.977  0.00  0.00     0.098 C 
BRANCH   4   5
ATOM      5  S   UNL d   1      33.062  19.578 -22.237  0.00  0.00    -0.076 SA
BRANCH   5   6
ATOM      6  C   UNL d   1      33.231  20.372 -22.086  0.00  0.00     0.097 C 
BRANCH   6   7
ATOM      7  C   UNL d   1      33.038  20.709 -21.359  0.00  0.00     0.271 C 
ATOM      8  N   UNL d   1      32.951  21.526 -21.293  0.00  0.00    -0.272 N 
ATOM      9  C   UNL d   1      32.758  21.859 -20.568  0.00  0.00     0.083 A 
ATOM     10  C   UNL d   1      33.058  22.011 -21.956  0.00  0.00     0.083 A 
ATOM     11  C   UNL d   1      32.673  22.676 -20.505  0.00  0.00     0.018 A 
ATOM     12  C   UNL d   1      32.479  23.013 -19.778  0.00  0.00     0.002 C 
ATOM     13  C   UNL d   1      32.781  23.154 -21.171  0.00  0.00     0.003 A 
ATOM     14  C   UNL d   1      32.975  22.819 -21.902  0.00  0.00     0.019 A 
ATOM     15  O   UNL d   1      32.932  20.226 -20.704  0.00  0.00    -0.266 OA
ENDBRANCH   6   7
ENDBRANCH   5   6
ENDBRANCH   4   5
ENDBRANCH   2   4
BRANCH   1  16
ATOM     16  C   UNL d   1      31.749  18.037 -23.817  0.00  0.00     0.182 A 
ATOM     17  N   UNL d   1      31.329  17.884 -24.514  0.00  0.00    -0.283 N 
ATOM     18  C   UNL d   1      31.167  17.071 -24.547  0.00  0.00     0.072 A 
ATOM     19  C   UNL d   1      31.114  18.444 -25.070  0.00  0.00     0.101 C 
ATOM     20  C   UNL d   1      30.774  16.605 -25.096  0.00  0.00     0.017 A 
ATOM     21  C   UNL d   1      31.487  16.721 -23.869  0.00  0.00     0.048 A 
ATOM     22  C   UNL d   1      30.698  15.803 -24.980  0.00  0.00    -0.011 A 
ATOM     23  C   UNL d   1      31.019  15.453 -24.303  0.00  0.00     0.027 A 
ATOM     24  C   UNL d   1      31.415  15.904 -23.742  0.00  0.00    -0.004 A 
ATOM     25  S   UNL d   1      31.849  17.317 -23.416  0.00  0.00    -0.048 SA
ENDBRANCH   1  16
TORSDOF 5
ENDMDL
MODEL 2
REMARK VINA RESULT:      -2.6      1.134      1.600
REMARK  5 active torsions:
REMARK  status: ('A' for Active; 'I' for Inactive)
REMARK    1  A    between atoms: N_3  and  C_1 
REMARK       I    between atoms: C_9  and  N_3 
REMARK       I    between atoms: N_5  and  C_8 
REMARK    2  A    between atoms: C_8  and  C_16 
REMARK    3  A    between atoms: C_17  and  C_9 
REMARK    4  A    between atoms: S_13  and  C_17 
REMARK    5  A    between atoms: C_16  and  S_13 
ROOT
ATOM      1  N   UNL d   1      32.296  17.700 -24.429  0.00  0.00    -0.183 NA
ATOM      2  C   UNL d   1      32.314  18.112 -23.709  0.00  0.00     0.287 C 
ATOM      3  O   UNL d   1      31.670  18.064 -23.188  0.00  0.00    -0.265 OA
ENDROOT
BRANCH   2   4
ATOM      4  C   UNL d   1      32.965  18.569 -23.507  0.00  0.00     0.098 C 
BRANCH   4   5
ATOM      5  S   UNL d   1      32.899  19.394 -23.449  0.00  0.00    -0.076 SA
BRANCH   5   6
ATOM      6  C   UNL d   1      33.239  19.793 -22.811  0.00  0.00     0.097 C 
BRANCH   6   7
ATOM      7  C   UNL d   1      33.188  20.614 -22.757  0.00  0.00     0.271 C 
ATOM      8  N   UNL d   1      33.171  20.980 -22.019  0.00  0.00    -0.272 N 
ATOM      9  C   UNL d   1      33.121  21.797 -21.969  0.00  0.00     0.083 A 
ATOM     10  C   UNL d   1      33.206  20.524 -21.328  0.00  0.00     0.083 A 
ATOM     11  C   UNL d   1      33.105  22.160 -21.228  0.00  0.00     0.018 A 
ATOM     12  C   UNL d   1      33.054  22.980 -21.175  0.00  0.00     0.002 C 
ATOM     13  C   UNL d   1      33.139  21.698 -20.543  0.00  0.00     0.003 A 
ATOM     14  C   UNL d   1      33.190  20.874 -20.593  0.00  0.00     0.019 A 
ATOM     15  O   UNL d   1      33.154  21.064 -23.443  0.00  0.00    -0.266 OA
ENDBRANCH   6   7
ENDBRANCH   5   6
ENDBRANCH   4   5
ENDBRANCH   2   4
BRANCH   1  16
ATOM     16  C   UNL d   1      31.565  17.312 -24.433  0.00  0.00     0.182 A 
ATOM     17  N   UNL d   1      31.442  16.506 -24.576  0.00  0.00    -0.283 N 
ATOM     18  C   UNL d   1      30.627  16.356 -24.526  0.00  0.00     0.072 A 
ATOM     19  C   UNL d   1      32.027  15.958 -24.739  0.00  0.00     0.101 C 
ATOM     20  C   UNL d   1      30.182  15.671 -24.615  0.00  0.00     0.017 A 
ATOM     21  C   UNL d   1      30.247  17.069 -24.352  0.00  0.00     0.048 A 
ATOM     22  C   UNL d   1      29.373  15.690 -24.533  0.00  0.00    -0.011 A 
ATOM     23  C   UNL d   1      28.993  16.403 -24.359  0.00  0.00     0.027 A 
ATOM     24  C   UNL d   1      29.423  17.099 -24.266  0.00  0.00    -0.004 A 
ATOM     25  S   UNL d   1      30.826  17.663 -24.293  0.00  0.00    -0.048 SA
ENDBRANCH   1  16
TORSDOF 5
ENDMDL
MODEL 3
REMARK VINA RESULT:      -0.4      1.492      5.550
REMARK  5 active torsions:
REMARK  status: ('A' for Active; 'I' for Inactive)
REMARK    1  A    between atoms: N_3  and  C_1 
REMARK       I    between atoms: C_9  and  N_3 
REMARK       I    between atoms: N_5  and  C_8 
REMARK    2  A    between atoms: C_8  and  C_16 
REMARK    3  A    between atoms: C_17  and  C_9 
REMARK    4  A    between atoms: S_13  and  C_17 
REMARK    5  A    between atoms: C_16  and  S_13 
ROOT
ATOM      1  N   UNL d   1      33.131  18.161 -22.709  0.00  0.00    -0.183 NA
ATOM      2  C   UNL d   1      32.966  18.044 -23.513  0.00  0.00     0.287 C 
ATOM      3  O   UNL d   1      32.867  18.697 -24.015  0.00  0.00    -0.265 OA
ENDROOT
BRANCH   2   4
ATOM      4  C   UNL d   1      32.899  17.285 -23.818  0.00  0.00     0.098 C 
BRANCH   4   5
ATOM      5  S   UNL d   1      32.303  16.774 -23.549  0.00  0.00    -0.076 SA
BRANCH   5   6
ATOM      6  C   UNL d   1      31.563  16.770 -23.915  0.00  0.00     0.097 C 
BRANCH   6   7
ATOM      7  C   UNL d   1      30.957  16.293 -23.626  0.00  0.00     0.271 C 
ATOM      8  N   UNL d   1      30.199  16.349 -23.945  0.00  0.00    -0.272 N 
ATOM      9  C   UNL d   1      29.597  15.872 -23.655  0.00  0.00     0.083 A 
ATOM     10  C   UNL d   1      30.044  16.885 -24.558  0.00  0.00     0.083 A 
ATOM     11  C   UNL d   1      28.841  15.930 -23.977  0.00  0.00     0.018 A 
ATOM     12  C   UNL d   1      28.235  15.453 -23.688  0.00  0.00     0.002 C 
ATOM     13  C   UNL d   1      28.693  16.468 -24.588  0.00  0.00     0.003 A 
ATOM     14  C   UNL d   1      29.299  16.949 -24.881  0.00  0.00     0.019 A 
ATOM     15  O   UNL d   1      31.113  15.762 -23.019  0.00  0.00    -0.266 OA
ENDBRANCH   6   7
ENDBRANCH   5   6
ENDBRANCH   4   5
ENDBRANCH   2   4
BRANCH   1  16
ATOM     16  C   UNL d   1      33.156  18.983 -22.615  0.00  0.00     0.182 A 
ATOM     17  N   UNL d   1      33.159  19.392 -21.895  0.00  0.00    -0.283 N 
ATOM     18  C   UNL d   1      33.186  20.205 -22.058  0.00  0.00     0.072 A 
ATOM     19  C   UNL d   1      33.140  19.046 -21.153  0.00  0.00     0.101 C 
ATOM     20  C   UNL d   1      33.201  20.868 -21.575  0.00  0.00     0.017 A 
ATOM     21  C   UNL d   1      33.199  20.299 -22.880  0.00  0.00     0.048 A 
ATOM     22  C   UNL d   1      33.228  21.615 -21.897  0.00  0.00    -0.011 A 
ATOM     23  C   UNL d   1      33.241  21.709 -22.718  0.00  0.00     0.027 A 
ATOM     24  C   UNL d   1      33.227  21.056 -23.218  0.00  0.00    -0.004 A 
ATOM     25  S   UNL d   1      33.180  19.544 -23.227  0.00  0.00    -0.048 SA
ENDBRANCH   1  16
TORSDOF 5
ENDMDL
