MODEL 1
REMARK VINA RESULT:      -3.7      0.000      0.000
REMARK  3 active torsions:
REMARK  status: ('A' for Active; 'I' for Inactive)
REMARK    1  A    between atoms: C_10  and  C_2 
REMARK    2  A    between atoms: C_4  and  C_10 
REMARK    3  A    between atoms: C_27  and  N_13 
ROOT
ATOM      1  C   UNL d   1      33.237  20.433 -23.456  0.00  0.00     0.093 A 
ATOM      2  C   UNL d   1      33.235  18.789 -23.697  0.00  0.00     0.035 A 
ATOM      3  C   UNL d   1      33.236  19.968 -22.831  0.00  0.00    -0.012 A 
ATOM      4  C   UNL d   1      33.237  21.488 -21.205  0.00  0.00     0.056 A 
ATOM      5  C   UNL d   1      33.236  19.252 -24.335  0.00  0.00     0.180 A 
ATOM      6  C   UNL d   1      33.236  21.028 -20.586  0.00  0.00    -0.012 A 
ATOM      7  C   UNL d   1      33.237  21.142 -21.958  0.00  0.00    -0.016 A 
ATOM      8  C   UNL d   1      33.236  20.326 -22.079  0.00  0.00    -0.007 A 
ATOM      9  C   UNL d   1      33.235  19.151 -22.953  0.00  0.00    -0.001 A 
ATOM     10  C   UNL d   1      33.235  20.205 -20.713  0.00  0.00    -0.004 A 
ATOM     11  C   UNL d   1      33.238  21.257 -23.330  0.00  0.00    -0.016 A 
ATOM     12  C   UNL d   1      33.235  19.854 -21.459  0.00  0.00    -0.001 A 
ATOM     13  C   UNL d   1      33.238  21.607 -22.583  0.00  0.00    -0.007 A 
ATOM     14  C   UNL d   1      33.238  22.303 -21.083  0.00  0.00    -0.015 A 
ATOM     15  C   UNL d   1      33.236  21.383 -19.815  0.00  0.00     0.038 A 
ATOM     16  O   UNL d   1      33.236  19.085 -25.096  0.00  0.00    -0.291 OA
ATOM     17  C   UNL d   1      33.238  20.904 -24.089  0.00  0.00     0.017 C 
ATOM     18  C   UNL d   1      33.238  22.680 -20.328  0.00  0.00     0.038 A 
ATOM     19  C   UNL d   1      33.237  22.210 -19.696  0.00  0.00     0.195 A 
ATOM     20  C   UNL d   1      33.238  22.130 -22.053  0.00  0.00     0.013 C 
ATOM     21  O   UNL d   1      33.237  22.547 -18.960  0.00  0.00    -0.287 OA
ENDROOT
BRANCH   2  22
ATOM     22  C   UNL d   1      33.234  17.985 -23.777  0.00  0.00     0.006 C 
BRANCH  22  23
ATOM     23  C   UNL d   1      32.560  17.529 -23.667  0.00  0.00     0.039 A 
ATOM     24  C   UNL d   1      32.375  16.832 -23.309  0.00  0.00     0.085 A 
ATOM     25  N   UNL d   1      31.552  16.700 -23.419  0.00  0.00    -0.228 N 
ATOM     26  C   UNL d   1      32.980  16.394 -22.920  0.00  0.00     0.021 C 
ATOM     27  N   UNL d   1      31.225  17.318 -23.848  0.00  0.00    -0.164 NA
ATOM     28  C   UNL d   1      31.854  17.836 -24.004  0.00  0.00     0.122 A 
BRANCH  25  29
ATOM     29  C   UNL d   1      31.134  16.032 -23.130  0.00  0.00     0.101 C 
ATOM     30  C   UNL d   1      30.320  15.916 -23.341  0.00  0.00     0.022 C 
ENDBRANCH  25  29
ENDBRANCH  22  23
ENDBRANCH   2  22
TORSDOF 3
ENDMDL
