MODEL 1
REMARK VINA RESULT:       6.1      0.000      0.000
REMARK  11 active torsions:
REMARK  status: ('A' for Active; 'I' for Inactive)
REMARK    1  A    between atoms: C_14  and  C_3 
REMARK    2  A    between atoms: N_15  and  C_6 
REMARK    3  A    between atoms: N_12  and  C_19 
REMARK    4  A    between atoms: N_13  and  C_20 
REMARK    5  A    between atoms: N_16  and  C_14 
REMARK    6  A    between atoms: C_28  and  N_15 
REMARK    7  A    between atoms: C_23  and  N_16 
REMARK    8  A    between atoms: C_19  and  C_21 
REMARK    9  A    between atoms: C_20  and  C_22 
REMARK   10  A    between atoms: C_21  and  C_23 
REMARK   11  A    between atoms: C_22  and  C_28 
ROOT
ATOM      1  N   UNL d   1      59.492   0.682  31.757  0.00  0.00    -0.258 N 
ATOM      2  C   UNL d   1      58.658   0.682  31.739  0.00  0.00     0.270 A 
ATOM      3  C   UNL d   1      58.261   0.682  31.029  0.00  0.00     0.111 A 
ATOM      4  N   UNL d   1      59.492   0.682  30.329  0.00  0.00    -0.209 NA
ATOM      5  C   UNL d   1      59.912   0.682  31.047  0.00  0.00     0.152 A 
ATOM      6  C   UNL d   1      58.681   0.682  30.319  0.00  0.00     0.170 A 
ATOM      7  C   UNL d   1      59.882   0.682  32.463  0.00  0.00     0.084 A 
ATOM      8  C   UNL d   1      60.717   0.682  31.054  0.00  0.00     0.038 A 
ATOM      9  C   UNL d   1      60.712   0.682  32.479  0.00  0.00     0.018 A 
ATOM     10  C   UNL d   1      61.132   0.682  31.769  0.00  0.00     0.005 A 
ATOM     11  O   UNL d   1      58.231   0.682  32.459  0.00  0.00    -0.266 OA
ATOM     12  C   UNL d   1      61.119   0.682  33.195  0.00  0.00     0.002 C 
ENDROOT
BRANCH   3  13
ATOM     13  C   UNL d   1      57.437   0.682  31.016  0.00  0.00     0.107 C 
BRANCH  13  14
ATOM     14  N   UNL d   1      57.011   0.605  31.733  0.00  0.00    -0.242 NA
BRANCH  14  15
ATOM     15  C   UNL d   1      56.238   0.320  31.721  0.00  0.00     0.101 C 
BRANCH  15  16
ATOM     16  C   UNL d   1      55.863   0.130  32.424  0.00  0.00     0.040 C 
BRANCH  16  17
ATOM     17  C   UNL d   1      55.968   0.612  33.108  0.00  0.00     0.082 C 
BRANCH  17  18
ATOM     18  N   UNL d   1      55.430   0.578  33.725  0.00  0.00    -0.299 N 
ATOM     19  C   UNL d   1      54.642   0.446  33.575  0.00  0.00     0.107 A 
ATOM     20  C   UNL d   1      54.092   0.412  34.206  0.00  0.00     0.142 A 
ATOM     21  O   UNL d   1      54.344   0.511  34.973  0.00  0.00    -0.300 OA
ATOM     22  C   UNL d   1      55.158   0.648  35.130  0.00  0.00     0.142 A 
ATOM     23  C   UNL d   1      55.699   0.681  34.508  0.00  0.00     0.107 A 
ENDBRANCH  17  18
ENDBRANCH  16  17
ENDBRANCH  15  16
ENDBRANCH  14  15
ENDBRANCH  13  14
ENDBRANCH   3  13
BRANCH   6  24
ATOM     24  N   UNL d   1      58.272   0.682  29.607  0.00  0.00    -0.225 NA
BRANCH  24  25
ATOM     25  C   UNL d   1      58.507   0.155  28.993  0.00  0.00     0.102 C 
BRANCH  25  26
ATOM     26  C   UNL d   1      58.794  -0.590  29.187  0.00  0.00     0.040 C 
BRANCH  26  27
ATOM     27  C   UNL d   1      58.822  -1.190  28.596  0.00  0.00     0.082 C 
BRANCH  27  28
ATOM     28  N   UNL d   1      58.966  -1.972  28.831  0.00  0.00    -0.299 N 
ATOM     29  C   UNL d   1      58.383  -2.545  28.686  0.00  0.00     0.107 A 
ATOM     30  C   UNL d   1      58.495  -3.327  28.906  0.00  0.00     0.142 A 
ATOM     31  O   UNL d   1      59.208  -3.535  29.279  0.00  0.00    -0.300 OA
ATOM     32  C   UNL d   1      59.787  -2.965  29.423  0.00  0.00     0.142 A 
ATOM     33  C   UNL d   1      59.654  -2.188  29.194  0.00  0.00     0.107 A 
ENDBRANCH  27  28
ENDBRANCH  26  27
ENDBRANCH  25  26
ENDBRANCH  24  25
ENDBRANCH   6  24
TORSDOF 11
ENDMDL
