MODEL 1
REMARK VINA RESULT:      -1.5      0.000      0.000
REMARK  5 active torsions:
REMARK  status: ('A' for Active; 'I' for Inactive)
REMARK    1  A    between atoms: C_5  and  N_1 
REMARK    2  A    between atoms: C_7  and  C_3 
REMARK    3  A    between atoms: C_8  and  C_4 
REMARK    4  A    between atoms: N_10  and  C_5 
REMARK    5  A    between atoms: O_21  and  C_15 
ROOT
ATOM      1  N   UNL d   1      31.713  16.764 -23.918  0.00  0.00    -0.203 N 
ATOM      2  N   UNL d   1      31.048  16.278 -23.828  0.00  0.00    -0.163 NA
ATOM      3  C   UNL d   1      30.376  16.708 -23.944  0.00  0.00     0.103 A 
ATOM      4  C   UNL d   1      31.448  17.535 -24.099  0.00  0.00     0.087 A 
ATOM      5  C   UNL d   1      30.621  17.507 -24.117  0.00  0.00     0.040 A 
ENDROOT
BRANCH   4   6
ATOM      6  C   UNL d   1      31.896  18.216 -24.240  0.00  0.00     0.018 A 
ATOM      7  C   UNL d   1      31.851  18.610 -24.958  0.00  0.00     0.004 A 
ATOM      8  C   UNL d   1      32.297  19.288 -25.097  0.00  0.00     0.024 A 
ATOM      9  C   UNL d   1      32.794  19.573 -24.508  0.00  0.00     0.094 A 
ATOM     10  C   UNL d   1      32.847  19.197 -23.800  0.00  0.00     0.024 A 
ATOM     11  C   UNL d   1      32.400  18.516 -23.660  0.00  0.00     0.004 A 
BRANCH   9  12
ATOM     12  O   UNL d   1      33.240  20.266 -24.669  0.00  0.00    -0.328 OA
ATOM     13  C   UNL d   1      32.857  20.983 -24.896  0.00  0.00     0.181 C 
ENDBRANCH   9  12
ENDBRANCH   4   6
BRANCH   1  14
ATOM     14  C   UNL d   1      32.519  16.530 -23.843  0.00  0.00     0.222 C 
ATOM     15  S   UNL d   1      32.880  16.546 -23.077  0.00  0.00    -0.037 SA
BRANCH  14  16
ATOM     16  N   UNL d   1      32.972  16.280 -24.513  0.00  0.00    -0.214 NA
ATOM     17  C   UNL d   1      33.013  15.473 -24.709  0.00  0.00     0.122 C 
ENDBRANCH  14  16
ENDBRANCH   1  14
BRANCH   3  18
ATOM     18  C   UNL d   1      29.600  16.405 -23.898  0.00  0.00     0.019 A 
ATOM     19  C   UNL d   1      29.074  16.497 -24.525  0.00  0.00     0.002 A 
ATOM     20  C   UNL d   1      28.300  16.187 -24.460  0.00  0.00     0.000 A 
ATOM     21  C   UNL d   1      28.071  15.797 -23.780  0.00  0.00     0.000 A 
ATOM     22  C   UNL d   1      28.611  15.714 -23.162  0.00  0.00     0.000 A 
ATOM     23  C   UNL d   1      27.072  15.465 -23.849  0.00  0.00     0.000 C 
ATOM     24  C   UNL d   1      29.362  16.012 -23.218  0.00  0.00     0.002 A 
ENDBRANCH   3  18
TORSDOF 5
ENDMDL
MODEL 2
REMARK VINA RESULT:      -1.1      4.288      5.958
REMARK  5 active torsions:
REMARK  status: ('A' for Active; 'I' for Inactive)
REMARK    1  A    between atoms: C_5  and  N_1 
REMARK    2  A    between atoms: C_7  and  C_3 
REMARK    3  A    between atoms: C_8  and  C_4 
REMARK    4  A    between atoms: N_10  and  C_5 
REMARK    5  A    between atoms: O_21  and  C_15 
ROOT
ATOM      1  N   UNL d   1      32.712  21.939 -22.303  0.00  0.00    -0.203 N 
ATOM      2  N   UNL d   1      32.776  21.260 -22.772  0.00  0.00    -0.163 NA
ATOM      3  C   UNL d   1      32.864  20.610 -22.304  0.00  0.00     0.103 A 
ATOM      4  C   UNL d   1      32.761  21.708 -21.503  0.00  0.00     0.087 A 
ATOM      5  C   UNL d   1      32.856  20.886 -21.496  0.00  0.00     0.040 A 
ENDROOT
BRANCH   4   6
ATOM      6  C   UNL d   1      32.726  22.180 -20.824  0.00  0.00     0.018 A 
ATOM      7  C   UNL d   1      33.241  22.057 -20.197  0.00  0.00     0.004 A 
ATOM      8  C   UNL d   1      33.205  22.527 -19.523  0.00  0.00     0.024 A 
ATOM      9  C   UNL d   1      32.646  23.128 -19.477  0.00  0.00     0.094 A 
ATOM     10  C   UNL d   1      32.137  23.259 -20.083  0.00  0.00     0.024 A 
ATOM     11  C   UNL d   1      32.172  22.787 -20.761  0.00  0.00     0.004 A 
BRANCH   9  12
ATOM     12  O   UNL d   1      32.627  23.596 -18.780  0.00  0.00    -0.328 OA
ATOM     13  C   UNL d   1      33.078  23.378 -18.101  0.00  0.00     0.181 C 
ENDBRANCH   9  12
ENDBRANCH   4   6
BRANCH   1  14
ATOM     14  C   UNL d   1      32.613  22.730 -22.577  0.00  0.00     0.222 C 
ATOM     15  S   UNL d   1      31.911  23.154 -22.365  0.00  0.00    -0.037 SA
BRANCH  14  16
ATOM     16  N   UNL d   1      33.198  23.108 -23.058  0.00  0.00    -0.214 NA
ATOM     17  C   UNL d   1      32.973  23.693 -23.605  0.00  0.00     0.122 C 
ENDBRANCH  14  16
ENDBRANCH   1  14
BRANCH   3  18
ATOM     18  C   UNL d   1      32.946  19.827 -22.580  0.00  0.00     0.019 A 
ATOM     19  C   UNL d   1      33.164  19.220 -22.069  0.00  0.00     0.002 A 
ATOM     20  C   UNL d   1      33.241  18.442 -22.364  0.00  0.00     0.000 A 
ATOM     21  C   UNL d   1      33.101  18.288 -23.154  0.00  0.00     0.000 A 
ATOM     22  C   UNL d   1      32.884  18.909 -23.652  0.00  0.00     0.000 A 
ATOM     23  C   UNL d   1      33.238  17.266 -23.374  0.00  0.00     0.000 C 
ATOM     24  C   UNL d   1      32.807  19.666 -23.372  0.00  0.00     0.002 A 
ENDBRANCH   3  18
TORSDOF 5
ENDMDL
MODEL 3
REMARK VINA RESULT:       1.2      3.036      5.332
REMARK  5 active torsions:
REMARK  status: ('A' for Active; 'I' for Inactive)
REMARK    1  A    between atoms: C_5  and  N_1 
REMARK    2  A    between atoms: C_7  and  C_3 
REMARK    3  A    between atoms: C_8  and  C_4 
REMARK    4  A    between atoms: N_10  and  C_5 
REMARK    5  A    between atoms: O_21  and  C_15 
ROOT
ATOM      1  N   UNL d   1      32.742  20.055 -23.242  0.00  0.00    -0.203 N 
ATOM      2  N   UNL d   1      32.778  20.710 -22.736  0.00  0.00    -0.163 NA
ATOM      3  C   UNL d   1      32.930  20.467 -21.982  0.00  0.00     0.103 A 
ATOM      4  C   UNL d   1      32.878  19.368 -22.788  0.00  0.00     0.087 A 
ATOM      5  C   UNL d   1      32.996  19.616 -22.007  0.00  0.00     0.040 A 
ENDROOT
BRANCH   4   6
ATOM      6  C   UNL d   1      32.899  18.579 -23.036  0.00  0.00     0.018 A 
ATOM      7  C   UNL d   1      33.221  18.373 -23.762  0.00  0.00     0.004 A 
ATOM      8  C   UNL d   1      33.241  17.588 -24.008  0.00  0.00     0.024 A 
ATOM      9  C   UNL d   1      32.935  17.003 -23.519  0.00  0.00     0.094 A 
ATOM     10  C   UNL d   1      32.618  17.190 -22.805  0.00  0.00     0.024 A 
ATOM     11  C   UNL d   1      32.597  17.979 -22.558  0.00  0.00     0.004 A 
BRANCH   9  12
ATOM     12  O   UNL d   1      32.966  16.208 -23.788  0.00  0.00    -0.328 OA
ATOM     13  C   UNL d   1      32.260  15.797 -24.001  0.00  0.00     0.181 C 
ENDBRANCH   9  12
ENDBRANCH   4   6
BRANCH   1  14
ATOM     14  C   UNL d   1      32.595  20.070 -24.072  0.00  0.00     0.222 C 
ATOM     15  S   UNL d   1      31.802  19.969 -24.349  0.00  0.00    -0.037 SA
BRANCH  14  16
ATOM     16  N   UNL d   1      33.221  20.185 -24.630  0.00  0.00    -0.214 NA
ATOM     17  C   UNL d   1      33.241  20.874 -25.096  0.00  0.00     0.122 C 
ENDBRANCH  14  16
ENDBRANCH   1  14
BRANCH   3  18
ATOM     18  C   UNL d   1      33.005  20.971 -21.322  0.00  0.00     0.019 A 
ATOM     19  C   UNL d   1      32.919  21.786 -21.402  0.00  0.00     0.002 A 
ATOM     20  C   UNL d   1      32.998  22.275 -20.729  0.00  0.00     0.000 A 
ATOM     21  C   UNL d   1      33.158  21.945 -19.999  0.00  0.00     0.000 A 
ATOM     22  C   UNL d   1      33.240  21.126 -19.938  0.00  0.00     0.000 A 
ATOM     23  C   UNL d   1      33.228  22.686 -19.252  0.00  0.00     0.000 C 
ATOM     24  C   UNL d   1      33.166  20.646 -20.586  0.00  0.00     0.002 A 
ENDBRANCH   3  18
TORSDOF 5
ENDMDL
