MODEL 1
REMARK VINA RESULT:      -8.2      0.000      0.000
REMARK  3 active torsions:
REMARK  status: ('A' for Active; 'I' for Inactive)
REMARK    1  A    between atoms: N_10  and  C_3 
REMARK    2  A    between atoms: C_11  and  C_4 
REMARK    3  A    between atoms: C_12  and  N_10 
ROOT
ATOM      1  C   UNL d   1     -47.556  13.744  22.435  0.00  0.00     0.167 A 
ATOM      2  N   UNL d   1     -47.943  14.474  22.496  0.00  0.00    -0.195 N 
ATOM      3  C   UNL d   1     -48.721  14.546  22.241  0.00  0.00     0.167 A 
ATOM      4  C   UNL d   1     -46.800  13.842  22.728  0.00  0.00     0.057 A 
ATOM      5  N   UNL d   1     -47.417  15.005  22.825  0.00  0.00    -0.161 NA
ATOM      6  N   UNL d   1     -47.952  13.098  22.120  0.00  0.00    -0.227 NA
ATOM      7  C   UNL d   1     -49.115  13.890  21.925  0.00  0.00     0.058 A 
ATOM      8  C   UNL d   1     -46.719  14.627  22.969  0.00  0.00     0.124 A 
ATOM      9  C   UNL d   1     -48.736  13.175  21.865  0.00  0.00     0.086 A 
ATOM     10  C   UNL d   1     -49.146  12.527  21.545  0.00  0.00     0.021 C 
ENDROOT
BRANCH   3  11
ATOM     11  N   UNL d   1     -49.108  15.275  22.302  0.00  0.00    -0.227 NA
BRANCH  11  12
ATOM     12  C   UNL d   1     -49.817  15.328  22.714  0.00  0.00     0.083 A 
ATOM     13  C   UNL d   1     -50.563  15.008  22.570  0.00  0.00     0.019 A 
ATOM     14  C   UNL d   1     -51.063  15.251  23.178  0.00  0.00     0.002 A 
ATOM     15  C   UNL d   1     -50.638  15.717  23.696  0.00  0.00     0.002 A 
ATOM     16  C   UNL d   1     -49.860  15.772  23.418  0.00  0.00     0.019 A 
ENDBRANCH  11  12
ENDBRANCH   3  11
BRANCH   4  17
ATOM     17  C   UNL d   1     -46.271  13.206  22.742  0.00  0.00     0.004 A 
ATOM     18  C   UNL d   1     -46.356  12.616  23.299  0.00  0.00     0.000 A 
ATOM     19  C   UNL d   1     -45.828  11.977  23.316  0.00  0.00     0.000 A 
ATOM     20  C   UNL d   1     -45.212  11.944  22.760  0.00  0.00     0.000 A 
ATOM     21  C   UNL d   1     -45.132  12.543  22.202  0.00  0.00     0.000 A 
ATOM     22  C   UNL d   1     -45.658  13.169  22.193  0.00  0.00     0.000 A 
ENDBRANCH   4  17
TORSDOF 3
ENDMDL
MODEL 2
REMARK VINA RESULT:      -7.6      1.454      4.713
REMARK  3 active torsions:
REMARK  status: ('A' for Active; 'I' for Inactive)
REMARK    1  A    between atoms: N_10  and  C_3 
REMARK    2  A    between atoms: C_11  and  C_4 
REMARK    3  A    between atoms: C_12  and  N_10 
ROOT
ATOM      1  C   UNL d   1     -47.837  12.419  22.834  0.00  0.00     0.167 A 
ATOM      2  N   UNL d   1     -47.408  11.779  23.139  0.00  0.00    -0.195 N 
ATOM      3  C   UNL d   1     -46.632  11.888  23.386  0.00  0.00     0.167 A 
ATOM      4  C   UNL d   1     -48.581  12.145  22.638  0.00  0.00     0.057 A 
ATOM      5  N   UNL d   1     -47.897  11.125  23.124  0.00  0.00    -0.161 NA
ATOM      6  N   UNL d   1     -47.484  13.158  22.781  0.00  0.00    -0.227 NA
ATOM      7  C   UNL d   1     -46.281  12.637  23.330  0.00  0.00     0.058 A 
ATOM      8  C   UNL d   1     -48.612  11.340  22.820  0.00  0.00     0.124 A 
ATOM      9  C   UNL d   1     -46.701  13.263  23.031  0.00  0.00     0.086 A 
ATOM     10  C   UNL d   1     -46.335  14.007  22.982  0.00  0.00     0.021 C 
ENDROOT
BRANCH   3  11
ATOM     11  N   UNL d   1     -46.203  11.249  23.691  0.00  0.00    -0.227 NA
BRANCH  11  12
ATOM     12  C   UNL d   1     -45.431  11.120  23.442  0.00  0.00     0.083 A 
ATOM     13  C   UNL d   1     -44.925  11.561  22.963  0.00  0.00     0.019 A 
ATOM     14  C   UNL d   1     -44.211  11.153  22.907  0.00  0.00     0.002 A 
ATOM     15  C   UNL d   1     -44.268  10.467  23.345  0.00  0.00     0.002 A 
ATOM     16  C   UNL d   1     -45.023  10.435  23.682  0.00  0.00     0.019 A 
ENDBRANCH  11  12
ENDBRANCH   3  11
BRANCH   4  17
ATOM     17  C   UNL d   1     -49.144  12.658  22.316  0.00  0.00     0.004 A 
ATOM     18  C   UNL d   1     -49.643  13.078  22.806  0.00  0.00     0.000 A 
ATOM     19  C   UNL d   1     -50.208  13.593  22.487  0.00  0.00     0.000 A 
ATOM     20  C   UNL d   1     -50.262  13.676  21.663  0.00  0.00     0.000 A 
ATOM     21  C   UNL d   1     -49.757  13.249  21.174  0.00  0.00     0.000 A 
ATOM     22  C   UNL d   1     -49.202  12.744  21.498  0.00  0.00     0.000 A 
ENDBRANCH   4  17
TORSDOF 3
ENDMDL
MODEL 3
REMARK VINA RESULT:      -7.3      0.964      4.162
REMARK  3 active torsions:
REMARK  status: ('A' for Active; 'I' for Inactive)
REMARK    1  A    between atoms: N_10  and  C_3 
REMARK    2  A    between atoms: C_11  and  C_4 
REMARK    3  A    between atoms: C_12  and  N_10 
ROOT
ATOM      1  C   UNL d   1     -48.210  13.877  22.915  0.00  0.00     0.167 A 
ATOM      2  N   UNL d   1     -47.399  14.046  22.931  0.00  0.00    -0.195 N 
ATOM      3  C   UNL d   1     -46.864  13.460  23.142  0.00  0.00     0.167 A 
ATOM      4  C   UNL d   1     -48.600  14.558  22.688  0.00  0.00     0.057 A 
ATOM      5  N   UNL d   1     -47.307  14.829  22.714  0.00  0.00    -0.161 NA
ATOM      6  N   UNL d   1     -48.473  13.124  23.110  0.00  0.00    -0.227 NA
ATOM      7  C   UNL d   1     -47.135  12.702  23.338  0.00  0.00     0.058 A 
ATOM      8  C   UNL d   1     -48.034  15.146  22.565  0.00  0.00     0.124 A 
ATOM      9  C   UNL d   1     -47.929  12.536  23.322  0.00  0.00     0.086 A 
ATOM     10  C   UNL d   1     -48.185  11.772  23.522  0.00  0.00     0.021 C 
ENDROOT
BRANCH   3  11
ATOM     11  N   UNL d   1     -46.053  13.630  23.158  0.00  0.00    -0.227 NA
BRANCH  11  12
ATOM     12  C   UNL d   1     -45.532  13.169  22.721  0.00  0.00     0.083 A 
ATOM     13  C   UNL d   1     -45.339  12.369  22.758  0.00  0.00     0.019 A 
ATOM     14  C   UNL d   1     -44.775  12.218  22.177  0.00  0.00     0.002 A 
ATOM     15  C   UNL d   1     -44.616  12.913  21.780  0.00  0.00     0.002 A 
ATOM     16  C   UNL d   1     -45.081  13.513  22.110  0.00  0.00     0.019 A 
ENDBRANCH  11  12
ENDBRANCH   3  11
BRANCH   4  17
ATOM     17  C   UNL d   1     -49.424  14.566  22.620  0.00  0.00     0.004 A 
ATOM     18  C   UNL d   1     -49.884  14.803  23.251  0.00  0.00     0.000 A 
ATOM     19  C   UNL d   1     -50.710  14.812  23.186  0.00  0.00     0.000 A 
ATOM     20  C   UNL d   1     -51.064  14.577  22.473  0.00  0.00     0.000 A 
ATOM     21  C   UNL d   1     -50.594  14.339  21.841  0.00  0.00     0.000 A 
ATOM     22  C   UNL d   1     -49.780  14.334  21.914  0.00  0.00     0.000 A 
ENDBRANCH   4  17
TORSDOF 3
ENDMDL
MODEL 4
REMARK VINA RESULT:      -7.1      1.239      4.316
REMARK  3 active torsions:
REMARK  status: ('A' for Active; 'I' for Inactive)
REMARK    1  A    between atoms: N_10  and  C_3 
REMARK    2  A    between atoms: C_11  and  C_4 
REMARK    3  A    between atoms: C_12  and  N_10 
ROOT
ATOM      1  C   UNL d   1     -48.290  13.150  22.950  0.00  0.00     0.167 A 
ATOM      2  N   UNL d   1     -47.471  13.172  23.081  0.00  0.00    -0.195 N 
ATOM      3  C   UNL d   1     -47.093  12.522  23.410  0.00  0.00     0.167 A 
ATOM      4  C   UNL d   1     -48.506  13.867  22.622  0.00  0.00     0.057 A 
ATOM      5  N   UNL d   1     -47.202  13.902  22.832  0.00  0.00    -0.161 NA
ATOM      6  N   UNL d   1     -48.716  12.478  23.149  0.00  0.00    -0.227 NA
ATOM      7  C   UNL d   1     -47.530  11.846  23.609  0.00  0.00     0.058 A 
ATOM      8  C   UNL d   1     -47.826  14.329  22.551  0.00  0.00     0.124 A 
ATOM      9  C   UNL d   1     -48.330  11.824  23.480  0.00  0.00     0.086 A 
ATOM     10  C   UNL d   1     -48.753  11.139  23.685  0.00  0.00     0.021 C 
ENDROOT
BRANCH   3  11
ATOM     11  N   UNL d   1     -46.276  12.544  23.541  0.00  0.00    -0.227 NA
BRANCH  11  12
ATOM     12  C   UNL d   1     -45.827  11.863  23.436  0.00  0.00     0.083 A 
ATOM     13  C   UNL d   1     -45.932  11.088  23.698  0.00  0.00     0.019 A 
ATOM     14  C   UNL d   1     -45.298  10.641  23.420  0.00  0.00     0.002 A 
ATOM     15  C   UNL d   1     -44.804  11.128  22.990  0.00  0.00     0.002 A 
ATOM     16  C   UNL d   1     -45.123  11.891  22.993  0.00  0.00     0.019 A 
ENDBRANCH  11  12
ENDBRANCH   3  11
BRANCH   4  17
ATOM     17  C   UNL d   1     -49.295  14.016  22.426  0.00  0.00     0.004 A 
ATOM     18  C   UNL d   1     -49.779  14.411  22.951  0.00  0.00     0.000 A 
ATOM     19  C   UNL d   1     -50.571  14.562  22.757  0.00  0.00     0.000 A 
ATOM     20  C   UNL d   1     -50.866  14.308  22.024  0.00  0.00     0.000 A 
ATOM     21  C   UNL d   1     -50.372  13.910  21.500  0.00  0.00     0.000 A 
ATOM     22  C   UNL d   1     -49.593  13.766  21.700  0.00  0.00     0.000 A 
ENDBRANCH   4  17
TORSDOF 3
ENDMDL
MODEL 5
REMARK VINA RESULT:      -7.1      8.070     10.296
REMARK  3 active torsions:
REMARK  status: ('A' for Active; 'I' for Inactive)
REMARK    1  A    between atoms: N_10  and  C_3 
REMARK    2  A    between atoms: C_11  and  C_4 
REMARK    3  A    between atoms: C_12  and  N_10 
ROOT
ATOM      1  C   UNL d   1     -39.807  15.349  18.458  0.00  0.00     0.167 A 
ATOM      2  N   UNL d   1     -39.094  15.378  18.036  0.00  0.00    -0.195 N 
ATOM      3  C   UNL d   1     -39.107  15.453  17.218  0.00  0.00     0.167 A 
ATOM      4  C   UNL d   1     -39.622  15.274  19.250  0.00  0.00     0.057 A 
ATOM      5  N   UNL d   1     -38.486  15.321  18.578  0.00  0.00    -0.161 NA
ATOM      6  N   UNL d   1     -40.521  15.395  18.054  0.00  0.00    -0.227 NA
ATOM      7  C   UNL d   1     -39.830  15.499  16.817  0.00  0.00     0.058 A 
ATOM      8  C   UNL d   1     -38.800  15.257  19.318  0.00  0.00     0.124 A 
ATOM      9  C   UNL d   1     -40.528  15.471  17.230  0.00  0.00     0.086 A 
ATOM     10  C   UNL d   1     -41.245  15.518  16.813  0.00  0.00     0.021 C 
ENDROOT
BRANCH   3  11
ATOM     11  N   UNL d   1     -38.394  15.482  16.797  0.00  0.00    -0.227 NA
BRANCH  11  12
ATOM     12  C   UNL d   1     -38.231  14.910  16.231  0.00  0.00     0.083 A 
ATOM     13  C   UNL d   1     -38.177  14.088  16.277  0.00  0.00     0.019 A 
ATOM     14  C   UNL d   1     -37.997  13.805  15.525  0.00  0.00     0.002 A 
ATOM     15  C   UNL d   1     -37.940  14.438  15.014  0.00  0.00     0.002 A 
ATOM     16  C   UNL d   1     -38.083  15.131  15.442  0.00  0.00     0.019 A 
ENDBRANCH  11  12
ENDBRANCH   3  11
BRANCH   4  17
ATOM     17  C   UNL d   1     -40.222  15.230  19.817  0.00  0.00     0.004 A 
ATOM     18  C   UNL d   1     -40.494  14.504  20.070  0.00  0.00     0.000 A 
ATOM     19  C   UNL d   1     -41.095  14.456  20.638  0.00  0.00     0.000 A 
ATOM     20  C   UNL d   1     -41.417  15.155  20.949  0.00  0.00     0.000 A 
ATOM     21  C   UNL d   1     -41.138  15.885  20.689  0.00  0.00     0.000 A 
ATOM     22  C   UNL d   1     -40.545  15.922  20.128  0.00  0.00     0.000 A 
ENDBRANCH   4  17
TORSDOF 3
ENDMDL
MODEL 6
REMARK VINA RESULT:      -6.7      7.763      9.162
REMARK  3 active torsions:
REMARK  status: ('A' for Active; 'I' for Inactive)
REMARK    1  A    between atoms: N_10  and  C_3 
REMARK    2  A    between atoms: C_11  and  C_4 
REMARK    3  A    between atoms: C_12  and  N_10 
ROOT
ATOM      1  C   UNL d   1     -39.617  14.347  20.426  0.00  0.00     0.167 A 
ATOM      2  N   UNL d   1     -40.228  14.443  19.874  0.00  0.00    -0.195 N 
ATOM      3  C   UNL d   1     -40.070  14.357  19.072  0.00  0.00     0.167 A 
ATOM      4  C   UNL d   1     -39.936  14.464  21.169  0.00  0.00     0.057 A 
ATOM      5  N   UNL d   1     -40.909  14.617  20.289  0.00  0.00    -0.161 NA
ATOM      6  N   UNL d   1     -38.859  14.167  20.167  0.00  0.00    -0.227 NA
ATOM      7  C   UNL d   1     -39.303  14.175  18.818  0.00  0.00     0.058 A 
ATOM      8  C   UNL d   1     -40.739  14.631  21.077  0.00  0.00     0.124 A 
ATOM      9  C   UNL d   1     -38.705  14.081  19.358  0.00  0.00     0.086 A 
ATOM     10  C   UNL d   1     -37.942  13.899  19.086  0.00  0.00     0.021 C 
ENDROOT
BRANCH   3  11
ATOM     11  N   UNL d   1     -40.681  14.452  18.521  0.00  0.00    -0.227 NA
BRANCH  11  12
ATOM     12  C   UNL d   1     -40.567  14.935  17.866  0.00  0.00     0.083 A 
ATOM     13  C   UNL d   1     -40.467  15.750  17.793  0.00  0.00     0.019 A 
ATOM     14  C   UNL d   1     -40.376  15.922  16.992  0.00  0.00     0.002 A 
ATOM     15  C   UNL d   1     -40.419  15.225  16.569  0.00  0.00     0.002 A 
ATOM     16  C   UNL d   1     -40.537  14.604  17.102  0.00  0.00     0.019 A 
ENDBRANCH  11  12
ENDBRANCH   3  11
BRANCH   4  17
ATOM     17  C   UNL d   1     -39.460  14.406  21.842  0.00  0.00     0.004 A 
ATOM     18  C   UNL d   1     -39.323  13.678  22.185  0.00  0.00     0.000 A 
ATOM     19  C   UNL d   1     -38.847  13.616  22.860  0.00  0.00     0.000 A 
ATOM     20  C   UNL d   1     -38.509  14.302  23.184  0.00  0.00     0.000 A 
ATOM     21  C   UNL d   1     -38.651  15.033  22.833  0.00  0.00     0.000 A 
ATOM     22  C   UNL d   1     -39.122  15.084  22.168  0.00  0.00     0.000 A 
ENDBRANCH   4  17
TORSDOF 3
ENDMDL
