MODEL 1
REMARK VINA RESULT:       3.0      0.000      0.000
REMARK  6 active torsions:
REMARK  status: ('A' for Active; 'I' for Inactive)
REMARK    1  A    between atoms: C_9  and  C_2 
REMARK    2  A    between atoms: C_13  and  C_8 
REMARK       I    between atoms: N_10  and  C_9 
REMARK    3  A    between atoms: C_15  and  N_10 
REMARK    4  A    between atoms: N_14  and  C_12 
REMARK    5  A    between atoms: C_21  and  N_14 
REMARK    6  A    between atoms: C_22  and  N_14 
ROOT
ATOM      1  C   UNL d   1      58.179  -1.273  30.846  0.00  0.00     0.180 A 
ATOM      2  C   UNL d   1      57.227  -0.499  31.357  0.00  0.00     0.106 A 
ATOM      3  N   UNL d   1      58.096  -0.608  30.351  0.00  0.00    -0.283 N 
ATOM      4  S   UNL d   1      57.639  -1.192  31.460  0.00  0.00    -0.044 SA
ATOM      5  N   UNL d   1      58.767  -1.747  30.527  0.00  0.00    -0.221 NA
ATOM      6  C   UNL d   1      57.507  -0.133  30.670  0.00  0.00     0.077 A 
ATOM      7  C   UNL d   1      58.636  -0.687  29.737  0.00  0.00     0.101 A 
ATOM      8  C   UNL d   1      59.048  -1.394  29.851  0.00  0.00     0.101 A 
ATOM      9  C   UNL d   1      57.243   0.593  30.350  0.00  0.00     0.020 C 
ENDROOT
BRANCH   2  10
ATOM     10  C   UNL d   1      56.628  -0.215  31.862  0.00  0.00     0.287 C 
ATOM     11  N   UNL d   1      56.400  -0.661  32.518  0.00  0.00    -0.208 NA
ATOM     12  O   UNL d   1      56.275   0.502  31.699  0.00  0.00    -0.265 OA
BRANCH  11  13
ATOM     13  C   UNL d   1      55.807  -0.373  33.012  0.00  0.00     0.085 A 
ATOM     14  C   UNL d   1      55.865   0.389  33.341  0.00  0.00     0.021 A 
ATOM     15  C   UNL d   1      55.278   0.679  33.833  0.00  0.00     0.019 A 
ATOM     16  C   UNL d   1      54.622   0.198  33.997  0.00  0.00     0.064 A 
ATOM     17  C   UNL d   1      54.554  -0.558  33.676  0.00  0.00     0.019 A 
ATOM     18  C   UNL d   1      55.148  -0.837  33.186  0.00  0.00     0.021 A 
BRANCH  16  19
ATOM     19  N   UNL d   1      54.019   0.471  34.489  0.00  0.00    -0.304 N 
BRANCH  19  20
ATOM     20  C   UNL d   1      54.152   0.536  35.296  0.00  0.00     0.080 C 
ATOM     21  C   UNL d   1      53.513   0.588  35.815  0.00  0.00     0.021 C 
ENDBRANCH  19  20
BRANCH  19  22
ATOM     22  C   UNL d   1      53.287   0.678  34.180  0.00  0.00     0.080 C 
ATOM     23  C   UNL d   1      52.607   0.634  34.644  0.00  0.00     0.021 C 
ENDBRANCH  19  22
ENDBRANCH  16  19
ENDBRANCH  11  13
ENDBRANCH   2  10
BRANCH   8  24
ATOM     24  C   UNL d   1      59.640  -1.717  29.390  0.00  0.00     0.019 A 
ATOM     25  C   UNL d   1      60.184  -1.235  29.005  0.00  0.00     0.002 A 
ATOM     26  C   UNL d   1      60.782  -1.561  28.539  0.00  0.00     0.000 A 
ATOM     27  C   UNL d   1      60.840  -2.389  28.455  0.00  0.00     0.000 A 
ATOM     28  C   UNL d   1      60.295  -2.871  28.840  0.00  0.00     0.000 A 
ATOM     29  C   UNL d   1      59.695  -2.543  29.308  0.00  0.00     0.002 A 
ENDBRANCH   8  24
TORSDOF 6
ENDMDL
MODEL 2
REMARK VINA RESULT:       5.4      5.347      7.281
REMARK  6 active torsions:
REMARK  status: ('A' for Active; 'I' for Inactive)
REMARK    1  A    between atoms: C_9  and  C_2 
REMARK    2  A    between atoms: C_13  and  C_8 
REMARK       I    between atoms: N_10  and  C_9 
REMARK    3  A    between atoms: C_15  and  N_10 
REMARK    4  A    between atoms: N_14  and  C_12 
REMARK    5  A    between atoms: C_21  and  N_14 
REMARK    6  A    between atoms: C_22  and  N_14 
ROOT
ATOM      1  C   UNL d   1      58.209  -6.665  28.555  0.00  0.00     0.180 A 
ATOM      2  C   UNL d   1      58.469  -5.362  28.556  0.00  0.00     0.106 A 
ATOM      3  N   UNL d   1      57.484  -6.259  28.501  0.00  0.00    -0.283 N 
ATOM      4  S   UNL d   1      58.805  -6.101  28.588  0.00  0.00    -0.044 SA
ATOM      5  N   UNL d   1      58.044  -7.469  28.554  0.00  0.00    -0.221 NA
ATOM      6  C   UNL d   1      57.648  -5.455  28.502  0.00  0.00     0.077 A 
ATOM      7  C   UNL d   1      56.887  -6.823  28.469  0.00  0.00     0.101 A 
ATOM      8  C   UNL d   1      57.239  -7.569  28.502  0.00  0.00     0.101 A 
ATOM      9  C   UNL d   1      57.080  -4.844  28.457  0.00  0.00     0.020 C 
ENDROOT
BRANCH   2  10
ATOM     10  C   UNL d   1      58.886  -4.642  28.575  0.00  0.00     0.287 C 
ATOM     11  N   UNL d   1      58.480  -3.936  28.711  0.00  0.00    -0.208 NA
ATOM     12  O   UNL d   1      59.694  -4.644  28.457  0.00  0.00    -0.265 OA
BRANCH  11  13
ATOM     13  C   UNL d   1      58.901  -3.228  28.728  0.00  0.00     0.085 A 
ATOM     14  C   UNL d   1      58.533  -2.514  28.514  0.00  0.00     0.021 A 
ATOM     15  C   UNL d   1      58.946  -1.807  28.529  0.00  0.00     0.019 A 
ATOM     16  C   UNL d   1      59.742  -1.817  28.764  0.00  0.00     0.064 A 
ATOM     17  C   UNL d   1      60.117  -2.519  28.978  0.00  0.00     0.019 A 
ATOM     18  C   UNL d   1      59.692  -3.218  28.959  0.00  0.00     0.021 A 
BRANCH  16  19
ATOM     19  N   UNL d   1      60.177  -1.117  28.786  0.00  0.00    -0.304 N 
BRANCH  19  20
ATOM     20  C   UNL d   1      60.933  -1.118  29.106  0.00  0.00     0.080 C 
ATOM     21  C   UNL d   1      61.100  -0.652  29.766  0.00  0.00     0.021 C 
ENDBRANCH  19  20
BRANCH  19  22
ATOM     22  C   UNL d   1      59.862  -0.418  28.491  0.00  0.00     0.080 C 
ATOM     23  C   UNL d   1      60.309   0.274  28.484  0.00  0.00     0.021 C 
ENDBRANCH  19  22
ENDBRANCH  16  19
ENDBRANCH  11  13
ENDBRANCH   2  10
BRANCH   8  24
ATOM     24  C   UNL d   1      56.880  -8.302  28.487  0.00  0.00     0.019 A 
ATOM     25  C   UNL d   1      57.327  -8.992  28.470  0.00  0.00     0.002 A 
ATOM     26  C   UNL d   1      56.963  -9.732  28.455  0.00  0.00     0.000 A 
ATOM     27  C   UNL d   1      56.130  -9.787  28.457  0.00  0.00     0.000 A 
ATOM     28  C   UNL d   1      55.683  -9.097  28.473  0.00  0.00     0.000 A 
ATOM     29  C   UNL d   1      56.049  -8.353  28.488  0.00  0.00     0.002 A 
ENDBRANCH   8  24
TORSDOF 6
ENDMDL
