MODEL 1
REMARK VINA RESULT:      54.2      0.000      0.000
REMARK  7 active torsions:
REMARK  status: ('A' for Active; 'I' for Inactive)
REMARK    1  A    between atoms: C_10  and  C_4 
REMARK    2  A    between atoms: N_12  and  C_5 
REMARK    3  A    between atoms: C_11  and  C_8 
REMARK    4  A    between atoms: C_21  and  N_12 
REMARK    5  A    between atoms: N_16  and  C_25 
REMARK    6  A    between atoms: C_20  and  C_21 
REMARK    7  A    between atoms: C_25  and  C_20 
ROOT
ATOM      1  C   UNL d   1      14.074  14.157  -2.887  0.00  0.00     0.168 A 
ATOM      2  N   UNL d   1      14.022  14.787  -3.432  0.00  0.00    -0.184 N 
ATOM      3  N   UNL d   1      13.766  13.430  -3.084  0.00  0.00    -0.231 NA
ATOM      4  C   UNL d   1      14.428  14.274  -2.172  0.00  0.00     0.057 A 
ATOM      5  C   UNL d   1      13.665  14.659  -4.147  0.00  0.00     0.217 A 
ATOM      6  N   UNL d   1      14.680  15.622  -2.523  0.00  0.00    -0.160 NA
ATOM      7  C   UNL d   1      13.354  13.932  -4.350  0.00  0.00     0.067 A 
ATOM      8  C   UNL d   1      13.406  13.306  -3.808  0.00  0.00     0.064 A 
ATOM      9  C   UNL d   1      14.731  15.006  -1.989  0.00  0.00     0.124 A 
ENDROOT
BRANCH   4  10
ATOM     10  C   UNL d   1      14.479  13.657  -1.638  0.00  0.00     0.005 A 
ATOM     11  C   UNL d   1      13.986  13.625  -0.994  0.00  0.00     0.001 A 
ATOM     12  C   UNL d   1      14.037  13.003  -0.455  0.00  0.00     0.011 A 
ATOM     13  C   UNL d   1      14.582  12.419  -0.567  0.00  0.00     0.058 A 
ATOM     14  C   UNL d   1      15.083  12.453  -1.222  0.00  0.00     0.011 A 
ATOM     15 CL   UNL d   1      14.635  11.780  -0.014  0.00  0.00    -0.082 Cl
ATOM     16  C   UNL d   1      15.032  13.060  -1.747  0.00  0.00     0.001 A 
ENDBRANCH   4  10
BRANCH   5  17
ATOM     17  N   UNL d   1      13.612  15.302  -4.703  0.00  0.00    -0.380 NA
BRANCH  17  18
ATOM     18  C   UNL d   1      13.489  15.948  -5.233  0.00  0.00     0.164 C 
BRANCH  18  19
ATOM     19  C   UNL d   1      14.108  16.511  -5.340  0.00  0.00     0.054 C 
BRANCH  19  20
ATOM     20  C   UNL d   1      14.160  16.941  -6.081  0.00  0.00     0.083 C 
BRANCH  20  21
ATOM     21  N   UNL d   1      13.838  17.719  -6.139  0.00  0.00    -0.300 N 
ATOM     22  C   UNL d   1      14.544  18.065  -5.815  0.00  0.00     0.100 C 
ATOM     23  C   UNL d   1      13.199  18.229  -6.354  0.00  0.00     0.100 C 
ENDBRANCH  20  21
ENDBRANCH  19  20
ENDBRANCH  18  19
ENDBRANCH  17  18
ENDBRANCH   5  17
BRANCH   8  24
ATOM     24  C   UNL d   1      13.086  12.541  -4.007  0.00  0.00     0.036 C 
ATOM     25  C   UNL d   1      12.769  11.783  -4.210  0.00  0.00     0.006 C 
ATOM     26  C   UNL d   1      12.809  12.021  -3.389  0.00  0.00     0.006 C 
ATOM     27  C   UNL d   1      13.045  12.302  -4.827  0.00  0.00     0.006 C 
ENDBRANCH   8  24
TORSDOF 7
ENDMDL
