MODEL 1
REMARK VINA RESULT:      -3.9      0.000      0.000
REMARK  4 active torsions:
REMARK  status: ('A' for Active; 'I' for Inactive)
REMARK    1  A    between atoms: C_6  and  C_4 
REMARK    2  A    between atoms: C_9  and  C_6 
REMARK    3  A    between atoms: O_15  and  C_8 
REMARK    4  A    between atoms: O_16  and  C_12 
ROOT
ATOM      1  C   UNL d   1     -41.321-122.328 -52.072  0.00  0.00     0.116 A 
ATOM      2  C   UNL d   1     -41.205-123.138 -50.903  0.00  0.00     0.003 A 
ATOM      3  C   UNL d   1     -41.300-122.400 -51.257  0.00  0.00     0.026 A 
ATOM      4  C   UNL d   1     -41.246-123.002 -52.554  0.00  0.00     0.116 A 
ATOM      5  C   UNL d   1     -41.150-123.744 -52.195  0.00  0.00     0.026 A 
ATOM      6  C   UNL d   1     -41.130-123.816 -51.379  0.00  0.00     0.002 A 
ENDROOT
BRANCH   2   7
ATOM      7  C   UNL d   1     -41.185-123.209 -50.082  0.00  0.00     0.009 C 
BRANCH   7   8
ATOM      8  C   UNL d   1     -41.872-123.370 -49.667  0.00  0.00     0.062 A 
ATOM      9  C   UNL d   1     -41.943-123.415 -48.842  0.00  0.00     0.145 A 
ATOM     10  N   UNL d   1     -42.729-123.588 -48.661  0.00  0.00    -0.191 NA
ATOM     11  S   UNL d   1     -41.331-123.305 -48.304  0.00  0.00    -0.057 SA
ATOM     12  C   UNL d   1     -43.147-123.650 -49.373  0.00  0.00     0.311 A 
ATOM     13  S   UNL d   1     -42.618-123.515 -49.987  0.00  0.00    -0.023 SA
ATOM     14  O   UNL d   1     -43.953-123.817 -49.444  0.00  0.00    -0.258 OA
ENDBRANCH   7   8
ENDBRANCH   2   7
BRANCH   1  15
ATOM     15  O   UNL d   1     -41.416-121.584 -52.419  0.00  0.00    -0.326 OA
ATOM     16  C   UNL d   1     -41.164-120.904 -52.012  0.00  0.00     0.181 C 
ENDBRANCH   1  15
BRANCH   4  17
ATOM     17  O   UNL d   1     -41.266-122.939 -53.369  0.00  0.00    -0.326 OA
ATOM     18  C   UNL d   1     -41.393-123.607 -53.836  0.00  0.00     0.181 C 
ENDBRANCH   4  17
TORSDOF 4
ENDMDL
MODEL 2
REMARK VINA RESULT:      -1.7      1.723      3.618
REMARK  4 active torsions:
REMARK  status: ('A' for Active; 'I' for Inactive)
REMARK    1  A    between atoms: C_6  and  C_4 
REMARK    2  A    between atoms: C_9  and  C_6 
REMARK    3  A    between atoms: O_15  and  C_8 
REMARK    4  A    between atoms: O_16  and  C_12 
ROOT
ATOM      1  C   UNL d   1     -42.863-122.708 -49.453  0.00  0.00     0.116 A 
ATOM      2  C   UNL d   1     -41.600-122.615 -50.111  0.00  0.00     0.003 A 
ATOM      3  C   UNL d   1     -42.388-122.385 -50.037  0.00  0.00     0.026 A 
ATOM      4  C   UNL d   1     -42.555-123.274 -48.927  0.00  0.00     0.116 A 
ATOM      5  C   UNL d   1     -41.760-123.504 -49.005  0.00  0.00     0.026 A 
ATOM      6  C   UNL d   1     -41.285-123.180 -49.588  0.00  0.00     0.002 A 
ENDROOT
BRANCH   2   7
ATOM      7  C   UNL d   1     -41.123-122.289 -50.698  0.00  0.00     0.009 C 
BRANCH   7   8
ATOM      8  C   UNL d   1     -41.244-122.490 -51.483  0.00  0.00     0.062 A 
ATOM      9  C   UNL d   1     -41.246-121.964 -52.124  0.00  0.00     0.145 A 
ATOM     10  N   UNL d   1     -41.389-122.398 -52.811  0.00  0.00    -0.191 NA
ATOM     11  S   UNL d   1     -41.127-121.152 -52.076  0.00  0.00    -0.057 SA
ATOM     12  C   UNL d   1     -41.475-123.194 -52.597  0.00  0.00     0.311 A 
ATOM     13  S   UNL d   1     -41.385-123.245 -51.783  0.00  0.00    -0.023 SA
ATOM     14  O   UNL d   1     -41.624-123.817 -53.117  0.00  0.00    -0.258 OA
ENDBRANCH   7   8
ENDBRANCH   2   7
BRANCH   1  15
ATOM     15  O   UNL d   1     -43.652-122.471 -49.386  0.00  0.00    -0.326 OA
ATOM     16  C   UNL d   1     -44.032-122.113 -50.033  0.00  0.00     0.181 C 
ENDBRANCH   1  15
BRANCH   4  17
ATOM     17  O   UNL d   1     -43.022-123.601 -48.342  0.00  0.00    -0.326 OA
ATOM     18  C   UNL d   1     -42.693-123.817 -47.617  0.00  0.00     0.181 C 
ENDBRANCH   4  17
TORSDOF 4
ENDMDL
