MODEL 1
REMARK VINA RESULT:      -3.4      0.000      0.000
REMARK  2 active torsions:
REMARK  status: ('A' for Active; 'I' for Inactive)
REMARK    1  A    between atoms: C_7  and  C_1 
REMARK    2  A    between atoms: C_9  and  C_1 
ROOT
ATOM      1  C   UNL d   1      31.406  16.743 -23.909  0.00  0.00     0.240 A 
ATOM      2  S   UNL d   1      31.059  17.407 -24.253  0.00  0.00    -0.043 SA
ATOM      3  N   UNL d   1      30.941  16.093 -23.704  0.00  0.00    -0.199 NA
ATOM      4  C   UNL d   1      30.251  17.417 -24.391  0.00  0.00     0.181 A 
ATOM      5  N   UNL d   1      29.770  16.764 -24.187  0.00  0.00    -0.236 N 
ATOM      6  C   UNL d   1      30.129  16.107 -23.843  0.00  0.00     0.352 A 
ATOM      7  N   UNL d   1      29.756  18.000 -24.725  0.00  0.00    -0.219 NA
ATOM      8  O   UNL d   1      29.668  15.455 -23.637  0.00  0.00    -0.244 OA
ATOM      9  C   UNL d   1      28.993  16.947 -24.395  0.00  0.00     0.107 A 
ATOM     10  C   UNL d   1      28.985  17.706 -24.725  0.00  0.00     0.120 A 
ENDROOT
BRANCH   1  11
ATOM     11  C   UNL d   1      31.753  16.081 -23.564  0.00  0.00     0.429 C 
ATOM     12  F   UNL d   1      32.071  15.474 -23.252  0.00  0.00    -0.167 F 
ATOM     13  F   UNL d   1      31.744  15.826 -22.750  0.00  0.00    -0.167 F 
ATOM     14  F   UNL d   1      32.220  15.464 -23.938  0.00  0.00    -0.167 F 
ENDBRANCH   1  11
BRANCH   1  15
ATOM     15  C   UNL d   1      31.864  17.397 -24.116  0.00  0.00     0.016 A 
ATOM     16  C   UNL d   1      32.050  17.960 -23.550  0.00  0.00    -0.001 A 
ATOM     17  C   UNL d   1      32.508  18.613 -23.757  0.00  0.00    -0.000 A 
ATOM     18  C   UNL d   1      32.781  18.704 -24.532  0.00  0.00    -0.000 A 
ATOM     19  C   UNL d   1      32.589  18.132 -25.096  0.00  0.00    -0.000 A 
ATOM     20  C   UNL d   1      33.240  19.358 -24.740  0.00  0.00    -0.000 C 
ATOM     21  C   UNL d   1      32.136  17.486 -24.891  0.00  0.00    -0.001 A 
ENDBRANCH   1  15
TORSDOF 2
ENDMDL
MODEL 2
REMARK VINA RESULT:      -2.2      4.980      6.041
REMARK  2 active torsions:
REMARK  status: ('A' for Active; 'I' for Inactive)
REMARK    1  A    between atoms: C_7  and  C_1 
REMARK    2  A    between atoms: C_9  and  C_1 
ROOT
ATOM      1  C   UNL d   1      32.738  21.570 -21.731  0.00  0.00     0.240 A 
ATOM      2  S   UNL d   1      32.789  22.382 -21.860  0.00  0.00    -0.043 SA
ATOM      3  N   UNL d   1      32.858  21.043 -22.355  0.00  0.00    -0.199 NA
ATOM      4  C   UNL d   1      32.960  22.663 -22.611  0.00  0.00     0.181 A 
ATOM      5  N   UNL d   1      33.083  22.138 -23.252  0.00  0.00    -0.236 N 
ATOM      6  C   UNL d   1      33.029  21.329 -23.108  0.00  0.00     0.352 A 
ATOM      7  N   UNL d   1      33.045  23.440 -22.903  0.00  0.00    -0.219 NA
ATOM      8  O   UNL d   1      33.148  20.798 -23.729  0.00  0.00    -0.244 OA
ATOM      9  C   UNL d   1      33.241  22.590 -23.923  0.00  0.00     0.107 A 
ATOM     10  C   UNL d   1      33.218  23.389 -23.709  0.00  0.00     0.120 A 
ENDROOT
BRANCH   1  11
ATOM     11  C   UNL d   1      32.687  20.758 -21.601  0.00  0.00     0.429 C 
ATOM     12  F   UNL d   1      32.637  20.017 -21.483  0.00  0.00    -0.167 F 
ATOM     13  F   UNL d   1      33.235  20.237 -21.204  0.00  0.00    -0.167 F 
ATOM     14  F   UNL d   1      32.062  20.216 -21.833  0.00  0.00    -0.167 F 
ENDBRANCH   1  11
BRANCH   1  15
ATOM     15  C   UNL d   1      32.620  22.102 -21.112  0.00  0.00     0.016 A 
ATOM     16  C   UNL d   1      33.240  22.284 -20.608  0.00  0.00    -0.001 A 
ATOM     17  C   UNL d   1      33.122  22.817 -19.990  0.00  0.00    -0.000 A 
ATOM     18  C   UNL d   1      32.382  23.168 -19.875  0.00  0.00    -0.000 A 
ATOM     19  C   UNL d   1      31.763  22.978 -20.388  0.00  0.00    -0.000 A 
ATOM     20  C   UNL d   1      32.263  23.700 -19.256  0.00  0.00    -0.000 C 
ATOM     21  C   UNL d   1      31.880  22.451 -21.000  0.00  0.00    -0.001 A 
ENDBRANCH   1  15
TORSDOF 2
ENDMDL
MODEL 3
REMARK VINA RESULT:      -2.0      2.004      2.455
REMARK  2 active torsions:
REMARK  status: ('A' for Active; 'I' for Inactive)
REMARK    1  A    between atoms: C_7  and  C_1 
REMARK    2  A    between atoms: C_9  and  C_1 
ROOT
ATOM      1  C   UNL d   1      29.487  16.375 -23.659  0.00  0.00     0.240 A 
ATOM      2  S   UNL d   1      29.813  16.838 -24.257  0.00  0.00    -0.043 SA
ATOM      3  N   UNL d   1      28.770  16.591 -23.313  0.00  0.00    -0.199 NA
ATOM      4  C   UNL d   1      29.422  17.515 -24.505  0.00  0.00     0.181 A 
ATOM      5  N   UNL d   1      28.695  17.744 -24.161  0.00  0.00    -0.236 N 
ATOM      6  C   UNL d   1      28.380  17.271 -23.565  0.00  0.00     0.352 A 
ATOM      7  N   UNL d   1      29.615  18.081 -25.087  0.00  0.00    -0.219 NA
ATOM      8  O   UNL d   1      27.663  17.483 -23.215  0.00  0.00    -0.244 OA
ATOM      9  C   UNL d   1      28.449  18.439 -24.529  0.00  0.00     0.107 A 
ATOM     10  C   UNL d   1      29.013  18.647 -25.097  0.00  0.00     0.120 A 
ENDROOT
BRANCH   1  11
ATOM     11  C   UNL d   1      29.161  15.911 -23.062  0.00  0.00     0.429 C 
ATOM     12  F   UNL d   1      28.866  15.487 -22.514  0.00  0.00    -0.167 F 
ATOM     13  F   UNL d   1      28.441  15.453 -23.064  0.00  0.00    -0.167 F 
ATOM     14  F   UNL d   1      29.464  15.764 -22.271  0.00  0.00    -0.167 F 
ENDBRANCH   1  11
BRANCH   1  15
ATOM     15  C   UNL d   1      30.203  16.165 -24.010  0.00  0.00     0.016 A 
ATOM     16  C   UNL d   1      30.909  16.408 -23.671  0.00  0.00    -0.001 A 
ATOM     17  C   UNL d   1      31.625  16.198 -24.022  0.00  0.00    -0.000 A 
ATOM     18  C   UNL d   1      31.636  15.744 -24.713  0.00  0.00    -0.000 A 
ATOM     19  C   UNL d   1      30.920  15.504 -25.048  0.00  0.00    -0.000 A 
ATOM     20  C   UNL d   1      32.352  15.534 -25.064  0.00  0.00    -0.000 C 
ATOM     21  C   UNL d   1      30.212  15.712 -24.700  0.00  0.00    -0.001 A 
ENDBRANCH   1  15
TORSDOF 2
ENDMDL
MODEL 4
REMARK VINA RESULT:      -1.8      5.688      6.640
REMARK  2 active torsions:
REMARK  status: ('A' for Active; 'I' for Inactive)
REMARK    1  A    between atoms: C_7  and  C_1 
REMARK    2  A    between atoms: C_9  and  C_1 
ROOT
ATOM      1  C   UNL d   1      32.649  22.486 -21.617  0.00  0.00     0.240 A 
ATOM      2  S   UNL d   1      32.780  21.999 -20.966  0.00  0.00    -0.043 SA
ATOM      3  N   UNL d   1      32.690  22.176 -22.381  0.00  0.00    -0.199 NA
ATOM      4  C   UNL d   1      32.950  21.205 -21.081  0.00  0.00     0.181 A 
ATOM      5  N   UNL d   1      32.994  20.880 -21.851  0.00  0.00    -0.236 N 
ATOM      6  C   UNL d   1      32.862  21.379 -22.493  0.00  0.00     0.352 A 
ATOM      7  N   UNL d   1      33.105  20.590 -20.538  0.00  0.00    -0.219 NA
ATOM      8  O   UNL d   1      32.902  21.073 -23.258  0.00  0.00    -0.244 OA
ATOM      9  C   UNL d   1      33.173  20.079 -21.777  0.00  0.00     0.107 A 
ATOM     10  C   UNL d   1      33.241  19.901 -20.972  0.00  0.00     0.120 A 
ENDROOT
BRANCH   1  11
ATOM     11  C   UNL d   1      32.519  22.974 -22.268  0.00  0.00     0.429 C 
ATOM     12  F   UNL d   1      32.402  23.420 -22.863  0.00  0.00    -0.167 F 
ATOM     13  F   UNL d   1      31.814  23.398 -22.494  0.00  0.00    -0.167 F 
ATOM     14  F   UNL d   1      33.064  23.187 -22.897  0.00  0.00    -0.167 F 
ENDBRANCH   1  11
BRANCH   1  15
ATOM     15  C   UNL d   1      32.610  22.789 -20.851  0.00  0.00     0.016 A 
ATOM     16  C   UNL d   1      31.940  22.658 -20.396  0.00  0.00    -0.001 A 
ATOM     17  C   UNL d   1      31.901  22.961 -19.630  0.00  0.00    -0.000 A 
ATOM     18  C   UNL d   1      32.532  23.395 -19.318  0.00  0.00    -0.000 A 
ATOM     19  C   UNL d   1      33.202  23.522 -19.784  0.00  0.00    -0.000 A 
ATOM     20  C   UNL d   1      32.492  23.698 -18.552  0.00  0.00    -0.000 C 
ATOM     21  C   UNL d   1      33.241  23.222 -20.542  0.00  0.00    -0.001 A 
ENDBRANCH   1  15
TORSDOF 2
ENDMDL
MODEL 5
REMARK VINA RESULT:      -1.1      2.124      2.774
REMARK  2 active torsions:
REMARK  status: ('A' for Active; 'I' for Inactive)
REMARK    1  A    between atoms: C_7  and  C_1 
REMARK    2  A    between atoms: C_9  and  C_1 
ROOT
ATOM      1  C   UNL d   1      29.414  17.288 -24.214  0.00  0.00     0.240 A 
ATOM      2  S   UNL d   1      29.940  16.797 -23.812  0.00  0.00    -0.043 SA
ATOM      3  N   UNL d   1      28.615  17.297 -24.006  0.00  0.00    -0.199 NA
ATOM      4  C   UNL d   1      29.665  16.320 -23.205  0.00  0.00     0.181 A 
ATOM      5  N   UNL d   1      28.858  16.321 -22.985  0.00  0.00    -0.236 N 
ATOM      6  C   UNL d   1      28.343  16.815 -23.396  0.00  0.00     0.352 A 
ATOM      7  N   UNL d   1      30.060  15.777 -22.709  0.00  0.00    -0.219 NA
ATOM      8  O   UNL d   1      27.544  16.828 -23.192  0.00  0.00    -0.244 OA
ATOM      9  C   UNL d   1      28.763  15.786 -22.365  0.00  0.00     0.107 A 
ATOM     10  C   UNL d   1      29.501  15.453 -22.195  0.00  0.00     0.120 A 
ENDROOT
BRANCH   1  11
ATOM     11  C   UNL d   1      28.888  17.778 -24.617  0.00  0.00     0.429 C 
ATOM     12  F   UNL d   1      28.407  18.224 -24.985  0.00  0.00    -0.167 F 
ATOM     13  F   UNL d   1      28.873  18.630 -24.667  0.00  0.00    -0.167 F 
ATOM     14  F   UNL d   1      28.210  17.559 -25.097  0.00  0.00    -0.167 F 
ENDBRANCH   1  11
BRANCH   1  15
ATOM     15  C   UNL d   1      30.213  17.273 -24.416  0.00  0.00     0.016 A 
ATOM     16  C   UNL d   1      30.500  16.673 -24.894  0.00  0.00    -0.001 A 
ATOM     17  C   UNL d   1      31.300  16.658 -25.097  0.00  0.00    -0.000 A 
ATOM     18  C   UNL d   1      31.813  17.245 -24.820  0.00  0.00    -0.000 A 
ATOM     19  C   UNL d   1      31.514  17.846 -24.339  0.00  0.00    -0.000 A 
ATOM     20  C   UNL d   1      32.613  17.231 -25.022  0.00  0.00    -0.000 C 
ATOM     21  C   UNL d   1      30.723  17.860 -24.139  0.00  0.00    -0.001 A 
ENDBRANCH   1  15
TORSDOF 2
ENDMDL
MODEL 6
REMARK VINA RESULT:      -0.9      1.645      2.403
REMARK  2 active torsions:
REMARK  status: ('A' for Active; 'I' for Inactive)
REMARK    1  A    between atoms: C_7  and  C_1 
REMARK    2  A    between atoms: C_9  and  C_1 
ROOT
ATOM      1  C   UNL d   1      31.264  17.521 -24.114  0.00  0.00     0.240 A 
ATOM      2  S   UNL d   1      32.070  17.376 -24.032  0.00  0.00    -0.043 SA
ATOM      3  N   UNL d   1      30.776  16.959 -24.469  0.00  0.00    -0.199 NA
ATOM      4  C   UNL d   1      32.385  16.669 -24.304  0.00  0.00     0.181 A 
ATOM      5  N   UNL d   1      31.899  16.091 -24.666  0.00  0.00    -0.236 N 
ATOM      6  C   UNL d   1      31.094  16.250 -24.741  0.00  0.00     0.352 A 
ATOM      7  N   UNL d   1      33.165  16.374 -24.297  0.00  0.00    -0.219 NA
ATOM      8  O   UNL d   1      30.603  15.690 -25.095  0.00  0.00    -0.244 OA
ATOM      9  C   UNL d   1      32.378  15.453 -24.875  0.00  0.00     0.107 A 
ATOM     10  C   UNL d   1      33.155  15.627 -24.649  0.00  0.00     0.120 A 
ENDROOT
BRANCH   1  11
ATOM     11  C   UNL d   1      30.457  17.668 -24.196  0.00  0.00     0.429 C 
ATOM     12  F   UNL d   1      29.720  17.801 -24.268  0.00  0.00    -0.167 F 
ATOM     13  F   UNL d   1      30.022  17.935 -24.880  0.00  0.00    -0.167 F 
ATOM     14  F   UNL d   1      29.835  17.590 -23.608  0.00  0.00    -0.167 F 
ENDBRANCH   1  11
BRANCH   1  15
ATOM     15  C   UNL d   1      31.758  18.079 -23.761  0.00  0.00     0.016 A 
ATOM     16  C   UNL d   1      32.043  17.948 -23.004  0.00  0.00    -0.001 A 
ATOM     17  C   UNL d   1      32.537  18.506 -22.650  0.00  0.00    -0.000 A 
ATOM     18  C   UNL d   1      32.746  19.196 -23.054  0.00  0.00    -0.000 A 
ATOM     19  C   UNL d   1      32.454  19.320 -23.817  0.00  0.00    -0.000 A 
ATOM     20  C   UNL d   1      33.241  19.754 -22.701  0.00  0.00    -0.000 C 
ATOM     21  C   UNL d   1      31.965  18.768 -24.167  0.00  0.00    -0.001 A 
ENDBRANCH   1  15
TORSDOF 2
ENDMDL
