MODEL 1
REMARK VINA RESULT:      -5.5      0.000      0.000
REMARK  0 active torsions:
REMARK  status: ('A' for Active; 'I' for Inactive)
ROOT
ATOM      1  C   UNL d   1     -41.442-123.188 -52.089  0.00  0.00     0.150 A 
ATOM      2  N   UNL d   1     -41.347-122.478 -51.667  0.00  0.00    -0.275 N 
ATOM      3  N   UNL d   1     -41.558-123.797 -51.562  0.00  0.00    -0.227 NA
ATOM      4  C   UNL d   1     -41.220-121.755 -52.007  0.00  0.00     0.149 A 
ATOM      5  N   UNL d   1     -41.181-121.711 -52.827  0.00  0.00    -0.228 NA
ATOM      6  C   UNL d   1     -41.401-123.126 -52.912  0.00  0.00     0.052 A 
ATOM      7  C   UNL d   1     -41.413-122.701 -50.863  0.00  0.00     0.084 A 
ATOM      8  C   UNL d   1     -41.269-122.379 -53.285  0.00  0.00     0.086 A 
ATOM      9  C   UNL d   1     -41.537-123.471 -50.797  0.00  0.00     0.099 A 
ATOM     10  C   UNL d   1     -41.127-121.062 -51.573  0.00  0.00     0.041 C 
ATOM     11  C   UNL d   1     -41.492-123.817 -53.371  0.00  0.00     0.004 A 
ATOM     12  C   UNL d   1     -41.365-122.227 -50.168  0.00  0.00     0.019 A 
ATOM     13  C   UNL d   1     -41.232-122.345 -54.104  0.00  0.00     0.019 A 
ATOM     14  C   UNL d   1     -41.620-123.817 -50.048  0.00  0.00     0.021 A 
ATOM     15  C   UNL d   1     -41.451-123.756 -54.194  0.00  0.00     0.000 A 
ATOM     16  C   UNL d   1     -41.452-122.596 -49.416  0.00  0.00     0.002 A 
ATOM     17  C   UNL d   1     -41.572-123.350 -49.371  0.00  0.00     0.002 A 
ATOM     18  C   UNL d   1     -41.323-123.030 -54.554  0.00  0.00     0.002 A 
ENDROOT
TORSDOF 0
ENDMDL
MODEL 2
REMARK VINA RESULT:      -4.7      1.103      3.756
REMARK  0 active torsions:
REMARK  status: ('A' for Active; 'I' for Inactive)
ROOT
ATOM      1  C   UNL d   1     -41.898-121.938 -52.968  0.00  0.00     0.150 A 
ATOM      2  N   UNL d   1     -41.691-122.542 -53.501  0.00  0.00    -0.275 N 
ATOM      3  N   UNL d   1     -42.261-121.335 -53.377  0.00  0.00    -0.227 NA
ATOM      4  C   UNL d   1     -41.320-123.230 -53.294  0.00  0.00     0.149 A 
ATOM      5  N   UNL d   1     -41.130-123.348 -52.503  0.00  0.00    -0.228 NA
ATOM      6  C   UNL d   1     -41.700-122.073 -52.177  0.00  0.00     0.052 A 
ATOM      7  C   UNL d   1     -41.952-122.263 -54.246  0.00  0.00     0.084 A 
ATOM      8  C   UNL d   1     -41.312-122.786 -51.942  0.00  0.00     0.086 A 
ATOM      9  C   UNL d   1     -42.286-121.557 -54.178  0.00  0.00     0.099 A 
ATOM     10  C   UNL d   1     -41.123-123.817 -53.836  0.00  0.00     0.041 C 
ATOM     11  C   UNL d   1     -41.891-121.489 -51.612  0.00  0.00     0.004 A 
ATOM     12  C   UNL d   1     -41.901-122.626 -55.005  0.00  0.00     0.019 A 
ATOM     13  C   UNL d   1     -41.126-122.895 -51.151  0.00  0.00     0.019 A 
ATOM     14  C   UNL d   1     -42.586-121.172 -54.848  0.00  0.00     0.021 A 
ATOM     15  C   UNL d   1     -41.693-121.623 -50.821  0.00  0.00     0.000 A 
ATOM     16  C   UNL d   1     -42.211-122.219 -55.673  0.00  0.00     0.002 A 
ATOM     17  C   UNL d   1     -42.534-121.531 -55.587  0.00  0.00     0.002 A 
ATOM     18  C   UNL d   1     -41.317-122.316 -50.595  0.00  0.00     0.002 A 
ENDROOT
TORSDOF 0
ENDMDL
MODEL 3
REMARK VINA RESULT:      -3.8      1.134      2.191
REMARK  0 active torsions:
REMARK  status: ('A' for Active; 'I' for Inactive)
ROOT
ATOM      1  C   UNL d   1     -41.753-121.814 -53.421  0.00  0.00     0.150 A 
ATOM      2  N   UNL d   1     -41.500-122.448 -52.947  0.00  0.00    -0.275 N 
ATOM      3  N   UNL d   1     -41.811-121.144 -52.963  0.00  0.00    -0.227 NA
ATOM      4  C   UNL d   1     -41.380-123.202 -53.213  0.00  0.00     0.149 A 
ATOM      5  N   UNL d   1     -41.518-123.362 -54.008  0.00  0.00    -0.228 NA
ATOM      6  C   UNL d   1     -41.887-121.992 -54.217  0.00  0.00     0.052 A 
ATOM      7  C   UNL d   1     -41.410-122.116 -52.184  0.00  0.00     0.084 A 
ATOM      8  C   UNL d   1     -41.767-122.775 -54.514  0.00  0.00     0.086 A 
ATOM      9  C   UNL d   1     -41.591-121.353 -52.189  0.00  0.00     0.099 A 
ATOM     10  C   UNL d   1     -41.129-123.817 -52.727  0.00  0.00     0.041 C 
ATOM     11  C   UNL d   1     -42.142-121.381 -54.727  0.00  0.00     0.004 A 
ATOM     12  C   UNL d   1     -41.166-122.480 -51.464  0.00  0.00     0.019 A 
ATOM     13  C   UNL d   1     -41.907-122.924 -55.308  0.00  0.00     0.019 A 
ATOM     14  C   UNL d   1     -41.542-120.909 -51.490  0.00  0.00     0.021 A 
ATOM     15  C   UNL d   1     -42.276-121.558 -55.523  0.00  0.00     0.000 A 
ATOM     16  C   UNL d   1     -41.123-122.012 -50.765  0.00  0.00     0.002 A 
ATOM     17  C   UNL d   1     -41.303-121.269 -50.789  0.00  0.00     0.002 A 
ATOM     18  C   UNL d   1     -42.159-122.319 -55.808  0.00  0.00     0.002 A 
ENDROOT
TORSDOF 0
ENDMDL
MODEL 4
REMARK VINA RESULT:      -3.3      0.499      3.160
REMARK  0 active torsions:
REMARK  status: ('A' for Active; 'I' for Inactive)
ROOT
ATOM      1  C   UNL d   1     -41.412-123.186 -51.976  0.00  0.00     0.150 A 
ATOM      2  N   UNL d   1     -41.318-122.474 -52.395  0.00  0.00    -0.275 N 
ATOM      3  N   UNL d   1     -41.501-123.797 -52.506  0.00  0.00    -0.227 NA
ATOM      4  C   UNL d   1     -41.215-121.749 -52.051  0.00  0.00     0.149 A 
ATOM      5  N   UNL d   1     -41.201-121.705 -51.229  0.00  0.00    -0.228 NA
ATOM      6  C   UNL d   1     -41.396-123.124 -51.152  0.00  0.00     0.052 A 
ATOM      7  C   UNL d   1     -41.356-122.698 -53.200  0.00  0.00     0.084 A 
ATOM      8  C   UNL d   1     -41.289-122.375 -50.775  0.00  0.00     0.086 A 
ATOM      9  C   UNL d   1     -41.464-123.470 -53.270  0.00  0.00     0.099 A 
ATOM     10  C   UNL d   1     -41.123-121.054 -52.482  0.00  0.00     0.041 C 
ATOM     11  C   UNL d   1     -41.487-123.818 -50.696  0.00  0.00     0.004 A 
ATOM     12  C   UNL d   1     -41.297-122.222 -53.894  0.00  0.00     0.019 A 
ATOM     13  C   UNL d   1     -41.277-122.341 -49.955  0.00  0.00     0.019 A 
ATOM     14  C   UNL d   1     -41.518-123.817 -54.021  0.00  0.00     0.021 A 
ATOM     15  C   UNL d   1     -41.471-123.756 -49.872  0.00  0.00     0.000 A 
ATOM     16  C   UNL d   1     -41.355-122.593 -54.648  0.00  0.00     0.002 A 
ATOM     17  C   UNL d   1     -41.460-123.349 -54.696  0.00  0.00     0.002 A 
ATOM     18  C   UNL d   1     -41.368-123.028 -49.508  0.00  0.00     0.002 A 
ENDROOT
TORSDOF 0
ENDMDL
