MODEL 1
REMARK VINA RESULT:      -4.8      0.000      0.000
REMARK  1 active torsions:
REMARK  status: ('A' for Active; 'I' for Inactive)
REMARK    1  A    between atoms: N_3  and  C_1 
ROOT
ATOM      1  C   UNL d   1      57.748   0.037  30.964  0.00  0.00     0.110 A 
ATOM      2  C   UNL d   1      57.896  -0.742  30.700  0.00  0.00     0.212 A 
ATOM      3  C   UNL d   1      58.243  -0.862  29.961  0.00  0.00     0.046 A 
ATOM      4  C   UNL d   1      57.951   0.682  30.483  0.00  0.00     0.056 A 
ATOM      5  S   UNL d   1      58.302   0.547  29.738  0.00  0.00    -0.085 SA
ATOM      6  C   UNL d   1      58.446  -0.220  29.482  0.00  0.00     0.033 A 
ATOM      7  C   UNL d   1      58.391  -1.628  29.697  0.00  0.00     0.004 A 
ATOM      8  O   UNL d   1      57.695  -1.383  31.174  0.00  0.00    -0.285 OA
ATOM      9  C   UNL d   1      58.792  -0.348  28.746  0.00  0.00     0.007 A 
ATOM     10  C   UNL d   1      58.733  -1.757  28.969  0.00  0.00     0.000 A 
ATOM     11  C   UNL d   1      58.938  -1.106  28.484  0.00  0.00     0.001 A 
ATOM     12  C   UNL d   1      58.883  -2.518  28.701  0.00  0.00     0.000 C 
ENDROOT
BRANCH   1  13
ATOM     13  N   UNL d   1      57.400   0.167  31.703  0.00  0.00    -0.301 N 
ATOM     14  C   UNL d   1      56.636  -0.079  31.845  0.00  0.00     0.080 A 
ATOM     15  C   UNL d   1      56.283   0.049  32.584  0.00  0.00     0.018 A 
ATOM     16  C   UNL d   1      55.515  -0.199  32.726  0.00  0.00     0.002 A 
ATOM     17  C   UNL d   1      56.708   0.427  33.177  0.00  0.00     0.003 A 
ATOM     18  C   UNL d   1      55.165  -0.071  33.462  0.00  0.00     0.000 A 
ATOM     19  C   UNL d   1      55.592   0.309  34.058  0.00  0.00     0.000 A 
ATOM     20  C   UNL d   1      56.368   0.559  33.915  0.00  0.00     0.000 A 
ATOM     21  C   UNL d   1      57.493   0.682  33.039  0.00  0.00     0.019 A 
ATOM     22  C   UNL d   1      57.829   0.548  32.302  0.00  0.00     0.080 A 
ENDBRANCH   1  13
TORSDOF 1
ENDMDL
MODEL 2
REMARK VINA RESULT:      -2.4      1.136      4.449
REMARK  1 active torsions:
REMARK  status: ('A' for Active; 'I' for Inactive)
REMARK    1  A    between atoms: N_3  and  C_1 
ROOT
ATOM      1  C   UNL d   1      57.158  -0.589  31.477  0.00  0.00     0.110 A 
ATOM      2  C   UNL d   1      57.128  -0.066  32.129  0.00  0.00     0.212 A 
ATOM      3  C   UNL d   1      56.591  -0.208  32.739  0.00  0.00     0.046 A 
ATOM      4  C   UNL d   1      56.649  -1.244  31.449  0.00  0.00     0.056 A 
ATOM      5  S   UNL d   1      56.111  -1.376  32.073  0.00  0.00    -0.085 SA
ATOM      6  C   UNL d   1      56.085  -0.859  32.711  0.00  0.00     0.033 A 
ATOM      7  C   UNL d   1      56.558   0.305  33.384  0.00  0.00     0.004 A 
ATOM      8  O   UNL d   1      57.631   0.583  32.159  0.00  0.00    -0.285 OA
ATOM      9  C   UNL d   1      55.551  -0.994  33.325  0.00  0.00     0.007 A 
ATOM     10  C   UNL d   1      56.032   0.174  33.991  0.00  0.00     0.000 A 
ATOM     11  C   UNL d   1      55.519  -0.487  33.963  0.00  0.00     0.001 A 
ATOM     12  C   UNL d   1      55.994   0.681  34.635  0.00  0.00     0.000 C 
ENDROOT
BRANCH   1  13
ATOM     13  N   UNL d   1      57.693  -0.455  30.860  0.00  0.00    -0.301 N 
ATOM     14  C   UNL d   1      57.940  -1.073  30.391  0.00  0.00     0.080 A 
ATOM     15  C   UNL d   1      58.476  -0.944  29.772  0.00  0.00     0.018 A 
ATOM     16  C   UNL d   1      58.724  -1.567  29.301  0.00  0.00     0.002 A 
ATOM     17  C   UNL d   1      58.759  -0.185  29.632  0.00  0.00     0.003 A 
ATOM     18  C   UNL d   1      59.258  -1.437  28.685  0.00  0.00     0.000 A 
ATOM     19  C   UNL d   1      59.542  -0.674  28.544  0.00  0.00     0.000 A 
ATOM     20  C   UNL d   1      59.292  -0.045  29.020  0.00  0.00     0.000 A 
ATOM     21  C   UNL d   1      58.510   0.455  30.110  0.00  0.00     0.019 A 
ATOM     22  C   UNL d   1      57.979   0.311  30.719  0.00  0.00     0.080 A 
ENDBRANCH   1  13
TORSDOF 1
ENDMDL
MODEL 3
REMARK VINA RESULT:      -2.3      1.698      4.746
REMARK  1 active torsions:
REMARK  status: ('A' for Active; 'I' for Inactive)
REMARK    1  A    between atoms: N_3  and  C_1 
ROOT
ATOM      1  C   UNL d   1      56.974   0.517  32.865  0.00  0.00     0.110 A 
ATOM      2  C   UNL d   1      56.139   0.522  32.884  0.00  0.00     0.212 A 
ATOM      3  C   UNL d   1      55.748   0.576  33.608  0.00  0.00     0.046 A 
ATOM      4  C   UNL d   1      57.403   0.566  33.574  0.00  0.00     0.056 A 
ATOM      5  S   UNL d   1      56.996   0.619  34.301  0.00  0.00    -0.085 SA
ATOM      6  C   UNL d   1      56.175   0.624  34.314  0.00  0.00     0.033 A 
ATOM      7  C   UNL d   1      54.924   0.581  33.631  0.00  0.00     0.004 A 
ATOM      8  O   UNL d   1      55.712   0.475  32.183  0.00  0.00    -0.285 OA
ATOM      9  C   UNL d   1      55.778   0.676  35.034  0.00  0.00     0.007 A 
ATOM     10  C   UNL d   1      54.530   0.633  34.341  0.00  0.00     0.000 A 
ATOM     11  C   UNL d   1      54.962   0.682  35.056  0.00  0.00     0.001 A 
ATOM     12  C   UNL d   1      53.710   0.639  34.369  0.00  0.00     0.000 C 
ENDROOT
BRANCH   1  13
ATOM     13  N   UNL d   1      57.375   0.464  32.143  0.00  0.00    -0.301 N 
ATOM     14  C   UNL d   1      58.178   0.599  32.110  0.00  0.00     0.080 A 
ATOM     15  C   UNL d   1      58.583   0.547  31.389  0.00  0.00     0.018 A 
ATOM     16  C   UNL d   1      59.391   0.682  31.356  0.00  0.00     0.002 A 
ATOM     17  C   UNL d   1      58.171   0.358  30.704  0.00  0.00     0.003 A 
ATOM     18  C   UNL d   1      59.793   0.630  30.637  0.00  0.00     0.000 A 
ATOM     19  C   UNL d   1      59.378   0.440  29.948  0.00  0.00     0.000 A 
ATOM     20  C   UNL d   1      58.563   0.304  29.982  0.00  0.00     0.000 A 
ATOM     21  C   UNL d   1      57.346   0.219  30.730  0.00  0.00     0.019 A 
ATOM     22  C   UNL d   1      56.959   0.274  31.452  0.00  0.00     0.080 A 
ENDBRANCH   1  13
TORSDOF 1
ENDMDL
