MODEL 1
REMARK VINA RESULT:      -9.4      0.000      0.000
REMARK  1 active torsions:
REMARK  status: ('A' for Active; 'I' for Inactive)
REMARK    1  A    between atoms: C_8  and  C_2 
ROOT
ATOM      1  N   UNL d   1     -47.126  11.700  23.367  0.00  0.00    -0.191 NA
ATOM      2  C   UNL d   1     -47.614  12.301  23.133  0.00  0.00     0.087 A 
ATOM      3  C   UNL d   1     -46.307  11.852  23.459  0.00  0.00     0.369 A 
ATOM      4  N   UNL d   1     -45.993  12.601  23.314  0.00  0.00    -0.191 NA
ATOM      5  C   UNL d   1     -47.333  13.053  22.982  0.00  0.00     0.036 A 
ATOM      6  C   UNL d   1     -46.515  13.205  23.074  0.00  0.00     0.088 A 
ATOM      7  O   UNL d   1     -45.786  11.251  23.698  0.00  0.00    -0.242 OA
ATOM      8  C   UNL d   1     -47.821  13.654  22.748  0.00  0.00     0.003 A 
ATOM      9  C   UNL d   1     -46.200  13.954  22.930  0.00  0.00     0.019 A 
ATOM     10  C   UNL d   1     -47.538  14.397  22.600  0.00  0.00     0.000 A 
ATOM     11  C   UNL d   1     -46.720  14.548  22.692  0.00  0.00     0.002 A 
ENDROOT
BRANCH   2  12
ATOM     12  C   UNL d   1     -48.433  12.149  23.041  0.00  0.00     0.018 A 
ATOM     13  C   UNL d   1     -48.719  11.964  22.308  0.00  0.00     0.002 A 
ATOM     14  C   UNL d   1     -49.548  11.811  22.215  0.00  0.00     0.000 A 
ATOM     15  C   UNL d   1     -50.032  11.854  22.862  0.00  0.00     0.000 A 
ATOM     16  C   UNL d   1     -49.746  12.040  23.605  0.00  0.00     0.000 A 
ATOM     17  C   UNL d   1     -48.917  12.194  23.698  0.00  0.00     0.002 A 
ENDBRANCH   2  12
TORSDOF 1
ENDMDL
MODEL 2
REMARK VINA RESULT:      -8.8      1.444      2.120
REMARK  1 active torsions:
REMARK  status: ('A' for Active; 'I' for Inactive)
REMARK    1  A    between atoms: C_8  and  C_2 
ROOT
ATOM      1  N   UNL d   1     -47.190  14.026  22.683  0.00  0.00    -0.191 NA
ATOM      2  C   UNL d   1     -47.762  13.457  22.743  0.00  0.00     0.087 A 
ATOM      3  C   UNL d   1     -46.416  13.855  22.952  0.00  0.00     0.369 A 
ATOM      4  N   UNL d   1     -46.228  13.119  23.275  0.00  0.00    -0.191 NA
ATOM      5  C   UNL d   1     -47.608  12.719  23.058  0.00  0.00     0.036 A 
ATOM      6  C   UNL d   1     -46.834  12.548  23.326  0.00  0.00     0.088 A 
ATOM      7  O   UNL d   1     -45.811  14.422  22.902  0.00  0.00    -0.242 OA
ATOM      8  C   UNL d   1     -48.180  12.151  23.117  0.00  0.00     0.003 A 
ATOM      9  C   UNL d   1     -46.647  11.812  23.649  0.00  0.00     0.019 A 
ATOM     10  C   UNL d   1     -48.023  11.422  23.429  0.00  0.00     0.000 A 
ATOM     11  C   UNL d   1     -47.249  11.251  23.698  0.00  0.00     0.002 A 
ENDROOT
BRANCH   2  12
ATOM     12  C   UNL d   1     -48.537  13.628  22.474  0.00  0.00     0.018 A 
ATOM     13  C   UNL d   1     -48.747  13.423  21.720  0.00  0.00     0.002 A 
ATOM     14  C   UNL d   1     -49.531  13.596  21.448  0.00  0.00     0.000 A 
ATOM     15  C   UNL d   1     -50.050  13.962  21.948  0.00  0.00     0.000 A 
ATOM     16  C   UNL d   1     -49.842  14.172  22.710  0.00  0.00     0.000 A 
ATOM     17  C   UNL d   1     -49.058  13.999  22.983  0.00  0.00     0.002 A 
ENDBRANCH   2  12
TORSDOF 1
ENDMDL
MODEL 3
REMARK VINA RESULT:      -8.4      1.587      2.173
REMARK  1 active torsions:
REMARK  status: ('A' for Active; 'I' for Inactive)
REMARK    1  A    between atoms: C_8  and  C_2 
ROOT
ATOM      1  N   UNL d   1     -49.030  12.459  23.289  0.00  0.00    -0.191 NA
ATOM      2  C   UNL d   1     -48.649  13.142  23.082  0.00  0.00     0.087 A 
ATOM      3  C   UNL d   1     -48.577  11.782  23.482  0.00  0.00     0.369 A 
ATOM      4  N   UNL d   1     -47.753  11.800  23.464  0.00  0.00    -0.191 NA
ATOM      5  C   UNL d   1     -47.834  13.192  23.054  0.00  0.00     0.036 A 
ATOM      6  C   UNL d   1     -47.381  12.514  23.247  0.00  0.00     0.088 A 
ATOM      7  O   UNL d   1     -48.945  11.070  23.698  0.00  0.00    -0.242 OA
ATOM      8  C   UNL d   1     -47.453  13.874  22.847  0.00  0.00     0.003 A 
ATOM      9  C   UNL d   1     -46.557  12.532  23.229  0.00  0.00     0.019 A 
ATOM     10  C   UNL d   1     -46.646  13.919  22.821  0.00  0.00     0.000 A 
ATOM     11  C   UNL d   1     -46.194  13.242  23.014  0.00  0.00     0.002 A 
ENDROOT
BRANCH   2  12
ATOM     12  C   UNL d   1     -49.102  13.820  22.889  0.00  0.00     0.018 A 
ATOM     13  C   UNL d   1     -49.277  14.355  23.469  0.00  0.00     0.002 A 
ATOM     14  C   UNL d   1     -49.736  15.041  23.274  0.00  0.00     0.000 A 
ATOM     15  C   UNL d   1     -49.987  15.143  22.512  0.00  0.00     0.000 A 
ATOM     16  C   UNL d   1     -49.812  14.605  21.922  0.00  0.00     0.000 A 
ATOM     17  C   UNL d   1     -49.354  13.919  22.118  0.00  0.00     0.002 A 
ENDBRANCH   2  12
TORSDOF 1
ENDMDL
MODEL 4
REMARK VINA RESULT:      -8.4      1.195      2.935
REMARK  1 active torsions:
REMARK  status: ('A' for Active; 'I' for Inactive)
REMARK    1  A    between atoms: C_8  and  C_2 
ROOT
ATOM      1  N   UNL d   1     -47.794  11.925  23.181  0.00  0.00    -0.191 NA
ATOM      2  C   UNL d   1     -47.837  12.568  22.692  0.00  0.00     0.087 A 
ATOM      3  C   UNL d   1     -48.435  11.387  23.204  0.00  0.00     0.369 A 
ATOM      4  N   UNL d   1     -49.106  11.502  22.738  0.00  0.00    -0.191 NA
ATOM      5  C   UNL d   1     -48.488  12.709  22.218  0.00  0.00     0.036 A 
ATOM      6  C   UNL d   1     -49.128  12.171  22.242  0.00  0.00     0.088 A 
ATOM      7  O   UNL d   1     -48.414  10.720  23.698  0.00  0.00    -0.242 OA
ATOM      8  C   UNL d   1     -48.531  13.352  21.730  0.00  0.00     0.003 A 
ATOM      9  C   UNL d   1     -49.799  12.286  21.776  0.00  0.00     0.019 A 
ATOM     10  C   UNL d   1     -49.177  13.488  21.263  0.00  0.00     0.000 A 
ATOM     11  C   UNL d   1     -49.817  12.950  21.286  0.00  0.00     0.002 A 
ENDROOT
BRANCH   2  12
ATOM     12  C   UNL d   1     -47.195  13.107  22.669  0.00  0.00     0.018 A 
ATOM     13  C   UNL d   1     -47.267  13.821  23.040  0.00  0.00     0.002 A 
ATOM     14  C   UNL d   1     -46.618  14.367  23.017  0.00  0.00     0.000 A 
ATOM     15  C   UNL d   1     -45.943  14.159  22.623  0.00  0.00     0.000 A 
ATOM     16  C   UNL d   1     -45.866  13.438  22.246  0.00  0.00     0.000 A 
ATOM     17  C   UNL d   1     -46.515  12.893  22.270  0.00  0.00     0.002 A 
ENDBRANCH   2  12
TORSDOF 1
ENDMDL
MODEL 5
REMARK VINA RESULT:      -8.3      2.104      3.403
REMARK  1 active torsions:
REMARK  status: ('A' for Active; 'I' for Inactive)
REMARK    1  A    between atoms: C_8  and  C_2 
ROOT
ATOM      1  N   UNL d   1     -48.394  14.569  22.982  0.00  0.00    -0.191 NA
ATOM      2  C   UNL d   1     -48.271  13.829  22.680  0.00  0.00     0.087 A 
ATOM      3  C   UNL d   1     -49.131  14.944  22.853  0.00  0.00     0.369 A 
ATOM      4  N   UNL d   1     -49.731  14.573  22.425  0.00  0.00    -0.191 NA
ATOM      5  C   UNL d   1     -48.845  13.434  22.252  0.00  0.00     0.036 A 
ATOM      6  C   UNL d   1     -49.581  13.810  22.123  0.00  0.00     0.088 A 
ATOM      7  O   UNL d   1     -49.282  15.704  23.152  0.00  0.00    -0.242 OA
ATOM      8  C   UNL d   1     -48.721  12.695  21.951  0.00  0.00     0.003 A 
ATOM      9  C   UNL d   1     -50.181  13.438  21.696  0.00  0.00     0.019 A 
ATOM     10  C   UNL d   1     -49.292  12.308  21.528  0.00  0.00     0.000 A 
ATOM     11  C   UNL d   1     -50.029  12.683  21.399  0.00  0.00     0.002 A 
ENDROOT
BRANCH   2  12
ATOM     12  C   UNL d   1     -47.533  13.453  22.809  0.00  0.00     0.018 A 
ATOM     13  C   UNL d   1     -47.461  12.926  23.417  0.00  0.00     0.002 A 
ATOM     14  C   UNL d   1     -46.714  12.545  23.548  0.00  0.00     0.000 A 
ATOM     15  C   UNL d   1     -46.093  12.720  23.061  0.00  0.00     0.000 A 
ATOM     16  C   UNL d   1     -46.161  13.252  22.445  0.00  0.00     0.000 A 
ATOM     17  C   UNL d   1     -46.908  13.633  22.314  0.00  0.00     0.002 A 
ENDBRANCH   2  12
TORSDOF 1
ENDMDL
