MODEL 1
REMARK VINA RESULT:      70.4      0.000      0.000
REMARK  4 active torsions:
REMARK  status: ('A' for Active; 'I' for Inactive)
REMARK    1  A    between atoms: N_7  and  C_1 
REMARK    2  A    between atoms: C_12  and  N_4 
REMARK    3  A    between atoms: S_6  and  N_7 
REMARK    4  A    between atoms: C_11  and  S_6 
ROOT
ATOM      1  C   UNL d   1      60.230  49.072  51.076  0.00  0.00     0.169 A 
ATOM      2  C   UNL d   1      60.181  48.366  50.640  0.00  0.00     0.299 A 
ATOM      3  N   UNL d   1      61.334  48.355  51.314  0.00  0.00    -0.238 N 
ATOM      4  N   UNL d   1      60.850  47.928  50.783  0.00  0.00    -0.209 N 
ATOM      5  C   UNL d   1      60.907  49.078  51.479  0.00  0.00     0.105 A 
ATOM      6  O   UNL d   1      59.538  48.148  50.136  0.00  0.00    -0.263 OA
ATOM      7  C   UNL d   1      62.061  48.122  51.609  0.00  0.00     0.120 C 
ATOM      8  C   UNL d   1      61.165  49.707  51.993  0.00  0.00     0.022 C 
ENDROOT
BRANCH   1   9
ATOM      9  N   UNL d   1      59.647  49.705  51.096  0.00  0.00    -0.152 NA
BRANCH   9  10
ATOM     10  S   UNL d   1      58.936  49.640  50.686  0.00  0.00     0.285 S 
ATOM     11  O   UNL d   1      59.340  49.708  49.973  0.00  0.00    -0.198 OA
ATOM     12  O   UNL d   1      58.518  49.569  51.429  0.00  0.00    -0.198 OA
BRANCH  10  13
ATOM     13  C   UNL d   1      58.220  49.574  50.287  0.00  0.00     0.105 A 
ATOM     14  C   UNL d   1      57.507  49.504  50.710  0.00  0.00     0.013 A 
ATOM     15  C   UNL d   1      56.776  49.437  50.314  0.00  0.00     0.001 A 
ATOM     16  C   UNL d   1      56.773  49.440  49.499  0.00  0.00     0.000 A 
ATOM     17  C   UNL d   1      57.498  49.511  49.059  0.00  0.00     0.001 A 
ATOM     18  C   UNL d   1      58.200  49.576  49.442  0.00  0.00     0.013 A 
ENDBRANCH  10  13
ENDBRANCH   9  10
ENDBRANCH   1   9
BRANCH   4  19
ATOM     19  C   UNL d   1      61.008  47.188  50.451  0.00  0.00     0.085 A 
ATOM     20  C   UNL d   1      60.500  46.551  50.575  0.00  0.00     0.019 A 
ATOM     21  C   UNL d   1      60.661  45.808  50.240  0.00  0.00     0.002 A 
ATOM     22  C   UNL d   1      61.323  45.704  49.786  0.00  0.00     0.000 A 
ATOM     23  C   UNL d   1      61.828  46.338  49.662  0.00  0.00     0.002 A 
ATOM     24  C   UNL d   1      61.676  47.077  49.991  0.00  0.00     0.019 A 
ENDBRANCH   4  19
TORSDOF 4
ENDMDL
