MODEL 1
REMARK VINA RESULT:      -1.7      0.000      0.000
REMARK  4 active torsions:
REMARK  status: ('A' for Active; 'I' for Inactive)
REMARK    1  A    between atoms: C_2  and  N_1 
REMARK       I    between atoms: C_4  and  N_1 
REMARK    2  A    between atoms: C_3  and  C_2 
REMARK    3  A    between atoms: N_5  and  C_2 
REMARK    4  A    between atoms: C_6  and  C_4 
ROOT
ATOM      1  C   UNL d   1      59.479  -0.818  28.891  0.00  0.00     0.170 C 
ENDROOT
BRANCH   1   2
ATOM      2  N   UNL d   1      58.929  -0.343  28.466  0.00  0.00    -0.191 NA
ATOM      3  C   UNL d   1      58.409   0.184  28.882  0.00  0.00     0.280 C 
ATOM      4  O   UNL d   1      57.835   0.681  28.455  0.00  0.00    -0.265 OA
BRANCH   3   5
ATOM      5  C   UNL d   1      58.457   0.219  29.713  0.00  0.00     0.058 A 
ATOM      6  C   UNL d   1      59.057   0.651  30.100  0.00  0.00     0.007 A 
ATOM      7  C   UNL d   1      59.086   0.672  30.927  0.00  0.00     0.030 A 
ATOM      8  C   UNL d   1      58.529   0.270  31.385  0.00  0.00     0.140 A 
ATOM      9  C   UNL d   1      57.930  -0.163  30.998  0.00  0.00     0.030 A 
ATOM     10  F   UNL d   1      58.542   0.279  32.136  0.00  0.00    -0.204 F 
ATOM     11  C   UNL d   1      57.893  -0.189  30.145  0.00  0.00     0.007 A 
ENDBRANCH   3   5
ENDBRANCH   1   2
BRANCH   1  12
ATOM     12  C   UNL d   1      60.165  -0.622  29.223  0.00  0.00     0.249 C 
ATOM     13 CL   UNL d   1      61.075  -0.295  29.473  0.00  0.00    -0.075 Cl
ATOM     14 CL   UNL d   1      60.675  -0.209  28.689  0.00  0.00    -0.075 Cl
ATOM     15 CL   UNL d   1      60.156  -0.808  29.758  0.00  0.00    -0.075 Cl
ENDBRANCH   1  12
BRANCH   1  16
ATOM     16  N   UNL d   1      59.318  -1.603  28.997  0.00  0.00    -0.286 N 
ATOM     17  C   UNL d   1      59.711  -2.041  29.547  0.00  0.00     0.108 A 
ATOM     18  C   UNL d   1      59.543  -2.833  29.649  0.00  0.00     0.142 A 
ATOM     19  O   UNL d   1      58.974  -3.178  29.188  0.00  0.00    -0.300 OA
ATOM     20  C   UNL d   1      58.584  -2.748  28.644  0.00  0.00     0.142 A 
ATOM     21  C   UNL d   1      58.759  -1.961  28.551  0.00  0.00     0.108 A 
ENDBRANCH   1  16
TORSDOF 4
ENDMDL
MODEL 2
REMARK VINA RESULT:      -0.2      1.934      3.145
REMARK  4 active torsions:
REMARK  status: ('A' for Active; 'I' for Inactive)
REMARK    1  A    between atoms: C_2  and  N_1 
REMARK       I    between atoms: C_4  and  N_1 
REMARK    2  A    between atoms: C_3  and  C_2 
REMARK    3  A    between atoms: N_5  and  C_2 
REMARK    4  A    between atoms: C_6  and  C_4 
ROOT
ATOM      1  C   UNL d   1      58.865   0.356  29.839  0.00  0.00     0.170 C 
ENDROOT
BRANCH   1   2
ATOM      2  N   UNL d   1      59.704   0.337  29.770  0.00  0.00    -0.191 NA
ATOM      3  C   UNL d   1      60.099  -0.380  29.545  0.00  0.00     0.280 C 
ATOM      4  O   UNL d   1      60.966  -0.414  29.469  0.00  0.00    -0.265 OA
BRANCH   3   5
ATOM      5  C   UNL d   1      59.639  -1.059  29.397  0.00  0.00     0.058 A 
ATOM      6  C   UNL d   1      59.411  -1.577  30.010  0.00  0.00     0.007 A 
ATOM      7  C   UNL d   1      58.953  -2.246  29.840  0.00  0.00     0.030 A 
ATOM      8  C   UNL d   1      58.714  -2.416  29.069  0.00  0.00     0.140 A 
ATOM      9  C   UNL d   1      58.942  -1.897  28.455  0.00  0.00     0.030 A 
ATOM     10  F   UNL d   1      58.299  -3.018  28.898  0.00  0.00    -0.204 F 
ATOM     11  C   UNL d   1      59.413  -1.206  28.623  0.00  0.00     0.007 A 
ENDBRANCH   3   5
ENDBRANCH   1   2
BRANCH   1  12
ATOM     12  C   UNL d   1      58.313   0.384  29.279  0.00  0.00     0.249 C 
ATOM     13 CL   UNL d   1      57.753   0.489  28.459  0.00  0.00    -0.075 Cl
ATOM     14 CL   UNL d   1      58.612   0.682  28.546  0.00  0.00    -0.075 Cl
ATOM     15 CL   UNL d   1      57.830   0.192  29.504  0.00  0.00    -0.075 Cl
ENDBRANCH   1  12
BRANCH   1  16
ATOM     16  N   UNL d   1      58.534   0.345  30.575  0.00  0.00    -0.286 N 
ATOM     17  C   UNL d   1      57.818  -0.001  30.708  0.00  0.00     0.108 A 
ATOM     18  C   UNL d   1      57.489  -0.009  31.455  0.00  0.00     0.142 A 
ATOM     19  O   UNL d   1      57.891   0.337  32.066  0.00  0.00    -0.300 OA
ATOM     20  C   UNL d   1      58.597   0.680  31.939  0.00  0.00     0.142 A 
ATOM     21  C   UNL d   1      58.916   0.682  31.192  0.00  0.00     0.108 A 
ENDBRANCH   1  16
TORSDOF 4
ENDMDL
MODEL 3
REMARK VINA RESULT:      -0.0      9.195     10.089
REMARK  4 active torsions:
REMARK  status: ('A' for Active; 'I' for Inactive)
REMARK    1  A    between atoms: C_2  and  N_1 
REMARK       I    between atoms: C_4  and  N_1 
REMARK    2  A    between atoms: C_3  and  C_2 
REMARK    3  A    between atoms: N_5  and  C_2 
REMARK    4  A    between atoms: C_6  and  C_4 
ROOT
ATOM      1  C   UNL d   1      60.014  -8.729  35.570  0.00  0.00     0.170 C 
ENDROOT
BRANCH   1   2
ATOM      2  N   UNL d   1      60.644  -8.987  35.075  0.00  0.00    -0.191 NA
ATOM      3  C   UNL d   1      60.490  -9.220  34.272  0.00  0.00     0.280 C 
ATOM      4  O   UNL d   1      61.132  -9.489  33.749  0.00  0.00    -0.265 OA
BRANCH   3   5
ATOM      5  C   UNL d   1      59.707  -9.185  33.991  0.00  0.00     0.058 A 
ATOM      6  C   UNL d   1      59.171  -9.815  34.106  0.00  0.00     0.007 A 
ATOM      7  C   UNL d   1      58.397  -9.761  33.818  0.00  0.00     0.030 A 
ATOM      8  C   UNL d   1      58.137  -9.089  33.414  0.00  0.00     0.140 A 
ATOM      9  C   UNL d   1      58.673  -8.459  33.300  0.00  0.00     0.030 A 
ATOM     10  F   UNL d   1      57.439  -9.024  33.147  0.00  0.00    -0.204 F 
ATOM     11  C   UNL d   1      59.473  -8.509  33.594  0.00  0.00     0.007 A 
ENDBRANCH   3   5
ENDBRANCH   1   2
BRANCH   1  12
ATOM     12  C   UNL d   1      59.413  -9.135  35.874  0.00  0.00     0.249 C 
ATOM     13 CL   UNL d   1      58.786  -9.766  36.329  0.00  0.00    -0.075 Cl
ATOM     14 CL   UNL d   1      59.670  -9.813  36.310  0.00  0.00    -0.075 Cl
ATOM     15 CL   UNL d   1      58.935  -8.871  35.725  0.00  0.00    -0.075 Cl
ENDBRANCH   1  12
BRANCH   1  16
ATOM     16  N   UNL d   1      59.984  -7.953  35.791  0.00  0.00    -0.286 N 
ATOM     17  C   UNL d   1      59.288  -7.601  35.993  0.00  0.00     0.108 A 
ATOM     18  C   UNL d   1      59.265  -6.817  36.216  0.00  0.00     0.142 A 
ATOM     19  O   UNL d   1      59.953  -6.391  36.233  0.00  0.00    -0.300 OA
ATOM     20  C   UNL d   1      60.642  -6.735  36.035  0.00  0.00     0.142 A 
ATOM     21  C   UNL d   1      60.654  -7.517  35.814  0.00  0.00     0.108 A 
ENDBRANCH   1  16
TORSDOF 4
ENDMDL
MODEL 4
REMARK VINA RESULT:       0.2      1.569      1.964
REMARK  4 active torsions:
REMARK  status: ('A' for Active; 'I' for Inactive)
REMARK    1  A    between atoms: C_2  and  N_1 
REMARK       I    between atoms: C_4  and  N_1 
REMARK    2  A    between atoms: C_3  and  C_2 
REMARK    3  A    between atoms: N_5  and  C_2 
REMARK    4  A    between atoms: C_6  and  C_4 
ROOT
ATOM      1  C   UNL d   1      58.871  -0.194  29.419  0.00  0.00     0.170 C 
ENDROOT
BRANCH   1   2
ATOM      2  N   UNL d   1      59.403   0.160  29.967  0.00  0.00    -0.191 NA
ATOM      3  C   UNL d   1      59.154   0.315  30.764  0.00  0.00     0.280 C 
ATOM      4  O   UNL d   1      59.694   0.682  31.342  0.00  0.00    -0.265 OA
BRANCH   3   5
ATOM      5  C   UNL d   1      58.379   0.110  30.987  0.00  0.00     0.058 A 
ATOM      6  C   UNL d   1      57.775   0.682  31.054  0.00  0.00     0.007 A 
ATOM      7  C   UNL d   1      57.010   0.455  31.277  0.00  0.00     0.030 A 
ATOM      8  C   UNL d   1      56.828  -0.333  31.438  0.00  0.00     0.140 A 
ATOM      9  C   UNL d   1      57.432  -0.906  31.372  0.00  0.00     0.030 A 
ATOM     10  F   UNL d   1      56.140  -0.555  31.642  0.00  0.00    -0.204 F 
ATOM     11  C   UNL d   1      58.222  -0.679  31.142  0.00  0.00     0.007 A 
ENDBRANCH   3   5
ENDBRANCH   1   2
BRANCH   1  12
ATOM     12  C   UNL d   1      58.250   0.114  29.047  0.00  0.00     0.249 C 
ATOM     13 CL   UNL d   1      57.592   0.605  28.478  0.00  0.00    -0.075 Cl
ATOM     14 CL   UNL d   1      58.474   0.681  28.460  0.00  0.00    -0.075 Cl
ATOM     15 CL   UNL d   1      57.784  -0.123  29.266  0.00  0.00    -0.075 Cl
ENDBRANCH   1  12
BRANCH   1  16
ATOM     16  N   UNL d   1      58.979  -0.968  29.214  0.00  0.00    -0.286 N 
ATOM     17  C   UNL d   1      58.377  -1.410  28.913  0.00  0.00     0.108 A 
ATOM     18  C   UNL d   1      58.493  -2.192  28.709  0.00  0.00     0.142 A 
ATOM     19  O   UNL d   1      59.225  -2.522  28.812  0.00  0.00    -0.300 OA
ATOM     20  C   UNL d   1      59.822  -2.088  29.109  0.00  0.00     0.142 A 
ATOM     21  C   UNL d   1      59.695  -1.312  29.309  0.00  0.00     0.108 A 
ENDBRANCH   1  16
TORSDOF 4
ENDMDL
MODEL 5
REMARK VINA RESULT:       1.0      1.820      2.973
REMARK  4 active torsions:
REMARK  status: ('A' for Active; 'I' for Inactive)
REMARK    1  A    between atoms: C_2  and  N_1 
REMARK       I    between atoms: C_4  and  N_1 
REMARK    2  A    between atoms: C_3  and  C_2 
REMARK    3  A    between atoms: N_5  and  C_2 
REMARK    4  A    between atoms: C_6  and  C_4 
ROOT
ATOM      1  C   UNL d   1      57.830  -0.619  29.746  0.00  0.00     0.170 C 
ENDROOT
BRANCH   1   2
ATOM      2  N   UNL d   1      58.033  -1.423  29.599  0.00  0.00    -0.191 NA
ATOM      3  C   UNL d   1      58.845  -1.646  29.492  0.00  0.00     0.280 C 
ATOM      4  O   UNL d   1      59.069  -2.474  29.339  0.00  0.00    -0.265 OA
BRANCH   3   5
ATOM      5  C   UNL d   1      59.430  -1.056  29.538  0.00  0.00     0.058 A 
ATOM      6  C   UNL d   1      59.751  -0.810  30.268  0.00  0.00     0.007 A 
ATOM      7  C   UNL d   1      60.333  -0.221  30.290  0.00  0.00     0.030 A 
ATOM      8  C   UNL d   1      60.607   0.136  29.598  0.00  0.00     0.140 A 
ATOM      9  C   UNL d   1      60.286  -0.110  28.867  0.00  0.00     0.030 A 
ATOM     10  F   UNL d   1      61.133   0.671  29.601  0.00  0.00    -0.204 F 
ATOM     11  C   UNL d   1      59.686  -0.717  28.837  0.00  0.00     0.007 A 
ENDBRANCH   3   5
ENDBRANCH   1   2
BRANCH   1  12
ATOM     12  C   UNL d   1      57.858   0.004  29.267  0.00  0.00     0.249 C 
ATOM     13 CL   UNL d   1      57.799   0.682  28.535  0.00  0.00    -0.075 Cl
ATOM     14 CL   UNL d   1      57.488  -0.147  28.520  0.00  0.00    -0.075 Cl
ATOM     15 CL   UNL d   1      58.126   0.420  29.541  0.00  0.00    -0.075 Cl
ENDBRANCH   1  12
BRANCH   1  16
ATOM     16  N   UNL d   1      57.561  -0.412  30.479  0.00  0.00    -0.286 N 
ATOM     17  C   UNL d   1      57.324  -0.969  31.011  0.00  0.00     0.108 A 
ATOM     18  C   UNL d   1      57.053  -0.753  31.750  0.00  0.00     0.142 A 
ATOM     19  O   UNL d   1      57.025   0.033  31.946  0.00  0.00    -0.300 OA
ATOM     20  C   UNL d   1      57.259   0.584  31.423  0.00  0.00     0.142 A 
ATOM     21  C   UNL d   1      57.527   0.359  30.690  0.00  0.00     0.108 A 
ENDBRANCH   1  16
TORSDOF 4
ENDMDL
MODEL 6
REMARK VINA RESULT:       1.2      1.351      1.805
REMARK  4 active torsions:
REMARK  status: ('A' for Active; 'I' for Inactive)
REMARK    1  A    between atoms: C_2  and  N_1 
REMARK       I    between atoms: C_4  and  N_1 
REMARK    2  A    between atoms: C_3  and  C_2 
REMARK    3  A    between atoms: N_5  and  C_2 
REMARK    4  A    between atoms: C_6  and  C_4 
ROOT
ATOM      1  C   UNL d   1      58.781  -0.868  28.907  0.00  0.00     0.170 C 
ENDROOT
BRANCH   1   2
ATOM      2  N   UNL d   1      58.212  -0.387  28.516  0.00  0.00    -0.191 NA
ATOM      3  C   UNL d   1      57.754   0.177  28.957  0.00  0.00     0.280 C 
ATOM      4  O   UNL d   1      57.161   0.681  28.565  0.00  0.00    -0.265 OA
BRANCH   3   5
ATOM      5  C   UNL d   1      57.882   0.240  29.777  0.00  0.00     0.058 A 
ATOM      6  C   UNL d   1      58.622   0.465  30.090  0.00  0.00     0.007 A 
ATOM      7  C   UNL d   1      58.728   0.522  30.909  0.00  0.00     0.030 A 
ATOM      8  C   UNL d   1      58.110   0.360  31.432  0.00  0.00     0.140 A 
ATOM      9  C   UNL d   1      57.369   0.136  31.120  0.00  0.00     0.030 A 
ATOM     10  F   UNL d   1      58.189   0.407  32.177  0.00  0.00    -0.204 F 
ATOM     11  C   UNL d   1      57.253   0.075  30.276  0.00  0.00     0.007 A 
ENDBRANCH   3   5
ENDBRANCH   1   2
BRANCH   1  12
ATOM     12  C   UNL d   1      58.679  -1.499  29.366  0.00  0.00     0.249 C 
ATOM     13 CL   UNL d   1      58.451  -2.370  29.799  0.00  0.00    -0.075 Cl
ATOM     14 CL   UNL d   1      58.224  -2.103  28.987  0.00  0.00    -0.075 Cl
ATOM     15 CL   UNL d   1      58.943  -1.399  29.857  0.00  0.00    -0.075 Cl
ENDBRANCH   1  12
BRANCH   1  16
ATOM     16  N   UNL d   1      59.565  -0.690  28.825  0.00  0.00    -0.286 N 
ATOM     17  C   UNL d   1      60.138  -1.225  29.013  0.00  0.00     0.108 A 
ATOM     18  C   UNL d   1      60.928  -1.039  28.928  0.00  0.00     0.142 A 
ATOM     19  O   UNL d   1      61.133  -0.306  28.651  0.00  0.00    -0.300 OA
ATOM     20  C   UNL d   1      60.570   0.224  28.464  0.00  0.00     0.142 A 
ATOM     21  C   UNL d   1      59.786   0.028  28.553  0.00  0.00     0.108 A 
ENDBRANCH   1  16
TORSDOF 4
ENDMDL
