MODEL 1
REMARK VINA RESULT:      -7.8      0.000      0.000
REMARK  7 active torsions:
REMARK  status: ('A' for Active; 'I' for Inactive)
REMARK    1  A    between atoms: C_3  and  C_1 
REMARK    2  A    between atoms: C_9  and  N_2 
REMARK    3  A    between atoms: C_6  and  C_3 
REMARK    4  A    between atoms: C_8  and  C_3 
REMARK       I    between atoms: N_11  and  C_6 
REMARK    5  A    between atoms: C_26  and  C_7 
REMARK    6  A    between atoms: C_21  and  N_11 
REMARK    7  A    between atoms: C_12  and  C_21 
ROOT
ATOM      1  C   UNL d   1      53.397  33.830  53.906  0.00  0.00     0.103 A 
ATOM      2  N   UNL d   1      52.681  34.038  53.559  0.00  0.00    -0.269 N 
ATOM      3  S   UNL d   1      53.590  34.409  54.461  0.00  0.00    -0.064 SA
ATOM      4  C   UNL d   1      52.424  34.747  53.895  0.00  0.00     0.271 A 
ATOM      5  C   UNL d   1      52.990  34.974  54.454  0.00  0.00     0.087 A 
ATOM      6  O   UNL d   1      51.733  35.151  53.708  0.00  0.00    -0.266 OA
ENDROOT
BRANCH   1   7
ATOM      7  C   UNL d   1      53.848  33.157  53.731  0.00  0.00     0.101 C 
BRANCH   7   8
ATOM      8  C   UNL d   1      53.754  32.466  54.175  0.00  0.00     0.283 C 
ATOM      9  N   UNL d   1      53.541  31.765  53.808  0.00  0.00    -0.204 NA
ATOM     10  O   UNL d   1      53.878  32.486  54.994  0.00  0.00    -0.265 OA
BRANCH   9  11
ATOM     11  C   UNL d   1      53.448  31.074  54.253  0.00  0.00     0.127 C 
BRANCH  11  12
ATOM     12  C   UNL d   1      53.170  30.383  53.903  0.00  0.00     0.119 A 
ATOM     13  O   UNL d   1      52.667  30.327  53.254  0.00  0.00    -0.304 OA
ATOM     14  C   UNL d   1      52.536  29.527  53.096  0.00  0.00     0.123 A 
ATOM     15  C   UNL d   1      52.959  29.088  53.648  0.00  0.00     0.029 A 
ATOM     16  C   UNL d   1      53.351  29.612  54.148  0.00  0.00     0.028 A 
ENDBRANCH  11  12
ENDBRANCH   9  11
ENDBRANCH   7   8
BRANCH   7  17
ATOM     17  C   UNL d   1      54.396  33.177  53.107  0.00  0.00     0.129 C 
ATOM     18  N   UNL d   1      55.198  33.090  53.271  0.00  0.00    -0.146 N 
ENDBRANCH   7  17
ENDBRANCH   1   7
BRANCH   2  19
ATOM     19  C   UNL d   1      52.012  34.012  53.074  0.00  0.00     0.068 A 
ATOM     20  C   UNL d   1      51.310  33.706  53.357  0.00  0.00     0.020 A 
ATOM     21  C   UNL d   1      50.646  33.680  52.876  0.00  0.00     0.031 A 
ATOM     22  C   UNL d   1      50.690  33.966  52.099  0.00  0.00     0.140 A 
ATOM     23  C   UNL d   1      51.401  34.275  51.816  0.00  0.00     0.031 A 
ATOM     24  F   UNL d   1      50.029  33.944  51.610  0.00  0.00    -0.204 F 
ATOM     25  C   UNL d   1      52.061  34.299  52.301  0.00  0.00     0.020 A 
ENDBRANCH   2  19
BRANCH   5  26
ATOM     26  C   UNL d   1      52.952  35.654  54.922  0.00  0.00     0.011 C 
ATOM     27  C   UNL d   1      53.551  36.213  54.885  0.00  0.00     0.001 C 
ENDBRANCH   5  26
TORSDOF 7
ENDMDL
MODEL 2
REMARK VINA RESULT:      -7.4      2.057      4.517
REMARK  7 active torsions:
REMARK  status: ('A' for Active; 'I' for Inactive)
REMARK    1  A    between atoms: C_3  and  C_1 
REMARK    2  A    between atoms: C_9  and  N_2 
REMARK    3  A    between atoms: C_6  and  C_3 
REMARK    4  A    between atoms: C_8  and  C_3 
REMARK       I    between atoms: N_11  and  C_6 
REMARK    5  A    between atoms: C_26  and  C_7 
REMARK    6  A    between atoms: C_21  and  N_11 
REMARK    7  A    between atoms: C_12  and  C_21 
ROOT
ATOM      1  C   UNL d   1      52.677  33.084  53.154  0.00  0.00     0.103 A 
ATOM      2  N   UNL d   1      53.315  33.001  53.666  0.00  0.00    -0.269 N 
ATOM      3  S   UNL d   1      52.491  32.338  52.854  0.00  0.00    -0.064 SA
ATOM      4  C   UNL d   1      53.530  32.204  53.688  0.00  0.00     0.271 A 
ATOM      5  C   UNL d   1      53.018  31.796  53.184  0.00  0.00     0.087 A 
ATOM      6  O   UNL d   1      54.142  31.879  54.130  0.00  0.00    -0.266 OA
ENDROOT
BRANCH   1   7
ATOM      7  C   UNL d   1      52.286  33.791  52.970  0.00  0.00     0.101 C 
BRANCH   7   8
ATOM      8  C   UNL d   1      51.487  33.888  53.160  0.00  0.00     0.283 C 
ATOM      9  N   UNL d   1      50.943  34.072  52.576  0.00  0.00    -0.204 NA
ATOM     10  O   UNL d   1      51.240  33.797  53.946  0.00  0.00    -0.265 OA
BRANCH   9  11
ATOM     11  C   UNL d   1      50.144  34.169  52.768  0.00  0.00     0.127 C 
BRANCH  11  12
ATOM     12  C   UNL d   1      49.603  34.417  52.199  0.00  0.00     0.119 A 
ATOM     13  O   UNL d   1      49.590  34.204  51.405  0.00  0.00    -0.304 OA
ATOM     14  C   UNL d   1      48.951  34.584  51.045  0.00  0.00     0.123 A 
ATOM     15  C   UNL d   1      48.568  35.032  51.619  0.00  0.00     0.029 A 
ATOM     16  C   UNL d   1      48.967  34.932  52.332  0.00  0.00     0.028 A 
ENDBRANCH  11  12
ENDBRANCH   9  11
ENDBRANCH   7   8
BRANCH   7  17
ATOM     17  C   UNL d   1      52.698  34.406  52.592  0.00  0.00     0.129 C 
ATOM     18  N   UNL d   1      52.580  35.183  52.837  0.00  0.00    -0.146 N 
ENDBRANCH   7  17
ENDBRANCH   1   7
BRANCH   2  19
ATOM     19  C   UNL d   1      53.916  33.191  54.201  0.00  0.00     0.068 A 
ATOM     20  C   UNL d   1      54.670  33.353  53.933  0.00  0.00     0.020 A 
ATOM     21  C   UNL d   1      55.266  33.541  54.464  0.00  0.00     0.031 A 
ATOM     22  C   UNL d   1      55.101  33.566  55.275  0.00  0.00     0.140 A 
ATOM     23  C   UNL d   1      54.338  33.401  55.543  0.00  0.00     0.031 A 
ATOM     24  F   UNL d   1      55.694  33.753  55.815  0.00  0.00    -0.204 F 
ATOM     25  C   UNL d   1      53.746  33.214  55.009  0.00  0.00     0.020 A 
ENDBRANCH   2  19
BRANCH   5  26
ATOM     26  C   UNL d   1      53.037  30.983  53.040  0.00  0.00     0.011 C 
ATOM     27  C   UNL d   1      52.338  30.561  52.964  0.00  0.00     0.001 C 
ENDBRANCH   5  26
TORSDOF 7
ENDMDL
MODEL 3
REMARK VINA RESULT:      -7.0      1.689      3.945
REMARK  7 active torsions:
REMARK  status: ('A' for Active; 'I' for Inactive)
REMARK    1  A    between atoms: C_3  and  C_1 
REMARK    2  A    between atoms: C_9  and  N_2 
REMARK    3  A    between atoms: C_6  and  C_3 
REMARK    4  A    between atoms: C_8  and  C_3 
REMARK       I    between atoms: N_11  and  C_6 
REMARK    5  A    between atoms: C_26  and  C_7 
REMARK    6  A    between atoms: C_21  and  N_11 
REMARK    7  A    between atoms: C_12  and  C_21 
ROOT
ATOM      1  C   UNL d   1      53.021  33.450  53.666  0.00  0.00     0.103 A 
ATOM      2  N   UNL d   1      53.097  32.631  53.636  0.00  0.00    -0.269 N 
ATOM      3  S   UNL d   1      53.492  33.728  54.284  0.00  0.00    -0.064 SA
ATOM      4  C   UNL d   1      53.615  32.395  54.234  0.00  0.00     0.271 A 
ATOM      5  C   UNL d   1      53.858  33.077  54.634  0.00  0.00     0.087 A 
ATOM      6  O   UNL d   1      53.845  31.624  54.400  0.00  0.00    -0.266 OA
ENDROOT
BRANCH   1   7
ATOM      7  C   UNL d   1      52.555  33.916  53.165  0.00  0.00     0.101 C 
BRANCH   7   8
ATOM      8  C   UNL d   1      51.813  34.183  53.415  0.00  0.00     0.283 C 
ATOM      9  N   UNL d   1      51.172  34.158  52.905  0.00  0.00    -0.204 NA
ATOM     10  O   UNL d   1      51.721  34.476  54.185  0.00  0.00    -0.265 OA
BRANCH   9  11
ATOM     11  C   UNL d   1      50.431  34.425  53.156  0.00  0.00     0.127 C 
BRANCH  11  12
ATOM     12  C   UNL d   1      49.827  34.560  52.613  0.00  0.00     0.119 A 
ATOM     13  O   UNL d   1      49.755  34.230  51.863  0.00  0.00    -0.304 OA
ATOM     14  C   UNL d   1      49.065  34.523  51.515  0.00  0.00     0.123 A 
ATOM     15  C   UNL d   1      48.711  35.035  52.052  0.00  0.00     0.029 A 
ATOM     16  C   UNL d   1      49.177  35.061  52.730  0.00  0.00     0.028 A 
ENDBRANCH  11  12
ENDBRANCH   9  11
ENDBRANCH   7   8
BRANCH   7  17
ATOM     17  C   UNL d   1      52.833  34.118  52.408  0.00  0.00     0.129 C 
ATOM     18  N   UNL d   1      53.089  34.886  52.263  0.00  0.00    -0.146 N 
ENDBRANCH   7  17
ENDBRANCH   1   7
BRANCH   2  19
ATOM     19  C   UNL d   1      52.998  31.847  53.396  0.00  0.00     0.068 A 
ATOM     20  C   UNL d   1      53.548  31.492  52.908  0.00  0.00     0.020 A 
ATOM     21  C   UNL d   1      53.449  30.713  52.670  0.00  0.00     0.031 A 
ATOM     22  C   UNL d   1      52.786  30.286  52.927  0.00  0.00     0.140 A 
ATOM     23  C   UNL d   1      52.232  30.647  53.420  0.00  0.00     0.031 A 
ATOM     24  F   UNL d   1      52.680  29.505  52.693  0.00  0.00    -0.204 F 
ATOM     25  C   UNL d   1      52.336  31.426  53.655  0.00  0.00     0.020 A 
ENDBRANCH   2  19
BRANCH   5  26
ATOM     26  C   UNL d   1      54.379  33.094  55.275  0.00  0.00     0.011 C 
ATOM     27  C   UNL d   1      54.887  33.729  55.375  0.00  0.00     0.001 C 
ENDBRANCH   5  26
TORSDOF 7
ENDMDL
MODEL 4
REMARK VINA RESULT:      -6.6      1.944      3.016
REMARK  7 active torsions:
REMARK  status: ('A' for Active; 'I' for Inactive)
REMARK    1  A    between atoms: C_3  and  C_1 
REMARK    2  A    between atoms: C_9  and  N_2 
REMARK    3  A    between atoms: C_6  and  C_3 
REMARK    4  A    between atoms: C_8  and  C_3 
REMARK       I    between atoms: N_11  and  C_6 
REMARK    5  A    between atoms: C_26  and  C_7 
REMARK    6  A    between atoms: C_21  and  N_11 
REMARK    7  A    between atoms: C_12  and  C_21 
ROOT
ATOM      1  C   UNL d   1      52.690  32.299  53.227  0.00  0.00     0.103 A 
ATOM      2  N   UNL d   1      53.159  32.781  53.700  0.00  0.00    -0.269 N 
ATOM      3  S   UNL d   1      52.028  32.735  52.996  0.00  0.00    -0.064 SA
ATOM      4  C   UNL d   1      52.793  33.518  53.767  0.00  0.00     0.271 A 
ATOM      5  C   UNL d   1      52.092  33.486  53.329  0.00  0.00     0.087 A 
ATOM      6  O   UNL d   1      53.075  34.163  54.191  0.00  0.00    -0.266 OA
ENDROOT
BRANCH   1   7
ATOM      7  C   UNL d   1      52.851  31.514  53.016  0.00  0.00     0.101 C 
BRANCH   7   8
ATOM      8  C   UNL d   1      52.474  30.892  53.410  0.00  0.00     0.283 C 
ATOM      9  N   UNL d   1      52.914  30.334  53.816  0.00  0.00    -0.204 NA
ATOM     10  O   UNL d   1      51.647  30.837  53.391  0.00  0.00    -0.265 OA
BRANCH   9  11
ATOM     11  C   UNL d   1      52.537  29.712  54.209  0.00  0.00     0.127 C 
BRANCH  11  12
ATOM     12  C   UNL d   1      52.972  29.158  54.635  0.00  0.00     0.119 A 
ATOM     13  O   UNL d   1      53.322  28.474  54.341  0.00  0.00    -0.304 OA
ATOM     14  C   UNL d   1      53.701  28.087  54.965  0.00  0.00     0.123 A 
ATOM     15  C   UNL d   1      53.584  28.534  55.646  0.00  0.00     0.029 A 
ATOM     16  C   UNL d   1      53.136  29.195  55.447  0.00  0.00     0.028 A 
ENDBRANCH  11  12
ENDBRANCH   9  11
ENDBRANCH   7   8
BRANCH   7  17
ATOM     17  C   UNL d   1      53.392  31.351  52.408  0.00  0.00     0.129 C 
ATOM     18  N   UNL d   1      53.223  30.757  51.864  0.00  0.00    -0.146 N 
ENDBRANCH   7  17
ENDBRANCH   1   7
BRANCH   2  19
ATOM     19  C   UNL d   1      53.784  33.035  54.178  0.00  0.00     0.068 A 
ATOM     20  C   UNL d   1      53.724  32.991  54.991  0.00  0.00     0.020 A 
ATOM     21  C   UNL d   1      54.344  33.243  55.465  0.00  0.00     0.031 A 
ATOM     22  C   UNL d   1      55.033  33.543  55.116  0.00  0.00     0.140 A 
ATOM     23  C   UNL d   1      55.090  33.587  54.294  0.00  0.00     0.031 A 
ATOM     24  F   UNL d   1      55.660  33.798  55.584  0.00  0.00    -0.204 F 
ATOM     25  C   UNL d   1      54.468  33.334  53.824  0.00  0.00     0.020 A 
ENDBRANCH   2  19
BRANCH   5  26
ATOM     26  C   UNL d   1      51.553  34.106  53.245  0.00  0.00     0.011 C 
ATOM     27  C   UNL d   1      51.018  34.106  52.624  0.00  0.00     0.001 C 
ENDBRANCH   5  26
TORSDOF 7
ENDMDL
MODEL 5
REMARK VINA RESULT:      -6.0      2.034      4.384
REMARK  7 active torsions:
REMARK  status: ('A' for Active; 'I' for Inactive)
REMARK    1  A    between atoms: C_3  and  C_1 
REMARK    2  A    between atoms: C_9  and  N_2 
REMARK    3  A    between atoms: C_6  and  C_3 
REMARK    4  A    between atoms: C_8  and  C_3 
REMARK       I    between atoms: N_11  and  C_6 
REMARK    5  A    between atoms: C_26  and  C_7 
REMARK    6  A    between atoms: C_21  and  N_11 
REMARK    7  A    between atoms: C_12  and  C_21 
ROOT
ATOM      1  C   UNL d   1      52.112  34.222  53.279  0.00  0.00     0.103 A 
ATOM      2  N   UNL d   1      52.678  33.669  53.504  0.00  0.00    -0.269 N 
ATOM      3  S   UNL d   1      52.229  34.904  53.729  0.00  0.00    -0.064 SA
ATOM      4  C   UNL d   1      53.150  34.004  54.094  0.00  0.00     0.271 A 
ATOM      5  C   UNL d   1      52.869  34.769  54.231  0.00  0.00     0.087 A 
ATOM      6  O   UNL d   1      53.782  33.641  54.473  0.00  0.00    -0.266 OA
ENDROOT
BRANCH   1   7
ATOM      7  C   UNL d   1      51.526  34.115  52.703  0.00  0.00     0.101 C 
BRANCH   7   8
ATOM      8  C   UNL d   1      50.733  34.043  52.925  0.00  0.00     0.283 C 
ATOM      9  N   UNL d   1      50.231  34.689  52.882  0.00  0.00    -0.204 NA
ATOM     10  O   UNL d   1      50.447  33.312  53.191  0.00  0.00    -0.265 OA
BRANCH   9  11
ATOM     11  C   UNL d   1      49.438  34.616  53.103  0.00  0.00     0.127 C 
BRANCH  11  12
ATOM     12  C   UNL d   1      48.937  35.269  53.092  0.00  0.00     0.119 A 
ATOM     13  O   UNL d   1      48.922  35.889  53.632  0.00  0.00    -0.304 OA
ATOM     14  C   UNL d   1      48.331  36.418  53.404  0.00  0.00     0.123 A 
ATOM     15  C   UNL d   1      47.980  36.124  52.721  0.00  0.00     0.029 A 
ATOM     16  C   UNL d   1      48.350  35.416  52.525  0.00  0.00     0.028 A 
ENDBRANCH  11  12
ENDBRANCH   9  11
ENDBRANCH   7   8
BRANCH   7  17
ATOM     17  C   UNL d   1      51.736  34.081  51.900  0.00  0.00     0.129 C 
ATOM     18  N   UNL d   1      51.252  34.442  51.340  0.00  0.00    -0.146 N 
ENDBRANCH   7  17
ENDBRANCH   1   7
BRANCH   2  19
ATOM     19  C   UNL d   1      53.114  32.968  53.537  0.00  0.00     0.068 A 
ATOM     20  C   UNL d   1      53.819  32.901  53.130  0.00  0.00     0.020 A 
ATOM     21  C   UNL d   1      54.251  32.204  53.163  0.00  0.00     0.031 A 
ATOM     22  C   UNL d   1      53.969  31.567  53.612  0.00  0.00     0.140 A 
ATOM     23  C   UNL d   1      53.257  31.637  54.022  0.00  0.00     0.031 A 
ATOM     24  F   UNL d   1      54.396  30.865  53.650  0.00  0.00    -0.204 F 
ATOM     25  C   UNL d   1      52.828  32.335  53.986  0.00  0.00     0.020 A 
ENDBRANCH   2  19
BRANCH   5  26
ATOM     26  C   UNL d   1      53.181  35.302  54.779  0.00  0.00     0.011 C 
ATOM     27  C   UNL d   1      52.967  36.092  54.754  0.00  0.00     0.001 C 
ENDBRANCH   5  26
TORSDOF 7
ENDMDL
MODEL 6
REMARK VINA RESULT:      -5.0      2.347      4.791
REMARK  7 active torsions:
REMARK  status: ('A' for Active; 'I' for Inactive)
REMARK    1  A    between atoms: C_3  and  C_1 
REMARK    2  A    between atoms: C_9  and  N_2 
REMARK    3  A    between atoms: C_6  and  C_3 
REMARK    4  A    between atoms: C_8  and  C_3 
REMARK       I    between atoms: N_11  and  C_6 
REMARK    5  A    between atoms: C_26  and  C_7 
REMARK    6  A    between atoms: C_21  and  N_11 
REMARK    7  A    between atoms: C_12  and  C_21 
ROOT
ATOM      1  C   UNL d   1      51.608  33.745  52.837  0.00  0.00     0.103 A 
ATOM      2  N   UNL d   1      52.166  34.121  53.309  0.00  0.00    -0.269 N 
ATOM      3  S   UNL d   1      51.786  32.939  52.824  0.00  0.00    -0.064 SA
ATOM      4  C   UNL d   1      52.694  33.553  53.593  0.00  0.00     0.271 A 
ATOM      5  C   UNL d   1      52.455  32.821  53.291  0.00  0.00     0.087 A 
ATOM      6  O   UNL d   1      53.337  33.691  54.086  0.00  0.00    -0.266 OA
ENDROOT
BRANCH   1   7
ATOM      7  C   UNL d   1      50.977  34.108  52.442  0.00  0.00     0.101 C 
BRANCH   7   8
ATOM      8  C   UNL d   1      50.224  34.122  52.784  0.00  0.00     0.283 C 
ATOM      9  N   UNL d   1      49.784  34.814  52.784  0.00  0.00    -0.204 NA
ATOM     10  O   UNL d   1      49.917  33.433  53.126  0.00  0.00    -0.265 OA
BRANCH   9  11
ATOM     11  C   UNL d   1      49.032  34.827  53.127  0.00  0.00     0.127 C 
BRANCH  11  12
ATOM     12  C   UNL d   1      48.557  35.497  53.071  0.00  0.00     0.119 A 
ATOM     13  O   UNL d   1      48.123  35.741  52.416  0.00  0.00    -0.304 OA
ATOM     14  C   UNL d   1      47.730  36.441  52.610  0.00  0.00     0.123 A 
ATOM     15  C   UNL d   1      47.923  36.630  53.387  0.00  0.00     0.029 A 
ATOM     16  C   UNL d   1      48.432  36.051  53.675  0.00  0.00     0.028 A 
ENDBRANCH  11  12
ENDBRANCH   9  11
ENDBRANCH   7   8
BRANCH   7  17
ATOM     17  C   UNL d   1      51.100  34.459  51.699  0.00  0.00     0.129 C 
ATOM     18  N   UNL d   1      50.762  34.119  51.030  0.00  0.00    -0.146 N 
ENDBRANCH   7  17
ENDBRANCH   1   7
BRANCH   2  19
ATOM     19  C   UNL d   1      52.574  34.718  53.711  0.00  0.00     0.068 A 
ATOM     20  C   UNL d   1      53.182  35.120  53.345  0.00  0.00     0.020 A 
ATOM     21  C   UNL d   1      53.586  35.712  53.744  0.00  0.00     0.031 A 
ATOM     22  C   UNL d   1      53.375  35.900  54.523  0.00  0.00     0.140 A 
ATOM     23  C   UNL d   1      52.760  35.491  54.891  0.00  0.00     0.031 A 
ATOM     24  F   UNL d   1      53.775  36.492  54.930  0.00  0.00    -0.204 F 
ATOM     25  C   UNL d   1      52.359  34.901  54.488  0.00  0.00     0.020 A 
ENDBRANCH   2  19
BRANCH   5  26
ATOM     26  C   UNL d   1      52.830  32.099  53.436  0.00  0.00     0.011 C 
ATOM     27  C   UNL d   1      52.724  31.470  52.922  0.00  0.00     0.001 C 
ENDBRANCH   5  26
TORSDOF 7
ENDMDL
