MODEL 1
REMARK VINA RESULT:      61.8      0.000      0.000
REMARK  4 active torsions:
REMARK  status: ('A' for Active; 'I' for Inactive)
REMARK    1  A    between atoms: C_3  and  C_1 
REMARK    2  A    between atoms: C_8  and  C_3 
REMARK    3  A    between atoms: C_9  and  C_3 
REMARK    4  A    between atoms: N_5  and  C_9 
ROOT
ATOM      1  C   UNL d   1      60.758  48.841  50.720  0.00  0.00     0.023 A 
ATOM      2  C   UNL d   1      61.341  49.100  50.146  0.00  0.00     0.082 A 
ATOM      3  N   UNL d   1      61.740  48.444  49.882  0.00  0.00    -0.246 NA
ATOM      4  C   UNL d   1      60.827  48.033  50.782  0.00  0.00     0.019 A 
ATOM      5  C   UNL d   1      61.430  47.779  50.268  0.00  0.00     0.081 A 
ATOM      6  C   UNL d   1      61.760  49.579  49.689  0.00  0.00     0.021 C 
ATOM      7  C   UNL d   1      60.415  47.485  51.243  0.00  0.00     0.002 A 
ATOM      8  C   UNL d   1      61.615  46.971  50.222  0.00  0.00     0.019 A 
ATOM      9  C   UNL d   1      60.613  46.689  51.184  0.00  0.00     0.000 A 
ATOM     10  C   UNL d   1      61.205  46.426  50.681  0.00  0.00     0.002 A 
ENDROOT
BRANCH   1  11
ATOM     11  C   UNL d   1      60.236  49.339  51.122  0.00  0.00     0.048 C 
BRANCH  11  12
ATOM     12  C   UNL d   1      59.484  49.482  50.856  0.00  0.00     0.102 A 
ATOM     13  O   UNL d   1      58.805  49.565  51.341  0.00  0.00    -0.305 OA
ATOM     14  C   UNL d   1      58.155  49.704  50.858  0.00  0.00     0.123 A 
ATOM     15  C   UNL d   1      58.437  49.708  50.049  0.00  0.00     0.029 A 
ATOM     16  C   UNL d   1      59.244  49.571  50.071  0.00  0.00     0.027 A 
ENDBRANCH  11  12
BRANCH  11  17
ATOM     17  C   UNL d   1      60.503  49.704  51.825  0.00  0.00     0.150 C 
BRANCH  17  18
ATOM     18  N   UNL d   1      60.335  49.345  52.554  0.00  0.00    -0.112 N 
ATOM     19  O   UNL d   1      59.572  49.246  52.805  0.00  0.00    -0.532 OA
ATOM     20  O   UNL d   1      60.978  49.077  53.041  0.00  0.00    -0.532 OA
ENDBRANCH  17  18
ENDBRANCH  11  17
ENDBRANCH   1  11
TORSDOF 4
ENDMDL
MODEL 2
REMARK VINA RESULT:      62.1      1.125      2.775
REMARK  4 active torsions:
REMARK  status: ('A' for Active; 'I' for Inactive)
REMARK    1  A    between atoms: C_3  and  C_1 
REMARK    2  A    between atoms: C_8  and  C_3 
REMARK    3  A    between atoms: C_9  and  C_3 
REMARK    4  A    between atoms: N_5  and  C_9 
ROOT
ATOM      1  C   UNL d   1      59.884  48.916  50.716  0.00  0.00     0.023 A 
ATOM      2  C   UNL d   1      60.237  49.354  50.067  0.00  0.00     0.082 A 
ATOM      3  N   UNL d   1      59.637  49.708  49.650  0.00  0.00    -0.246 NA
ATOM      4  C   UNL d   1      59.079  49.023  50.666  0.00  0.00     0.019 A 
ATOM      5  C   UNL d   1      58.917  49.510  50.011  0.00  0.00     0.081 A 
ATOM      6  C   UNL d   1      60.786  49.649  49.593  0.00  0.00     0.021 C 
ATOM      7  C   UNL d   1      58.462  48.738  51.134  0.00  0.00     0.002 A 
ATOM      8  C   UNL d   1      58.131  49.708  49.833  0.00  0.00     0.019 A 
ATOM      9  C   UNL d   1      57.689  48.945  50.942  0.00  0.00     0.000 A 
ATOM     10  C   UNL d   1      57.517  49.424  50.299  0.00  0.00     0.002 A 
ENDROOT
BRANCH   1  11
ATOM     11  C   UNL d   1      60.305  48.476  51.274  0.00  0.00     0.048 C 
BRANCH  11  12
ATOM     12  C   UNL d   1      60.680  47.783  51.084  0.00  0.00     0.102 A 
ATOM     13  O   UNL d   1      61.280  47.697  50.505  0.00  0.00    -0.305 OA
ATOM     14  C   UNL d   1      61.512  46.910  50.484  0.00  0.00     0.123 A 
ATOM     15  C   UNL d   1      61.044  46.492  51.068  0.00  0.00     0.029 A 
ATOM     16  C   UNL d   1      60.546  47.040  51.419  0.00  0.00     0.027 A 
ENDBRANCH  11  12
BRANCH  11  17
ATOM     17  C   UNL d   1      60.339  48.764  52.058  0.00  0.00     0.150 C 
BRANCH  17  18
ATOM     18  N   UNL d   1      60.968  49.258  52.278  0.00  0.00    -0.112 N 
ATOM     19  O   UNL d   1      61.630  49.322  51.817  0.00  0.00    -0.532 OA
ATOM     20  O   UNL d   1      60.912  49.703  53.001  0.00  0.00    -0.532 OA
ENDBRANCH  17  18
ENDBRANCH  11  17
ENDBRANCH   1  11
TORSDOF 4
ENDMDL
