MODEL 1
REMARK VINA RESULT:      -9.0      0.000      0.000
REMARK  3 active torsions:
REMARK  status: ('A' for Active; 'I' for Inactive)
REMARK    1  A    between atoms: C_11  and  N_1 
REMARK    2  A    between atoms: C_3  and  C_2 
REMARK    3  A    between atoms: C_13  and  C_16 
ROOT
ATOM      1  N   UNL d   1      53.690  32.928  53.793  0.00  0.00    -0.260 N 
ATOM      2  C   UNL d   1      53.552  31.632  53.532  0.00  0.00     0.093 A 
ATOM      3  C   UNL d   1      54.413  32.673  53.587  0.00  0.00     0.153 A 
ATOM      4  C   UNL d   1      53.139  32.302  53.767  0.00  0.00     0.272 A 
ATOM      5  S   UNL d   1      54.341  31.867  53.422  0.00  0.00    -0.053 SA
ATOM      6  S   UNL d   1      55.099  33.136  53.549  0.00  0.00    -0.052 SA
ATOM      7  O   UNL d   1      52.333  32.338  53.942  0.00  0.00    -0.266 OA
ENDROOT
BRANCH   2   8
ATOM      8  C   UNL d   1      53.267  30.879  53.423  0.00  0.00     0.068 A 
ATOM      9  C   UNL d   1      52.893  30.623  52.743  0.00  0.00     0.258 A 
ATOM     10  N   UNL d   1      52.685  29.849  52.827  0.00  0.00    -0.321 N 
ATOM     11  O   UNL d   1      52.752  31.089  52.075  0.00  0.00    -0.267 OA
ATOM     12  H   UNL d   1      52.295  29.391  52.259  0.00  0.00     0.169 HD
ATOM     13  C   UNL d   1      52.930  29.600  53.576  0.00  0.00     0.059 A 
ATOM     14  C   UNL d   1      53.289  30.229  53.949  0.00  0.00     0.021 A 
ATOM     15  C   UNL d   1      52.863  28.859  53.961  0.00  0.00     0.017 A 
ATOM     16  C   UNL d   1      53.590  30.147  54.706  0.00  0.00     0.002 A 
ATOM     17  C   UNL d   1      53.530  29.424  55.096  0.00  0.00     0.000 A 
ATOM     18  C   UNL d   1      53.167  28.780  54.725  0.00  0.00     0.002 A 
ENDBRANCH   2   8
BRANCH   1  19
ATOM     19  C   UNL d   1      53.471  33.679  54.006  0.00  0.00     0.068 A 
ATOM     20  C   UNL d   1      53.569  33.950  54.768  0.00  0.00     0.018 A 
ATOM     21  C   UNL d   1      53.335  34.731  54.967  0.00  0.00     0.008 A 
ATOM     22  C   UNL d   1      53.012  35.211  54.391  0.00  0.00     0.065 A 
ATOM     23  C   UNL d   1      52.913  34.934  53.618  0.00  0.00     0.008 A 
ATOM     24  C   UNL d   1      53.138  34.182  53.428  0.00  0.00     0.018 A 
BRANCH  22  25
ATOM     25  C   UNL d   1      52.780  36.002  54.612  0.00  0.00     0.211 C 
ATOM     26  O   UNL d   1      51.994  36.159  54.827  0.00  0.00    -0.644 OA
ATOM     27  O   UNL d   1      53.338  36.616  54.611  0.00  0.00    -0.644 OA
ENDBRANCH  22  25
ENDBRANCH   1  19
TORSDOF 3
ENDMDL
MODEL 2
REMARK VINA RESULT:      -8.2      2.389      2.983
REMARK  3 active torsions:
REMARK  status: ('A' for Active; 'I' for Inactive)
REMARK    1  A    between atoms: C_11  and  N_1 
REMARK    2  A    between atoms: C_3  and  C_2 
REMARK    3  A    between atoms: C_13  and  C_16 
ROOT
ATOM      1  N   UNL d   1      51.753  33.781  52.894  0.00  0.00    -0.260 N 
ATOM      2  C   UNL d   1      52.635  32.907  53.365  0.00  0.00     0.093 A 
ATOM      3  C   UNL d   1      52.465  34.064  52.686  0.00  0.00     0.153 A 
ATOM      4  C   UNL d   1      51.831  33.065  53.315  0.00  0.00     0.272 A 
ATOM      5  S   UNL d   1      53.024  33.528  52.974  0.00  0.00    -0.053 SA
ATOM      6  S   UNL d   1      52.607  34.762  52.263  0.00  0.00    -0.052 SA
ATOM      7  O   UNL d   1      51.224  32.599  53.626  0.00  0.00    -0.266 OA
ENDROOT
BRANCH   2   8
ATOM      8  C   UNL d   1      53.001  32.274  53.721  0.00  0.00     0.068 A 
ATOM      9  C   UNL d   1      53.392  32.312  54.436  0.00  0.00     0.258 A 
ATOM     10  N   UNL d   1      53.687  31.585  54.620  0.00  0.00    -0.321 N 
ATOM     11  O   UNL d   1      53.472  32.994  54.898  0.00  0.00    -0.267 OA
ATOM     12  H   UNL d   1      54.118  31.399  55.301  0.00  0.00     0.169 HD
ATOM     13  C   UNL d   1      53.481  31.067  54.011  0.00  0.00     0.059 A 
ATOM     14  C   UNL d   1      53.058  31.484  53.452  0.00  0.00     0.021 A 
ATOM     15  C   UNL d   1      53.636  30.251  53.904  0.00  0.00     0.017 A 
ATOM     16  C   UNL d   1      52.779  31.112  52.780  0.00  0.00     0.002 A 
ATOM     17  C   UNL d   1      52.924  30.310  52.662  0.00  0.00     0.000 A 
ATOM     18  C   UNL d   1      53.353  29.878  53.223  0.00  0.00     0.002 A 
ENDBRANCH   2   8
BRANCH   1  19
ATOM     19  C   UNL d   1      51.026  34.108  52.740  0.00  0.00     0.068 A 
ATOM     20  C   UNL d   1      50.625  34.537  53.305  0.00  0.00     0.018 A 
ATOM     21  C   UNL d   1      49.874  34.865  53.124  0.00  0.00     0.008 A 
ATOM     22  C   UNL d   1      49.555  34.750  52.382  0.00  0.00     0.065 A 
ATOM     23  C   UNL d   1      49.964  34.314  51.809  0.00  0.00     0.008 A 
ATOM     24  C   UNL d   1      50.686  33.998  51.985  0.00  0.00     0.018 A 
BRANCH  22  25
ATOM     25  C   UNL d   1      48.790  35.092  52.216  0.00  0.00     0.211 C 
ATOM     26  O   UNL d   1      48.419  34.943  51.489  0.00  0.00    -0.644 OA
ATOM     27  O   UNL d   1      48.417  35.572  52.780  0.00  0.00    -0.644 OA
ENDBRANCH  22  25
ENDBRANCH   1  19
TORSDOF 3
ENDMDL
MODEL 3
REMARK VINA RESULT:      -7.3      2.757      3.626
REMARK  3 active torsions:
REMARK  status: ('A' for Active; 'I' for Inactive)
REMARK    1  A    between atoms: C_11  and  N_1 
REMARK    2  A    between atoms: C_3  and  C_2 
REMARK    3  A    between atoms: C_13  and  C_16 
ROOT
ATOM      1  N   UNL d   1      51.186  34.060  52.660  0.00  0.00    -0.260 N 
ATOM      2  C   UNL d   1      52.207  33.339  53.109  0.00  0.00     0.093 A 
ATOM      3  C   UNL d   1      51.764  34.151  52.124  0.00  0.00     0.153 A 
ATOM      4  C   UNL d   1      51.435  33.561  53.281  0.00  0.00     0.272 A 
ATOM      5  S   UNL d   1      52.406  33.707  52.392  0.00  0.00    -0.053 SA
ATOM      6  S   UNL d   1      51.719  34.607  51.433  0.00  0.00    -0.052 SA
ATOM      7  O   UNL d   1      50.999  33.330  53.942  0.00  0.00    -0.266 OA
ENDROOT
BRANCH   2   8
ATOM      8  C   UNL d   1      52.698  32.856  53.541  0.00  0.00     0.068 A 
ATOM      9  C   UNL d   1      52.728  32.044  53.465  0.00  0.00     0.258 A 
ATOM     10  N   UNL d   1      53.274  31.746  53.976  0.00  0.00    -0.321 N 
ATOM     11  O   UNL d   1      52.266  31.600  52.942  0.00  0.00    -0.267 OA
ATOM     12  H   UNL d   1      53.465  30.946  54.064  0.00  0.00     0.169 HD
ATOM     13  C   UNL d   1      53.604  32.379  54.391  0.00  0.00     0.059 A 
ATOM     14  C   UNL d   1      53.255  33.067  54.129  0.00  0.00     0.021 A 
ATOM     15  C   UNL d   1      54.193  32.402  54.987  0.00  0.00     0.017 A 
ATOM     16  C   UNL d   1      53.473  33.790  54.443  0.00  0.00     0.002 A 
ATOM     17  C   UNL d   1      54.050  33.827  55.029  0.00  0.00     0.000 A 
ATOM     18  C   UNL d   1      54.411  33.134  55.302  0.00  0.00     0.002 A 
ENDBRANCH   2   8
BRANCH   1  19
ATOM     19  C   UNL d   1      50.443  34.386  52.648  0.00  0.00     0.068 A 
ATOM     20  C   UNL d   1      49.905  34.196  52.067  0.00  0.00     0.018 A 
ATOM     21  C   UNL d   1      49.141  34.545  52.074  0.00  0.00     0.008 A 
ATOM     22  C   UNL d   1      48.948  35.072  52.667  0.00  0.00     0.065 A 
ATOM     23  C   UNL d   1      49.496  35.263  53.256  0.00  0.00     0.008 A 
ATOM     24  C   UNL d   1      50.230  34.927  53.248  0.00  0.00     0.018 A 
BRANCH  22  25
ATOM     25  C   UNL d   1      48.167  35.416  52.658  0.00  0.00     0.211 C 
ATOM     26  O   UNL d   1      47.828  35.693  53.364  0.00  0.00    -0.644 OA
ATOM     27  O   UNL d   1      47.745  35.476  51.946  0.00  0.00    -0.644 OA
ENDBRANCH  22  25
ENDBRANCH   1  19
TORSDOF 3
ENDMDL
MODEL 4
REMARK VINA RESULT:      -6.8      2.702      4.956
REMARK  3 active torsions:
REMARK  status: ('A' for Active; 'I' for Inactive)
REMARK    1  A    between atoms: C_11  and  N_1 
REMARK    2  A    between atoms: C_3  and  C_2 
REMARK    3  A    between atoms: C_13  and  C_16 
ROOT
ATOM      1  N   UNL d   1      52.212  33.123  53.024  0.00  0.00    -0.260 N 
ATOM      2  C   UNL d   1      51.248  34.021  52.853  0.00  0.00     0.093 A 
ATOM      3  C   UNL d   1      52.576  33.785  52.780  0.00  0.00     0.153 A 
ATOM      4  C   UNL d   1      51.388  33.243  53.078  0.00  0.00     0.272 A 
ATOM      5  S   UNL d   1      51.987  34.352  52.670  0.00  0.00    -0.053 SA
ATOM      6  S   UNL d   1      53.391  33.875  52.662  0.00  0.00    -0.052 SA
ATOM      7  O   UNL d   1      50.817  32.695  53.310  0.00  0.00    -0.266 OA
ENDROOT
BRANCH   2   8
ATOM      8  C   UNL d   1      50.535  34.410  52.811  0.00  0.00     0.068 A 
ATOM      9  C   UNL d   1      50.222  34.862  53.415  0.00  0.00     0.258 A 
ATOM     10  N   UNL d   1      49.512  35.165  53.183  0.00  0.00    -0.321 N 
ATOM     11  O   UNL d   1      50.581  34.987  54.149  0.00  0.00    -0.267 OA
ATOM     12  H   UNL d   1      49.024  35.652  53.640  0.00  0.00     0.169 HD
ATOM     13  C   UNL d   1      49.364  34.903  52.414  0.00  0.00     0.059 A 
ATOM     14  C   UNL d   1      49.990  34.438  52.177  0.00  0.00     0.021 A 
ATOM     15  C   UNL d   1      48.719  35.041  51.897  0.00  0.00     0.017 A 
ATOM     16  C   UNL d   1      49.998  34.098  51.433  0.00  0.00     0.002 A 
ATOM     17  C   UNL d   1      49.370  34.225  50.916  0.00  0.00     0.000 A 
ATOM     18  C   UNL d   1      48.730  34.696  51.147  0.00  0.00     0.002 A 
ENDBRANCH   2   8
BRANCH   1  19
ATOM     19  C   UNL d   1      52.550  32.409  53.208  0.00  0.00     0.068 A 
ATOM     20  C   UNL d   1      52.994  32.310  53.884  0.00  0.00     0.018 A 
ATOM     21  C   UNL d   1      53.335  31.563  54.054  0.00  0.00     0.008 A 
ATOM     22  C   UNL d   1      53.217  30.942  53.537  0.00  0.00     0.065 A 
ATOM     23  C   UNL d   1      52.766  31.044  52.851  0.00  0.00     0.008 A 
ATOM     24  C   UNL d   1      52.438  31.764  52.688  0.00  0.00     0.018 A 
BRANCH  22  25
ATOM     25  C   UNL d   1      53.572  30.189  53.727  0.00  0.00     0.211 C 
ATOM     26  O   UNL d   1      54.267  29.950  53.341  0.00  0.00    -0.644 OA
ATOM     27  O   UNL d   1      53.223  29.695  54.295  0.00  0.00    -0.644 OA
ENDBRANCH  22  25
ENDBRANCH   1  19
TORSDOF 3
ENDMDL
MODEL 5
REMARK VINA RESULT:      -6.3      1.293      4.703
REMARK  3 active torsions:
REMARK  status: ('A' for Active; 'I' for Inactive)
REMARK    1  A    between atoms: C_11  and  N_1 
REMARK    2  A    between atoms: C_3  and  C_2 
REMARK    3  A    between atoms: C_13  and  C_16 
ROOT
ATOM      1  N   UNL d   1      53.519  32.110  53.484  0.00  0.00    -0.260 N 
ATOM      2  C   UNL d   1      53.251  33.412  53.489  0.00  0.00     0.093 A 
ATOM      3  C   UNL d   1      54.185  32.466  53.240  0.00  0.00     0.153 A 
ATOM      4  C   UNL d   1      52.925  32.675  53.645  0.00  0.00     0.272 A 
ATOM      5  S   UNL d   1      54.032  33.277  53.238  0.00  0.00    -0.053 SA
ATOM      6  S   UNL d   1      54.890  32.086  53.031  0.00  0.00    -0.052 SA
ATOM      7  O   UNL d   1      52.156  32.530  53.909  0.00  0.00    -0.266 OA
ENDROOT
BRANCH   2   8
ATOM      8  C   UNL d   1      52.900  34.141  53.558  0.00  0.00     0.068 A 
ATOM      9  C   UNL d   1      52.392  34.462  53.005  0.00  0.00     0.258 A 
ATOM     10  N   UNL d   1      52.149  35.190  53.253  0.00  0.00    -0.321 N 
ATOM     11  O   UNL d   1      52.164  34.093  52.300  0.00  0.00    -0.267 OA
ATOM     12  H   UNL d   1      51.632  35.689  52.844  0.00  0.00     0.169 HD
ATOM     13  C   UNL d   1      52.508  35.341  53.981  0.00  0.00     0.059 A 
ATOM     14  C   UNL d   1      52.972  34.701  54.176  0.00  0.00     0.021 A 
ATOM     15  C   UNL d   1      52.461  36.003  54.492  0.00  0.00     0.017 A 
ATOM     16  C   UNL d   1      53.398  34.694  54.874  0.00  0.00     0.002 A 
ATOM     17  C   UNL d   1      53.361  35.338  55.386  0.00  0.00     0.000 A 
ATOM     18  C   UNL d   1      52.892  35.993  55.196  0.00  0.00     0.002 A 
ENDBRANCH   2   8
BRANCH   1  19
ATOM     19  C   UNL d   1      53.387  31.316  53.579  0.00  0.00     0.068 A 
ATOM     20  C   UNL d   1      53.094  30.858  52.973  0.00  0.00     0.018 A 
ATOM     21  C   UNL d   1      52.965  30.037  53.093  0.00  0.00     0.008 A 
ATOM     22  C   UNL d   1      53.137  29.708  53.820  0.00  0.00     0.065 A 
ATOM     23  C   UNL d   1      53.434  30.174  54.435  0.00  0.00     0.008 A 
ATOM     24  C   UNL d   1      53.558  30.964  54.318  0.00  0.00     0.018 A 
BRANCH  22  25
ATOM     25  C   UNL d   1      53.000  28.872  53.924  0.00  0.00     0.211 C 
ATOM     26  O   UNL d   1      52.583  28.445  53.347  0.00  0.00    -0.644 OA
ATOM     27  O   UNL d   1      53.282  28.484  54.601  0.00  0.00    -0.644 OA
ENDBRANCH  22  25
ENDBRANCH   1  19
TORSDOF 3
ENDMDL
MODEL 6
REMARK VINA RESULT:      -6.2      2.701      4.263
REMARK  3 active torsions:
REMARK  status: ('A' for Active; 'I' for Inactive)
REMARK    1  A    between atoms: C_11  and  N_1 
REMARK    2  A    between atoms: C_3  and  C_2 
REMARK    3  A    between atoms: C_13  and  C_16 
ROOT
ATOM      1  N   UNL d   1      52.459  33.387  53.481  0.00  0.00    -0.260 N 
ATOM      2  C   UNL d   1      51.387  33.726  52.773  0.00  0.00     0.093 A 
ATOM      3  C   UNL d   1      52.075  32.707  53.334  0.00  0.00     0.153 A 
ATOM      4  C   UNL d   1      52.052  34.033  53.143  0.00  0.00     0.272 A 
ATOM      5  S   UNL d   1      51.406  32.905  52.894  0.00  0.00    -0.053 SA
ATOM      6  S   UNL d   1      52.313  31.953  53.581  0.00  0.00    -0.052 SA
ATOM      7  O   UNL d   1      52.269  34.829  53.171  0.00  0.00    -0.266 OA
ENDROOT
BRANCH   2   8
ATOM      8  C   UNL d   1      50.810  34.127  52.363  0.00  0.00     0.068 A 
ATOM      9  C   UNL d   1      50.806  34.226  51.553  0.00  0.00     0.258 A 
ATOM     10  N   UNL d   1      50.155  34.650  51.337  0.00  0.00    -0.321 N 
ATOM     11  O   UNL d   1      51.383  33.934  51.037  0.00  0.00    -0.267 OA
ATOM     12  H   UNL d   1      49.955  34.864  50.564  0.00  0.00     0.169 HD
ATOM     13  C   UNL d   1      49.731  34.828  52.023  0.00  0.00     0.059 A 
ATOM     14  C   UNL d   1      50.128  34.510  52.660  0.00  0.00     0.021 A 
ATOM     15  C   UNL d   1      49.017  35.251  52.136  0.00  0.00     0.017 A 
ATOM     16  C   UNL d   1      49.835  34.599  53.418  0.00  0.00     0.002 A 
ATOM     17  C   UNL d   1      49.134  35.012  53.544  0.00  0.00     0.000 A 
ATOM     18  C   UNL d   1      48.724  35.339  52.903  0.00  0.00     0.002 A 
ENDBRANCH   2   8
BRANCH   1  19
ATOM     19  C   UNL d   1      53.149  33.487  53.894  0.00  0.00     0.068 A 
ATOM     20  C   UNL d   1      53.870  33.283  53.574  0.00  0.00     0.018 A 
ATOM     21  C   UNL d   1      54.572  33.396  54.019  0.00  0.00     0.008 A 
ATOM     22  C   UNL d   1      54.523  33.710  54.771  0.00  0.00     0.065 A 
ATOM     23  C   UNL d   1      53.790  33.917  55.095  0.00  0.00     0.008 A 
ATOM     24  C   UNL d   1      53.115  33.808  54.665  0.00  0.00     0.018 A 
BRANCH  22  25
ATOM     25  C   UNL d   1      55.248  33.818  55.209  0.00  0.00     0.211 C 
ATOM     26  O   UNL d   1      55.939  34.054  54.815  0.00  0.00    -0.644 OA
ATOM     27  O   UNL d   1      55.263  33.686  56.028  0.00  0.00    -0.644 OA
ENDBRANCH  22  25
ENDBRANCH   1  19
TORSDOF 3
ENDMDL
