MODEL 1
REMARK VINA RESULT:      -8.3      0.000      0.000
REMARK  6 active torsions:
REMARK  status: ('A' for Active; 'I' for Inactive)
REMARK    1  A    between atoms: N_3  and  S_1 
REMARK    2  A    between atoms: C_6  and  S_1 
REMARK    3  A    between atoms: N_2  and  C_5 
REMARK    4  A    between atoms: C_4  and  N_3 
REMARK    5  A    between atoms: C_5  and  C_4 
REMARK    6  A    between atoms: C_10  and  C_5 
ROOT
ATOM      1  C   UNL d   1      53.484  32.499  53.754  0.00  0.00     0.086 C 
ENDROOT
BRANCH   1   2
ATOM      2  N   UNL d   1      53.440  31.668  53.769  0.00  0.00    -0.300 N 
ATOM      3  C   UNL d   1      53.263  31.276  54.473  0.00  0.00     0.100 A 
ATOM      4  C   UNL d   1      53.220  30.452  54.486  0.00  0.00     0.100 A 
ATOM      5  N   UNL d   1      53.353  30.024  53.798  0.00  0.00    -0.299 N 
ATOM      6  C   UNL d   1      53.531  30.417  53.094  0.00  0.00     0.100 A 
ATOM      7  C   UNL d   1      53.310  29.194  53.813  0.00  0.00     0.100 C 
ATOM      8  C   UNL d   1      53.574  31.237  53.078  0.00  0.00     0.100 A 
ENDBRANCH   1   2
BRANCH   1   9
ATOM      9  C   UNL d   1      52.943  32.928  53.310  0.00  0.00     0.130 C 
BRANCH   9  10
ATOM     10  N   UNL d   1      52.324  33.325  53.685  0.00  0.00    -0.155 NA
BRANCH  10  11
ATOM     11  S   UNL d   1      51.697  33.627  53.242  0.00  0.00     0.285 S 
ATOM     12  O   UNL d   1      52.218  34.118  52.816  0.00  0.00    -0.198 OA
ATOM     13  O   UNL d   1      51.158  33.141  53.659  0.00  0.00    -0.198 OA
BRANCH  11  14
ATOM     14  C   UNL d   1      51.064  33.930  52.796  0.00  0.00     0.105 A 
ATOM     15  C   UNL d   1      51.116  33.963  51.973  0.00  0.00     0.014 A 
ATOM     16  C   UNL d   1      50.491  34.262  51.531  0.00  0.00     0.012 A 
ATOM     17  C   UNL d   1      49.806  34.533  51.913  0.00  0.00     0.058 A 
ATOM     18  C   UNL d   1      49.754  34.501  52.735  0.00  0.00     0.012 A 
ATOM     19 CL   UNL d   1      49.172  34.837  51.471  0.00  0.00    -0.082 Cl
ATOM     20  C   UNL d   1      50.383  34.199  53.176  0.00  0.00     0.014 A 
ENDBRANCH  11  14
ENDBRANCH  10  11
ENDBRANCH   9  10
ENDBRANCH   1   9
BRANCH   1  21
ATOM     21  C   UNL d   1      54.069  32.890  54.185  0.00  0.00     0.037 A 
ATOM     22  C   UNL d   1      53.964  33.030  54.992  0.00  0.00     0.100 A 
ATOM     23  N   UNL d   1      54.549  33.421  55.423  0.00  0.00    -0.242 NA
ATOM     24  C   UNL d   1      55.239  33.672  55.047  0.00  0.00     0.099 A 
ATOM     25  C   UNL d   1      55.340  33.532  54.248  0.00  0.00     0.021 A 
ATOM     26  C   UNL d   1      54.755  33.141  53.817  0.00  0.00     0.005 A 
ENDBRANCH   1  21
TORSDOF 6
ENDMDL
MODEL 2
REMARK VINA RESULT:      -8.2      0.628      2.425
REMARK  6 active torsions:
REMARK  status: ('A' for Active; 'I' for Inactive)
REMARK    1  A    between atoms: N_3  and  S_1 
REMARK    2  A    between atoms: C_6  and  S_1 
REMARK    3  A    between atoms: N_2  and  C_5 
REMARK    4  A    between atoms: C_4  and  N_3 
REMARK    5  A    between atoms: C_5  and  C_4 
REMARK    6  A    between atoms: C_10  and  C_5 
ROOT
ATOM      1  C   UNL d   1      53.096  32.368  53.390  0.00  0.00     0.086 C 
ENDROOT
BRANCH   1   2
ATOM      2  N   UNL d   1      53.695  32.717  53.850  0.00  0.00    -0.300 N 
ATOM      3  C   UNL d   1      53.598  32.795  54.665  0.00  0.00     0.100 A 
ATOM      4  C   UNL d   1      54.194  33.141  55.120  0.00  0.00     0.100 A 
ATOM      5  N   UNL d   1      54.882  33.407  54.759  0.00  0.00    -0.299 N 
ATOM      6  C   UNL d   1      54.979  33.329  53.944  0.00  0.00     0.100 A 
ATOM      7  C   UNL d   1      55.481  33.756  55.219  0.00  0.00     0.100 C 
ATOM      8  C   UNL d   1      54.388  32.985  53.489  0.00  0.00     0.100 A 
ENDBRANCH   1   2
BRANCH   1   9
ATOM      9  C   UNL d   1      52.535  32.843  53.023  0.00  0.00     0.130 C 
BRANCH   9  10
ATOM     10  N   UNL d   1      51.970  33.237  53.476  0.00  0.00    -0.155 NA
BRANCH  10  11
ATOM     11  S   UNL d   1      51.334  33.613  53.108  0.00  0.00     0.285 S 
ATOM     12  O   UNL d   1      51.853  34.130  52.711  0.00  0.00    -0.198 OA
ATOM     13  O   UNL d   1      50.797  33.103  53.499  0.00  0.00    -0.198 OA
BRANCH  11  14
ATOM     14  C   UNL d   1      50.692  33.992  52.738  0.00  0.00     0.105 A 
ATOM     15  C   UNL d   1      50.571  33.903  51.927  0.00  0.00     0.014 A 
ATOM     16  C   UNL d   1      49.938  34.276  51.561  0.00  0.00     0.012 A 
ATOM     17  C   UNL d   1      49.417  34.744  52.007  0.00  0.00     0.058 A 
ATOM     18  C   UNL d   1      49.538  34.833  52.818  0.00  0.00     0.012 A 
ATOM     19 CL   UNL d   1      48.776  35.123  51.641  0.00  0.00    -0.082 Cl
ATOM     20  C   UNL d   1      50.175  34.457  53.183  0.00  0.00     0.014 A 
ENDBRANCH  11  14
ENDBRANCH  10  11
ENDBRANCH   9  10
ENDBRANCH   1   9
BRANCH   1  21
ATOM     21  C   UNL d   1      53.066  31.548  53.303  0.00  0.00     0.037 A 
ATOM     22  C   UNL d   1      53.114  31.211  52.552  0.00  0.00     0.100 A 
ATOM     23  N   UNL d   1      53.083  30.391  52.465  0.00  0.00    -0.242 NA
ATOM     24  C   UNL d   1      53.005  29.909  53.130  0.00  0.00     0.099 A 
ATOM     25  C   UNL d   1      52.957  30.247  53.873  0.00  0.00     0.021 A 
ATOM     26  C   UNL d   1      52.988  31.066  53.960  0.00  0.00     0.005 A 
ENDBRANCH   1  21
TORSDOF 6
ENDMDL
MODEL 3
REMARK VINA RESULT:      -7.7      2.304      4.359
REMARK  6 active torsions:
REMARK  status: ('A' for Active; 'I' for Inactive)
REMARK    1  A    between atoms: N_3  and  S_1 
REMARK    2  A    between atoms: C_6  and  S_1 
REMARK    3  A    between atoms: N_2  and  C_5 
REMARK    4  A    between atoms: C_4  and  N_3 
REMARK    5  A    between atoms: C_5  and  C_4 
REMARK    6  A    between atoms: C_10  and  C_5 
ROOT
ATOM      1  C   UNL d   1      51.779  33.843  53.165  0.00  0.00     0.086 C 
ENDROOT
BRANCH   1   2
ATOM      2  N   UNL d   1      51.118  34.054  52.705  0.00  0.00    -0.300 N 
ATOM      3  C   UNL d   1      51.191  34.133  51.887  0.00  0.00     0.100 A 
ATOM      4  C   UNL d   1      50.535  34.342  51.433  0.00  0.00     0.100 A 
ATOM      5  N   UNL d   1      49.810  34.472  51.796  0.00  0.00    -0.299 N 
ATOM      6  C   UNL d   1      49.737  34.393  52.614  0.00  0.00     0.100 A 
ATOM      7  C   UNL d   1      49.149  34.683  51.337  0.00  0.00     0.100 C 
ATOM      8  C   UNL d   1      50.388  34.185  53.069  0.00  0.00     0.100 A 
ENDBRANCH   1   2
BRANCH   1   9
ATOM      9  C   UNL d   1      51.917  33.053  53.341  0.00  0.00     0.130 C 
BRANCH   9  10
ATOM     10  N   UNL d   1      52.358  32.587  52.822  0.00  0.00    -0.155 NA
BRANCH  10  11
ATOM     11  S   UNL d   1      52.608  31.835  53.051  0.00  0.00     0.285 S 
ATOM     12  O   UNL d   1      51.862  31.676  53.387  0.00  0.00    -0.198 OA
ATOM     13  O   UNL d   1      53.363  31.976  52.719  0.00  0.00    -0.198 OA
BRANCH  11  14
ATOM     14  C   UNL d   1      52.861  31.077  53.282  0.00  0.00     0.105 A 
ATOM     15  C   UNL d   1      52.461  30.407  53.013  0.00  0.00     0.014 A 
ATOM     16  C   UNL d   1      52.710  29.658  53.240  0.00  0.00     0.012 A 
ATOM     17  C   UNL d   1      53.365  29.573  53.742  0.00  0.00     0.058 A 
ATOM     18  C   UNL d   1      53.765  30.243  54.011  0.00  0.00     0.012 A 
ATOM     19 CL   UNL d   1      53.621  28.818  53.974  0.00  0.00    -0.082 Cl
ATOM     20  C   UNL d   1      53.513  30.994  53.781  0.00  0.00     0.014 A 
ENDBRANCH  11  14
ENDBRANCH  10  11
ENDBRANCH   9  10
ENDBRANCH   1   9
BRANCH   1  21
ATOM     21  C   UNL d   1      52.292  34.426  53.442  0.00  0.00     0.037 A 
ATOM     22  C   UNL d   1      52.830  34.782  52.927  0.00  0.00     0.100 A 
ATOM     23  N   UNL d   1      53.344  35.364  53.204  0.00  0.00    -0.242 NA
ATOM     24  C   UNL d   1      53.320  35.591  53.997  0.00  0.00     0.099 A 
ATOM     25  C   UNL d   1      52.786  35.237  54.505  0.00  0.00     0.021 A 
ATOM     26  C   UNL d   1      52.272  34.654  54.227  0.00  0.00     0.005 A 
ENDBRANCH   1  21
TORSDOF 6
ENDMDL
MODEL 4
REMARK VINA RESULT:      -7.3      2.287      4.686
REMARK  6 active torsions:
REMARK  status: ('A' for Active; 'I' for Inactive)
REMARK    1  A    between atoms: N_3  and  S_1 
REMARK    2  A    between atoms: C_6  and  S_1 
REMARK    3  A    between atoms: N_2  and  C_5 
REMARK    4  A    between atoms: C_4  and  N_3 
REMARK    5  A    between atoms: C_5  and  C_4 
REMARK    6  A    between atoms: C_10  and  C_5 
ROOT
ATOM      1  C   UNL d   1      51.727  33.816  53.159  0.00  0.00     0.086 C 
ENDROOT
BRANCH   1   2
ATOM      2  N   UNL d   1      52.200  34.399  53.517  0.00  0.00    -0.300 N 
ATOM      3  C   UNL d   1      52.779  34.790  53.077  0.00  0.00     0.100 A 
ATOM      4  C   UNL d   1      53.247  35.368  53.434  0.00  0.00     0.100 A 
ATOM      5  N   UNL d   1      53.136  35.553  54.227  0.00  0.00    -0.299 N 
ATOM      6  C   UNL d   1      52.558  35.162  54.666  0.00  0.00     0.100 A 
ATOM      7  C   UNL d   1      53.609  36.136  54.585  0.00  0.00     0.100 C 
ATOM      8  C   UNL d   1      52.090  34.587  54.314  0.00  0.00     0.100 A 
ENDBRANCH   1   2
BRANCH   1   9
ATOM      9  C   UNL d   1      51.864  33.023  53.320  0.00  0.00     0.130 C 
BRANCH   9  10
ATOM     10  N   UNL d   1      52.349  32.579  52.821  0.00  0.00    -0.155 NA
BRANCH  10  11
ATOM     11  S   UNL d   1      52.603  31.829  53.051  0.00  0.00     0.285 S 
ATOM     12  O   UNL d   1      51.852  31.658  53.370  0.00  0.00    -0.198 OA
ATOM     13  O   UNL d   1      53.363  31.982  52.735  0.00  0.00    -0.198 OA
BRANCH  11  14
ATOM     14  C   UNL d   1      52.860  31.072  53.281  0.00  0.00     0.105 A 
ATOM     15  C   UNL d   1      52.487  30.399  52.983  0.00  0.00     0.014 A 
ATOM     16  C   UNL d   1      52.741  29.652  53.210  0.00  0.00     0.012 A 
ATOM     17  C   UNL d   1      53.373  29.572  53.741  0.00  0.00     0.058 A 
ATOM     18  C   UNL d   1      53.746  30.244  54.040  0.00  0.00     0.012 A 
ATOM     19 CL   UNL d   1      53.633  28.818  53.974  0.00  0.00    -0.082 Cl
ATOM     20  C   UNL d   1      53.489  30.994  53.810  0.00  0.00     0.014 A 
ENDBRANCH  11  14
ENDBRANCH  10  11
ENDBRANCH   9  10
ENDBRANCH   1   9
BRANCH   1  21
ATOM     21  C   UNL d   1      51.121  34.035  52.643  0.00  0.00     0.037 A 
ATOM     22  C   UNL d   1      51.283  34.146  51.840  0.00  0.00     0.100 A 
ATOM     23  N   UNL d   1      50.677  34.365  51.324  0.00  0.00    -0.242 NA
ATOM     24  C   UNL d   1      49.911  34.472  51.610  0.00  0.00     0.099 A 
ATOM     25  C   UNL d   1      49.755  34.360  52.405  0.00  0.00     0.021 A 
ATOM     26  C   UNL d   1      50.360  34.142  52.921  0.00  0.00     0.005 A 
ENDBRANCH   1  21
TORSDOF 6
ENDMDL
MODEL 5
REMARK VINA RESULT:      -7.0      0.614      1.098
REMARK  6 active torsions:
REMARK  status: ('A' for Active; 'I' for Inactive)
REMARK    1  A    between atoms: N_3  and  S_1 
REMARK    2  A    between atoms: C_6  and  S_1 
REMARK    3  A    between atoms: N_2  and  C_5 
REMARK    4  A    between atoms: C_4  and  N_3 
REMARK    5  A    between atoms: C_5  and  C_4 
REMARK    6  A    between atoms: C_10  and  C_5 
ROOT
ATOM      1  C   UNL d   1      52.946  32.469  53.760  0.00  0.00     0.086 C 
ENDROOT
BRANCH   1   2
ATOM      2  N   UNL d   1      52.928  31.659  53.569  0.00  0.00    -0.300 N 
ATOM      3  C   UNL d   1      53.132  31.409  52.810  0.00  0.00     0.100 A 
ATOM      4  C   UNL d   1      53.113  30.605  52.622  0.00  0.00     0.100 A 
ATOM      5  N   UNL d   1      52.891  30.057  53.191  0.00  0.00    -0.299 N 
ATOM      6  C   UNL d   1      52.686  30.307  53.950  0.00  0.00     0.100 A 
ATOM      7  C   UNL d   1      52.872  29.247  53.000  0.00  0.00     0.100 C 
ATOM      8  C   UNL d   1      52.704  31.106  54.140  0.00  0.00     0.100 A 
ENDBRANCH   1   2
BRANCH   1   9
ATOM      9  C   UNL d   1      52.273  32.927  53.661  0.00  0.00     0.130 C 
BRANCH   9  10
ATOM     10  N   UNL d   1      52.135  33.307  52.942  0.00  0.00    -0.155 NA
BRANCH  10  11
ATOM     11  S   UNL d   1      51.425  33.708  52.815  0.00  0.00     0.285 S 
ATOM     12  O   UNL d   1      51.071  33.311  53.455  0.00  0.00    -0.198 OA
ATOM     13  O   UNL d   1      51.764  34.118  52.168  0.00  0.00    -0.198 OA
BRANCH  11  14
ATOM     14  C   UNL d   1      50.710  34.113  52.685  0.00  0.00     0.105 A 
ATOM     15  C   UNL d   1      50.382  34.575  53.285  0.00  0.00     0.014 A 
ATOM     16  C   UNL d   1      49.676  34.976  53.158  0.00  0.00     0.012 A 
ATOM     17  C   UNL d   1      49.291  34.916  52.425  0.00  0.00     0.058 A 
ATOM     18  C   UNL d   1      49.619  34.454  51.825  0.00  0.00     0.012 A 
ATOM     19 CL   UNL d   1      48.578  35.319  52.292  0.00  0.00    -0.082 Cl
ATOM     20  C   UNL d   1      50.329  34.053  51.956  0.00  0.00     0.014 A 
ENDBRANCH  11  14
ENDBRANCH  10  11
ENDBRANCH   9  10
ENDBRANCH   1   9
BRANCH   1  21
ATOM     21  C   UNL d   1      53.640  32.810  54.048  0.00  0.00     0.037 A 
ATOM     22  C   UNL d   1      53.680  33.067  54.832  0.00  0.00     0.100 A 
ATOM     23  N   UNL d   1      54.374  33.408  55.120  0.00  0.00    -0.242 NA
ATOM     24  C   UNL d   1      55.028  33.492  54.624  0.00  0.00     0.099 A 
ATOM     25  C   UNL d   1      54.985  33.236  53.849  0.00  0.00     0.021 A 
ATOM     26  C   UNL d   1      54.292  32.895  53.561  0.00  0.00     0.005 A 
ENDBRANCH   1  21
TORSDOF 6
ENDMDL
