MODEL 1
REMARK VINA RESULT:      -5.2      0.000      0.000
REMARK  3 active torsions:
REMARK  status: ('A' for Active; 'I' for Inactive)
REMARK    1  A    between atoms: C_7  and  C_2 
REMARK       I    between atoms: N_9  and  C_7 
REMARK    2  A    between atoms: C_12  and  N_9 
REMARK    3  A    between atoms: C_11  and  C_12 
ROOT
ATOM      1  C   UNL d   1     -41.389-121.827 -51.395  0.00  0.00     0.285 C 
ATOM      2  N   UNL d   1     -41.649-122.078 -50.652  0.00  0.00    -0.206 NA
ATOM      3  O   UNL d   1     -41.124-121.055 -51.504  0.00  0.00    -0.265 OA
ENDROOT
BRANCH   1   4
ATOM      4  C   UNL d   1     -41.395-122.358 -52.037  0.00  0.00     0.133 A 
ATOM      5  C   UNL d   1     -41.666-122.117 -52.781  0.00  0.00     0.272 A 
ATOM      6  N   UNL d   1     -41.667-122.643 -53.403  0.00  0.00    -0.252 N 
ATOM      7  O   UNL d   1     -41.933-121.345 -52.889  0.00  0.00    -0.266 OA
ATOM      8  C   UNL d   1     -41.401-123.414 -53.295  0.00  0.00     0.182 A 
ATOM      9  C   UNL d   1     -41.898-122.568 -54.190  0.00  0.00     0.092 A 
ATOM     10  N   UNL d   1     -41.133-123.659 -52.565  0.00  0.00    -0.220 NA
ATOM     11  S   UNL d   1     -41.466-123.817 -54.015  0.00  0.00    -0.048 SA
ATOM     12  C   UNL d   1     -41.128-123.129 -51.929  0.00  0.00     0.111 A 
ATOM     13  C   UNL d   1     -41.774-123.291 -54.566  0.00  0.00     0.057 A 
ENDBRANCH   1   4
BRANCH   2  14
ATOM     14  C   UNL d   1     -41.913-122.851 -50.549  0.00  0.00     0.103 C 
BRANCH  14  15
ATOM     15  C   UNL d   1     -42.051-123.131 -49.789  0.00  0.00     0.030 A 
ATOM     16  C   UNL d   1     -42.826-123.197 -49.502  0.00  0.00     0.059 A 
ATOM     17 CL   UNL d   1     -43.459-122.979 -49.982  0.00  0.00    -0.082 Cl
ATOM     18  C   UNL d   1     -42.970-123.475 -48.748  0.00  0.00     0.011 A 
ATOM     19  C   UNL d   1     -42.334-123.696 -48.260  0.00  0.00     0.001 A 
ATOM     20  C   UNL d   1     -41.562-123.631 -48.543  0.00  0.00     0.000 A 
ATOM     21  C   UNL d   1     -41.418-123.349 -49.309  0.00  0.00     0.002 A 
ENDBRANCH  14  15
ENDBRANCH   2  14
TORSDOF 3
ENDMDL
MODEL 2
REMARK VINA RESULT:      -4.5      1.703      4.011
REMARK  3 active torsions:
REMARK  status: ('A' for Active; 'I' for Inactive)
REMARK    1  A    between atoms: C_7  and  C_2 
REMARK       I    between atoms: N_9  and  C_7 
REMARK    2  A    between atoms: C_12  and  N_9 
REMARK    3  A    between atoms: C_11  and  C_12 
ROOT
ATOM      1  C   UNL d   1     -41.703-121.427 -51.329  0.00  0.00     0.285 C 
ATOM      2  N   UNL d   1     -41.478-121.656 -52.090  0.00  0.00    -0.206 NA
ATOM      3  O   UNL d   1     -41.420-120.724 -51.005  0.00  0.00    -0.265 OA
ENDROOT
BRANCH   1   4
ATOM      4  C   UNL d   1     -42.219-121.908 -50.887  0.00  0.00     0.133 A 
ATOM      5  C   UNL d   1     -41.929-122.394 -50.282  0.00  0.00     0.272 A 
ATOM      6  N   UNL d   1     -42.442-122.861 -49.856  0.00  0.00    -0.252 N 
ATOM      7  O   UNL d   1     -41.123-122.402 -50.115  0.00  0.00    -0.266 OA
ATOM      8  C   UNL d   1     -43.248-122.854 -50.023  0.00  0.00     0.182 A 
ATOM      9  C   UNL d   1     -42.321-123.390 -49.236  0.00  0.00     0.092 A 
ATOM     10  N   UNL d   1     -43.541-122.379 -50.616  0.00  0.00    -0.220 NA
ATOM     11  S   UNL d   1     -43.627-123.378 -49.506  0.00  0.00    -0.048 SA
ATOM     12  C   UNL d   1     -43.025-121.901 -51.054  0.00  0.00     0.111 A 
ATOM     13  C   UNL d   1     -43.052-123.707 -49.021  0.00  0.00     0.057 A 
ENDBRANCH   1   4
BRANCH   2  14
ATOM     14  C   UNL d   1     -41.764-122.359 -52.409  0.00  0.00     0.103 C 
BRANCH  14  15
ATOM     15  C   UNL d   1     -41.717-122.482 -53.219  0.00  0.00     0.030 A 
ATOM     16  C   UNL d   1     -41.396-123.186 -53.517  0.00  0.00     0.059 A 
ATOM     17 CL   UNL d   1     -41.125-123.763 -52.996  0.00  0.00    -0.082 Cl
ATOM     18  C   UNL d   1     -41.346-123.315 -54.322  0.00  0.00     0.011 A 
ATOM     19  C   UNL d   1     -41.620-122.735 -54.852  0.00  0.00     0.001 A 
ATOM     20  C   UNL d   1     -41.939-122.033 -54.558  0.00  0.00     0.000 A 
ATOM     21  C   UNL d   1     -41.988-121.905 -53.741  0.00  0.00     0.002 A 
ENDBRANCH  14  15
ENDBRANCH   2  14
TORSDOF 3
ENDMDL
MODEL 3
REMARK VINA RESULT:      -4.1      2.306      4.370
REMARK  3 active torsions:
REMARK  status: ('A' for Active; 'I' for Inactive)
REMARK    1  A    between atoms: C_7  and  C_2 
REMARK       I    between atoms: N_9  and  C_7 
REMARK    2  A    between atoms: C_12  and  N_9 
REMARK    3  A    between atoms: C_11  and  C_12 
ROOT
ATOM      1  C   UNL d   1     -42.912-123.465 -50.077  0.00  0.00     0.285 C 
ATOM      2  N   UNL d   1     -42.640-123.136 -50.783  0.00  0.00    -0.206 NA
ATOM      3  O   UNL d   1     -43.656-123.817 -50.043  0.00  0.00    -0.265 OA
ENDROOT
BRANCH   1   4
ATOM      4  C   UNL d   1     -42.433-123.441 -49.397  0.00  0.00     0.133 A 
ATOM      5  C   UNL d   1     -42.692-123.055 -48.711  0.00  0.00     0.272 A 
ATOM      6  N   UNL d   1     -42.216-123.037 -48.051  0.00  0.00    -0.252 N 
ATOM      7  O   UNL d   1     -43.431-122.691 -48.701  0.00  0.00    -0.266 OA
ATOM      8  C   UNL d   1     -41.478-123.400 -48.060  0.00  0.00     0.182 A 
ATOM      9  C   UNL d   1     -42.320-122.703 -47.305  0.00  0.00     0.092 A 
ATOM     10  N   UNL d   1     -41.216-123.782 -48.730  0.00  0.00    -0.220 NA
ATOM     11  S   UNL d   1     -41.123-123.293 -47.320  0.00  0.00    -0.048 SA
ATOM     12  C   UNL d   1     -41.695-123.804 -49.406  0.00  0.00     0.111 A 
ATOM     13  C   UNL d   1     -41.646-122.862 -46.855  0.00  0.00     0.057 A 
ENDBRANCH   1   4
BRANCH   2  14
ATOM     14  C   UNL d   1     -41.896-122.785 -50.813  0.00  0.00     0.103 C 
BRANCH  14  15
ATOM     15  C   UNL d   1     -41.639-122.441 -51.514  0.00  0.00     0.030 A 
ATOM     16  C   UNL d   1     -41.452-121.634 -51.539  0.00  0.00     0.059 A 
ATOM     17 CL   UNL d   1     -41.523-121.177 -50.858  0.00  0.00    -0.082 Cl
ATOM     18  C   UNL d   1     -41.196-121.286 -52.233  0.00  0.00     0.011 A 
ATOM     19  C   UNL d   1     -41.123-121.745 -52.923  0.00  0.00     0.001 A 
ATOM     20  C   UNL d   1     -41.309-122.548 -52.900  0.00  0.00     0.000 A 
ATOM     21  C   UNL d   1     -41.568-122.899 -52.195  0.00  0.00     0.002 A 
ENDBRANCH  14  15
ENDBRANCH   2  14
TORSDOF 3
ENDMDL
