MODEL 1
REMARK VINA RESULT:      28.3      0.000      0.000
REMARK  2 active torsions:
REMARK  status: ('A' for Active; 'I' for Inactive)
REMARK    1  A    between atoms: C_10  and  N_3 
REMARK    2  A    between atoms: C_11  and  C_4 
ROOT
ATOM      1  C   UNL d   1      44.853 -15.540  44.556  0.00  0.00     0.154 A 
ATOM      2  C   UNL d   1      44.895 -14.722  44.559  0.00  0.00     0.094 A 
ATOM      3  N   UNL d   1      45.593 -15.835  44.337  0.00  0.00    -0.290 N 
ATOM      4  C   UNL d   1      45.662 -14.504  44.341  0.00  0.00     0.025 A 
ATOM      5  C   UNL d   1      46.088 -15.190  44.206  0.00  0.00     0.082 A 
ATOM      6  N   UNL d   1      44.148 -15.922  44.753  0.00  0.00    -0.206 NA
ATOM      7  C   UNL d   1      44.233 -14.271  44.758  0.00  0.00     0.284 A 
ATOM      8  N   UNL d   1      43.528 -14.652  44.955  0.00  0.00    -0.186 NA
ATOM      9  C   UNL d   1      43.486 -15.470  44.953  0.00  0.00     0.203 A 
ATOM     10  O   UNL d   1      44.276 -13.453  44.760  0.00  0.00    -0.265 OA
ENDROOT
BRANCH   3  11
ATOM     11  C   UNL d   1      45.833 -16.609  44.254  0.00  0.00     0.065 A 
ATOM     12  C   UNL d   1      46.036 -17.053  44.919  0.00  0.00     0.018 A 
ATOM     13  C   UNL d   1      46.279 -17.837  44.836  0.00  0.00     0.002 A 
ATOM     14  C   UNL d   1      46.321 -18.185  44.079  0.00  0.00     0.000 A 
ATOM     15  C   UNL d   1      46.116 -17.733  43.418  0.00  0.00     0.002 A 
ATOM     16  C   UNL d   1      45.874 -16.950  43.505  0.00  0.00     0.018 A 
ENDBRANCH   3  11
BRANCH   4  17
ATOM     17  C   UNL d   1      45.830 -13.696  44.306  0.00  0.00     0.002 A 
ATOM     18  C   UNL d   1      46.199 -13.322  44.944  0.00  0.00     0.000 A 
ATOM     19  C   UNL d   1      46.367 -12.514  44.910  0.00  0.00     0.000 A 
ATOM     20  C   UNL d   1      46.166 -12.082  44.239  0.00  0.00     0.000 A 
ATOM     21  C   UNL d   1      45.796 -12.458  43.601  0.00  0.00     0.000 A 
ATOM     22  C   UNL d   1      45.629 -13.260  43.635  0.00  0.00     0.000 A 
ENDBRANCH   4  17
TORSDOF 2
ENDMDL
