MODEL 1
REMARK VINA RESULT:      39.3      0.000      0.000
REMARK  6 active torsions:
REMARK  status: ('A' for Active; 'I' for Inactive)
REMARK    1  A    between atoms: N_2  and  C_1 
REMARK       I    between atoms: C_4  and  N_2 
REMARK    2  A    between atoms: C_6  and  C_4 
REMARK    3  A    between atoms: C_9  and  C_6 
REMARK    4  A    between atoms: C_8  and  O_15 
REMARK    5  A    between atoms: O_15  and  C_9 
REMARK    6  A    between atoms: O_17  and  C_10 
ROOT
ATOM      1  C   UNL d   1     -49.534  27.315  34.004  0.00  0.00     0.128 C 
ENDROOT
BRANCH   1   2
ATOM      2  C   UNL d   1     -48.748  27.573  33.927  0.00  0.00     0.089 C 
BRANCH   2   3
ATOM      3  C   UNL d   1     -48.393  27.993  34.543  0.00  0.00     0.283 C 
ATOM      4  N   UNL d   1     -48.472  28.813  34.571  0.00  0.00    -0.183 NA
ATOM      5  O   UNL d   1     -47.965  27.594  35.123  0.00  0.00    -0.265 OA
BRANCH   4   6
ATOM      6  C   UNL d   1     -48.114  29.233  35.191  0.00  0.00     0.197 A 
ATOM      7  N   UNL d   1     -48.211  29.093  35.996  0.00  0.00    -0.219 NA
ATOM      8  C   UNL d   1     -47.757  29.637  36.405  0.00  0.00     0.108 A 
ATOM      9  C   UNL d   1     -47.375  30.117  35.850  0.00  0.00     0.059 A 
ATOM     10  S   UNL d   1     -47.595  29.869  35.098  0.00  0.00    -0.046 SA
ENDBRANCH   4   6
ENDBRANCH   2   3
ENDBRANCH   1   2
BRANCH   1  11
ATOM     11  O   UNL d   1     -49.683  26.883  33.318  0.00  0.00    -0.305 OA
BRANCH  11  12
ATOM     12  C   UNL d   1     -50.272  26.309  33.317  0.00  0.00     0.100 A 
ATOM     13  C   UNL d   1     -50.068  25.507  33.307  0.00  0.00     0.027 A 
ATOM     14  C   UNL d   1     -50.657  24.933  33.306  0.00  0.00     0.026 A 
ATOM     15  C   UNL d   1     -51.452  25.155  33.313  0.00  0.00     0.094 A 
ATOM     16  C   UNL d   1     -51.657  25.951  33.322  0.00  0.00     0.026 A 
ATOM     17  C   UNL d   1     -51.067  26.531  33.324  0.00  0.00     0.027 A 
BRANCH  15  18
ATOM     18  O   UNL d   1     -52.043  24.571  33.311  0.00  0.00    -0.328 OA
ATOM     19  C   UNL d   1     -52.812  24.759  33.538  0.00  0.00     0.181 C 
ENDBRANCH  15  18
ENDBRANCH  11  12
ENDBRANCH   1  11
TORSDOF 6
ENDMDL
MODEL 2
REMARK VINA RESULT:      40.0      2.574      5.230
REMARK  6 active torsions:
REMARK  status: ('A' for Active; 'I' for Inactive)
REMARK    1  A    between atoms: N_2  and  C_1 
REMARK       I    between atoms: C_4  and  N_2 
REMARK    2  A    between atoms: C_6  and  C_4 
REMARK    3  A    between atoms: C_9  and  C_6 
REMARK    4  A    between atoms: C_8  and  O_15 
REMARK    5  A    between atoms: O_15  and  C_9 
REMARK    6  A    between atoms: O_17  and  C_10 
ROOT
ATOM      1  C   UNL d   1     -50.562  26.872  34.050  0.00  0.00     0.128 C 
ENDROOT
BRANCH   1   2
ATOM      2  C   UNL d   1     -50.912  26.606  33.346  0.00  0.00     0.089 C 
BRANCH   2   3
ATOM      3  C   UNL d   1     -51.348  25.905  33.345  0.00  0.00     0.283 C 
ATOM      4  N   UNL d   1     -50.951  25.183  33.315  0.00  0.00    -0.183 NA
ATOM      5  O   UNL d   1     -52.171  25.928  33.374  0.00  0.00    -0.265 OA
BRANCH   4   6
ATOM      6  C   UNL d   1     -51.391  24.479  33.315  0.00  0.00     0.197 A 
ATOM      7  N   UNL d   1     -52.210  24.415  33.306  0.00  0.00    -0.219 NA
ATOM      8  C   UNL d   1     -52.404  23.620  33.309  0.00  0.00     0.108 A 
ATOM      9  C   UNL d   1     -51.698  23.188  33.319  0.00  0.00     0.059 A 
ATOM     10  S   UNL d   1     -51.070  23.718  33.323  0.00  0.00    -0.046 SA
ENDBRANCH   4   6
ENDBRANCH   2   3
ENDBRANCH   1   2
BRANCH   1  11
ATOM     11  O   UNL d   1     -50.212  27.592  33.854  0.00  0.00    -0.305 OA
BRANCH  11  12
ATOM     12  C   UNL d   1     -49.600  27.890  34.318  0.00  0.00     0.100 A 
ATOM     13  C   UNL d   1     -49.360  27.481  34.996  0.00  0.00     0.027 A 
ATOM     14  C   UNL d   1     -48.749  27.779  35.459  0.00  0.00     0.026 A 
ATOM     15  C   UNL d   1     -48.376  28.484  35.250  0.00  0.00     0.094 A 
ATOM     16  C   UNL d   1     -48.614  28.892  34.576  0.00  0.00     0.026 A 
ATOM     17  C   UNL d   1     -49.227  28.595  34.108  0.00  0.00     0.027 A 
BRANCH  15  18
ATOM     18  O   UNL d   1     -47.760  28.781  35.721  0.00  0.00    -0.328 OA
ATOM     19  C   UNL d   1     -47.568  29.581  35.698  0.00  0.00     0.181 C 
ENDBRANCH  15  18
ENDBRANCH  11  12
ENDBRANCH   1  11
TORSDOF 6
ENDMDL
MODEL 3
REMARK VINA RESULT:      42.0      2.025      5.339
REMARK  6 active torsions:
REMARK  status: ('A' for Active; 'I' for Inactive)
REMARK    1  A    between atoms: N_2  and  C_1 
REMARK       I    between atoms: C_4  and  N_2 
REMARK    2  A    between atoms: C_6  and  C_4 
REMARK    3  A    between atoms: C_9  and  C_6 
REMARK    4  A    between atoms: C_8  and  O_15 
REMARK    5  A    between atoms: O_15  and  C_9 
REMARK    6  A    between atoms: O_17  and  C_10 
ROOT
ATOM      1  C   UNL d   1     -48.814  28.066  34.815  0.00  0.00     0.128 C 
ENDROOT
BRANCH   1   2
ATOM      2  C   UNL d   1     -49.090  27.779  34.086  0.00  0.00     0.089 C 
BRANCH   2   3
ATOM      3  C   UNL d   1     -49.606  27.136  34.068  0.00  0.00     0.283 C 
ATOM      4  N   UNL d   1     -49.931  26.898  33.349  0.00  0.00    -0.183 NA
ATOM      5  O   UNL d   1     -49.795  26.736  34.764  0.00  0.00    -0.265 OA
BRANCH   4   6
ATOM      6  C   UNL d   1     -50.450  26.251  33.333  0.00  0.00     0.197 A 
ATOM      7  N   UNL d   1     -50.241  25.456  33.329  0.00  0.00    -0.219 NA
ATOM      8  C   UNL d   1     -50.927  25.012  33.312  0.00  0.00     0.108 A 
ATOM      9  C   UNL d   1     -51.568  25.536  33.306  0.00  0.00     0.059 A 
ATOM     10  S   UNL d   1     -51.275  26.303  33.319  0.00  0.00    -0.046 SA
ENDBRANCH   4   6
ENDBRANCH   2   3
ENDBRANCH   1   2
BRANCH   1  11
ATOM     11  O   UNL d   1     -48.059  28.356  34.656  0.00  0.00    -0.305 OA
BRANCH  11  12
ATOM     12  C   UNL d   1     -47.825  29.080  34.969  0.00  0.00     0.100 A 
ATOM     13  C   UNL d   1     -47.766  29.743  34.476  0.00  0.00     0.027 A 
ATOM     14  C   UNL d   1     -47.532  30.467  34.788  0.00  0.00     0.026 A 
ATOM     15  C   UNL d   1     -47.356  30.534  35.592  0.00  0.00     0.094 A 
ATOM     16  C   UNL d   1     -47.414  29.877  36.083  0.00  0.00     0.026 A 
ATOM     17  C   UNL d   1     -47.649  29.148  35.772  0.00  0.00     0.027 A 
BRANCH  15  18
ATOM     18  O   UNL d   1     -47.120  31.268  35.902  0.00  0.00    -0.328 OA
ATOM     19  C   UNL d   1     -47.365  31.968  35.544  0.00  0.00     0.181 C 
ENDBRANCH  15  18
ENDBRANCH  11  12
ENDBRANCH   1  11
TORSDOF 6
ENDMDL
