MODEL 1
REMARK VINA RESULT:      82.7      0.000      0.000
REMARK  6 active torsions:
REMARK  status: ('A' for Active; 'I' for Inactive)
REMARK    1  A    between atoms: C_12  and  C_4 
REMARK    2  A    between atoms: N_16  and  C_5 
REMARK    3  A    between atoms: N_11  and  C_24 
REMARK    4  A    between atoms: C_27  and  N_16 
REMARK    5  A    between atoms: C_24  and  C_25 
REMARK    6  A    between atoms: C_25  and  C_27 
ROOT
ATOM      1  N   UNL d   1      60.012  49.705  52.298  0.00  0.00    -0.195 N 
ATOM      2  C   UNL d   1      59.261  49.703  52.646  0.00  0.00     0.167 A 
ATOM      3  N   UNL d   1      60.562  49.707  52.902  0.00  0.00    -0.163 NA
ATOM      4  C   UNL d   1      59.364  49.704  53.456  0.00  0.00     0.055 A 
ATOM      5  C   UNL d   1      60.083  49.704  51.482  0.00  0.00     0.167 A 
ATOM      6  C   UNL d   1      60.152  49.706  53.614  0.00  0.00     0.104 A 
ATOM      7  N   UNL d   1      58.593  49.701  52.171  0.00  0.00    -0.227 NA
ATOM      8  C   UNL d   1      59.403  49.702  51.003  0.00  0.00     0.058 A 
ATOM      9  C   UNL d   1      58.668  49.700  51.343  0.00  0.00     0.086 A 
ATOM     10  C   UNL d   1      60.488  49.708  54.371  0.00  0.00     0.023 C 
ATOM     11  C   UNL d   1      57.984  49.698  50.855  0.00  0.00     0.021 C 
ENDROOT
BRANCH   5  12
ATOM     12  N   UNL d   1      60.835  49.706  51.134  0.00  0.00    -0.225 NA
BRANCH  12  13
ATOM     13  C   UNL d   1      61.321  49.050  51.213  0.00  0.00     0.102 C 
BRANCH  13  14
ATOM     14  C   UNL d   1      61.146  48.356  50.796  0.00  0.00     0.040 C 
BRANCH  14  15
ATOM     15  C   UNL d   1      61.736  47.965  50.374  0.00  0.00     0.083 C 
BRANCH  15  16
ATOM     16  N   UNL d   1      61.608  47.203  50.091  0.00  0.00    -0.285 N 
ATOM     17  C   UNL d   1      60.920  46.783  49.908  0.00  0.00     0.183 A 
ATOM     18  N   UNL d   1      61.136  46.041  49.647  0.00  0.00    -0.222 NA
ATOM     19  C   UNL d   1      61.948  45.987  49.661  0.00  0.00     0.120 A 
ATOM     20  C   UNL d   1      62.246  46.708  49.937  0.00  0.00     0.102 A 
ENDBRANCH  15  16
ENDBRANCH  14  15
ENDBRANCH  13  14
ENDBRANCH  12  13
ENDBRANCH   5  12
BRANCH   4  21
ATOM     21  C   UNL d   1      58.815  49.703  54.079  0.00  0.00     0.004 A 
ATOM     22  C   UNL d   1      58.006  49.706  53.921  0.00  0.00     0.001 A 
ATOM     23  C   UNL d   1      57.459  49.706  54.537  0.00  0.00     0.011 A 
ATOM     24  C   UNL d   1      57.728  49.701  55.316  0.00  0.00     0.058 A 
ATOM     25  C   UNL d   1      58.541  49.698  55.476  0.00  0.00     0.011 A 
ATOM     26 CL   UNL d   1      57.168  49.701  55.941  0.00  0.00    -0.082 Cl
ATOM     27  C   UNL d   1      59.084  49.699  54.859  0.00  0.00     0.001 A 
ENDBRANCH   4  21
TORSDOF 6
ENDMDL
