MODEL 1
REMARK VINA RESULT:      44.7      0.000      0.000
REMARK  3 active torsions:
REMARK  status: ('A' for Active; 'I' for Inactive)
REMARK    1  A    between atoms: C_7  and  C_3 
REMARK    2  A    between atoms: C_10  and  C_5 
REMARK    3  A    between atoms: C_9  and  C_7 
ROOT
ATOM      1  C   UNL d   1     -51.168  25.732  33.391  0.00  0.00     0.101 A 
ATOM      2  O   UNL d   1     -51.985  25.805  33.502  0.00  0.00    -0.307 OA
ATOM      3  C   UNL d   1     -52.324  25.050  33.507  0.00  0.00     0.101 A 
ATOM      4  C   UNL d   1     -51.012  24.923  33.329  0.00  0.00     0.027 A 
ATOM      5  C   UNL d   1     -51.713  24.514  33.399  0.00  0.00     0.027 A 
ENDROOT
BRANCH   3   6
ATOM      6  C   UNL d   1     -53.130  24.852  33.602  0.00  0.00     0.036 C 
BRANCH   6   7
ATOM      7  C   UNL d   1     -53.353  24.351  34.219  0.00  0.00     0.091 A 
ATOM      8  C   UNL d   1     -53.557  23.553  34.066  0.00  0.00     0.286 A 
ATOM      9  N   UNL d   1     -53.753  23.190  34.776  0.00  0.00    -0.190 NA
ATOM     10  O   UNL d   1     -53.559  23.189  33.313  0.00  0.00    -0.265 OA
ATOM     11  C   UNL d   1     -53.680  23.726  35.356  0.00  0.00     0.169 A 
ATOM     12  S   UNL d   1     -53.434  24.452  35.039  0.00  0.00    -0.052 SA
ATOM     13  S   UNL d   1     -53.831  23.560  36.142  0.00  0.00    -0.050 SA
ENDBRANCH   6   7
ENDBRANCH   3   6
BRANCH   1  14
ATOM     14  C   UNL d   1     -50.825  26.464  33.384  0.00  0.00     0.033 A 
ATOM     15  C   UNL d   1     -49.991  26.524  33.378  0.00  0.00     0.060 A 
ATOM     16 CL   UNL d   1     -49.523  25.851  33.379  0.00  0.00    -0.082 Cl
ATOM     17  C   UNL d   1     -49.625  27.262  33.371  0.00  0.00     0.011 A 
ATOM     18  C   UNL d   1     -50.094  27.943  33.370  0.00  0.00     0.001 A 
ATOM     19  C   UNL d   1     -50.928  27.883  33.376  0.00  0.00     0.000 A 
ATOM     20  C   UNL d   1     -51.271  27.142  33.383  0.00  0.00     0.003 A 
ENDBRANCH   1  14
TORSDOF 3
ENDMDL
