MODEL 1
REMARK VINA RESULT:      15.2      0.000      0.000
REMARK  10 active torsions:
REMARK  status: ('A' for Active; 'I' for Inactive)
REMARK    1  A    between atoms: C_5  and  C_1 
REMARK    2  A    between atoms: C_10  and  C_2 
REMARK    3  A    between atoms: S_11  and  C_3 
REMARK    4  A    between atoms: C_9  and  C_4 
REMARK       I    between atoms: N_8  and  C_5 
REMARK    5  A    between atoms: C_15  and  N_8 
REMARK    6  A    between atoms: C_26  and  S_11 
REMARK    7  A    between atoms: C_13  and  C_18 
REMARK    8  A    between atoms: C_16  and  C_26 
REMARK       I    between atoms: N_19  and  C_16 
REMARK    9  A    between atoms: C_29  and  N_19 
REMARK   10  A    between atoms: O_34  and  C_23 
ROOT
ATOM      1  C   UNL d   1      58.763  -2.221  29.522  0.00  0.00     0.076 A 
ATOM      2  C   UNL d   1      59.821  -3.053  29.111  0.00  0.00     0.045 A 
ATOM      3  C   UNL d   1      59.260  -3.621  28.829  0.00  0.00     0.112 A 
ATOM      4  C   UNL d   1      59.568  -2.369  29.450  0.00  0.00     0.016 A 
ATOM      5  C   UNL d   1      58.209  -2.782  29.244  0.00  0.00     0.087 A 
ATOM      6  N   UNL d   1      58.471  -3.480  28.898  0.00  0.00    -0.239 NA
ATOM      7  C   UNL d   1      57.395  -2.646  29.310  0.00  0.00     0.021 C 
ENDROOT
BRANCH   3   8
ATOM      8  S   UNL d   1      59.479  -4.356  28.465  0.00  0.00    -0.062 SA
BRANCH   8   9
ATOM      9  C   UNL d   1      60.192  -4.734  28.668  0.00  0.00     0.099 C 
BRANCH   9  10
ATOM     10  C   UNL d   1      60.202  -5.552  28.781  0.00  0.00     0.286 C 
ATOM     11  N   UNL d   1      59.565  -6.011  28.539  0.00  0.00    -0.208 NA
ATOM     12  O   UNL d   1      60.851  -5.904  29.135  0.00  0.00    -0.265 OA
BRANCH  11  13
ATOM     13  C   UNL d   1      59.587  -6.830  28.657  0.00  0.00     0.085 A 
ATOM     14  C   UNL d   1      58.932  -7.214  28.962  0.00  0.00     0.019 A 
ATOM     15  C   UNL d   1      58.951  -8.028  29.080  0.00  0.00     0.008 A 
ATOM     16  C   UNL d   1      59.640  -8.453  28.888  0.00  0.00     0.065 A 
ATOM     17  C   UNL d   1      60.295  -8.069  28.583  0.00  0.00     0.008 A 
ATOM     18  C   UNL d   1      60.273  -7.250  28.465  0.00  0.00     0.019 A 
BRANCH  16  19
ATOM     19  C   UNL d   1      59.668  -9.281  29.005  0.00  0.00     0.211 C 
ATOM     20  O   UNL d   1      59.240  -9.788  28.503  0.00  0.00    -0.644 OA
ATOM     21  O   UNL d   1      60.119  -9.584  29.616  0.00  0.00    -0.644 OA
ENDBRANCH  16  19
ENDBRANCH  11  13
ENDBRANCH   9  10
ENDBRANCH   8   9
ENDBRANCH   3   8
BRANCH   2  22
ATOM     22  C   UNL d   1      60.654  -3.172  29.053  0.00  0.00     0.124 C 
ATOM     23  N   UNL d   1      60.976  -3.941  29.150  0.00  0.00    -0.146 N 
ENDBRANCH   2  22
BRANCH   4  24
ATOM     24  C   UNL d   1      60.111  -1.819  29.723  0.00  0.00     0.030 A 
ATOM     25  S   UNL d   1      60.326  -1.081  29.460  0.00  0.00    -0.086 SA
ATOM     26  C   UNL d   1      60.893  -0.802  29.956  0.00  0.00     0.035 A 
ATOM     27  C   UNL d   1      61.037  -1.345  30.521  0.00  0.00     0.007 A 
ATOM     28  C   UNL d   1      60.560  -1.983  30.391  0.00  0.00     0.007 A 
ENDBRANCH   4  24
BRANCH   1  29
ATOM     29  C   UNL d   1      58.509  -1.517  29.871  0.00  0.00     0.281 C 
ATOM     30  N   UNL d   1      57.769  -1.492  30.250  0.00  0.00    -0.206 NA
ATOM     31  O   UNL d   1      58.981  -0.852  29.843  0.00  0.00    -0.265 OA
BRANCH  30  32
ATOM     32  C   UNL d   1      57.519  -0.788  30.596  0.00  0.00     0.107 A 
ATOM     33  C   UNL d   1      57.255  -0.788  31.361  0.00  0.00     0.112 A 
ATOM     34  C   UNL d   1      57.005  -0.078  31.705  0.00  0.00     0.026 A 
ATOM     35  C   UNL d   1      57.023   0.612  31.283  0.00  0.00     0.002 A 
ATOM     36  C   UNL d   1      57.292   0.620  30.501  0.00  0.00     0.002 A 
ATOM     37  C   UNL d   1      57.542  -0.089  30.158  0.00  0.00     0.021 A 
BRANCH  33  38
ATOM     38  O   UNL d   1      57.236  -1.492  31.791  0.00  0.00    -0.327 OA
ATOM     39  C   UNL d   1      56.617  -1.643  32.313  0.00  0.00     0.181 C 
ENDBRANCH  33  38
ENDBRANCH  30  32
ENDBRANCH   1  29
TORSDOF 10
ENDMDL
MODEL 2
REMARK VINA RESULT:      17.1      2.428      4.018
REMARK  10 active torsions:
REMARK  status: ('A' for Active; 'I' for Inactive)
REMARK    1  A    between atoms: C_5  and  C_1 
REMARK    2  A    between atoms: C_10  and  C_2 
REMARK    3  A    between atoms: S_11  and  C_3 
REMARK    4  A    between atoms: C_9  and  C_4 
REMARK       I    between atoms: N_8  and  C_5 
REMARK    5  A    between atoms: C_15  and  N_8 
REMARK    6  A    between atoms: C_26  and  S_11 
REMARK    7  A    between atoms: C_13  and  C_18 
REMARK    8  A    between atoms: C_16  and  C_26 
REMARK       I    between atoms: N_19  and  C_16 
REMARK    9  A    between atoms: C_29  and  N_19 
REMARK   10  A    between atoms: O_34  and  C_23 
ROOT
ATOM      1  C   UNL d   1      57.440   0.213  31.398  0.00  0.00     0.076 A 
ATOM      2  C   UNL d   1      58.685   0.484  30.802  0.00  0.00     0.045 A 
ATOM      3  C   UNL d   1      58.339   0.375  30.037  0.00  0.00     0.112 A 
ATOM      4  C   UNL d   1      58.236   0.403  31.464  0.00  0.00     0.016 A 
ATOM      5  C   UNL d   1      57.099   0.105  30.643  0.00  0.00     0.087 A 
ATOM      6  N   UNL d   1      57.560   0.189  29.968  0.00  0.00    -0.239 NA
ATOM      7  C   UNL d   1      56.297  -0.087  30.562  0.00  0.00     0.021 C 
ENDROOT
BRANCH   3   8
ATOM      8  S   UNL d   1      58.773   0.450  29.311  0.00  0.00    -0.062 SA
BRANCH   8   9
ATOM      9  C   UNL d   1      59.350  -0.111  29.102  0.00  0.00     0.099 C 
BRANCH   9  10
ATOM     10  C   UNL d   1      59.127  -0.892  28.956  0.00  0.00     0.286 C 
ATOM     11  N   UNL d   1      59.563  -1.514  29.271  0.00  0.00    -0.208 NA
ATOM     12  O   UNL d   1      58.468  -1.046  28.495  0.00  0.00    -0.265 OA
BRANCH  11  13
ATOM     13  C   UNL d   1      59.330  -2.292  29.118  0.00  0.00     0.085 A 
ATOM     14  C   UNL d   1      58.558  -2.521  29.263  0.00  0.00     0.019 A 
ATOM     15  C   UNL d   1      58.322  -3.294  29.111  0.00  0.00     0.008 A 
ATOM     16  C   UNL d   1      58.876  -3.838  28.810  0.00  0.00     0.065 A 
ATOM     17  C   UNL d   1      59.648  -3.610  28.665  0.00  0.00     0.008 A 
ATOM     18  C   UNL d   1      59.882  -2.831  28.819  0.00  0.00     0.019 A 
BRANCH  16  19
ATOM     19  C   UNL d   1      58.646  -4.627  28.653  0.00  0.00     0.211 C 
ATOM     20  O   UNL d   1      57.856  -4.800  28.457  0.00  0.00    -0.644 OA
ATOM     21  O   UNL d   1      59.204  -5.223  28.695  0.00  0.00    -0.644 OA
ENDBRANCH  16  19
ENDBRANCH  11  13
ENDBRANCH   9  10
ENDBRANCH   8   9
ENDBRANCH   3   8
BRANCH   2  22
ATOM     22  C   UNL d   1      59.500   0.680  30.907  0.00  0.00     0.124 C 
ATOM     23  N   UNL d   1      60.041   0.096  31.172  0.00  0.00    -0.146 N 
ENDBRANCH   2  22
BRANCH   4  24
ATOM     24  C   UNL d   1      58.571   0.509  32.205  0.00  0.00     0.030 A 
ATOM     25  S   UNL d   1      58.252   0.564  32.950  0.00  0.00    -0.086 SA
ATOM     26  C   UNL d   1      58.858   0.668  33.467  0.00  0.00     0.035 A 
ATOM     27  C   UNL d   1      59.546   0.679  33.064  0.00  0.00     0.007 A 
ATOM     28  C   UNL d   1      59.386   0.582  32.279  0.00  0.00     0.007 A 
ENDBRANCH   4  24
BRANCH   1  29
ATOM     29  C   UNL d   1      56.984   0.131  32.081  0.00  0.00     0.281 C 
ATOM     30  N   UNL d   1      56.468  -0.517  32.153  0.00  0.00    -0.206 NA
ATOM     31  O   UNL d   1      57.040   0.682  32.681  0.00  0.00    -0.265 OA
BRANCH  30  32
ATOM     32  C   UNL d   1      56.014  -0.595  32.836  0.00  0.00     0.107 A 
ATOM     33  C   UNL d   1      55.897  -1.329  33.159  0.00  0.00     0.112 A 
ATOM     34  C   UNL d   1      55.441  -1.402  33.845  0.00  0.00     0.026 A 
ATOM     35  C   UNL d   1      55.113  -0.750  34.193  0.00  0.00     0.002 A 
ATOM     36  C   UNL d   1      55.229   0.002  33.869  0.00  0.00     0.002 A 
ATOM     37  C   UNL d   1      55.685   0.076  33.184  0.00  0.00     0.021 A 
BRANCH  33  38
ATOM     38  O   UNL d   1      56.231  -1.994  32.804  0.00  0.00    -0.327 OA
ATOM     39  C   UNL d   1      55.795  -2.690  32.734  0.00  0.00     0.181 C 
ENDBRANCH  33  38
ENDBRANCH  30  32
ENDBRANCH   1  29
TORSDOF 10
ENDMDL
MODEL 3
REMARK VINA RESULT:      17.3      2.831      7.130
REMARK  10 active torsions:
REMARK  status: ('A' for Active; 'I' for Inactive)
REMARK    1  A    between atoms: C_5  and  C_1 
REMARK    2  A    between atoms: C_10  and  C_2 
REMARK    3  A    between atoms: S_11  and  C_3 
REMARK    4  A    between atoms: C_9  and  C_4 
REMARK       I    between atoms: N_8  and  C_5 
REMARK    5  A    between atoms: C_15  and  N_8 
REMARK    6  A    between atoms: C_26  and  S_11 
REMARK    7  A    between atoms: C_13  and  C_18 
REMARK    8  A    between atoms: C_16  and  C_26 
REMARK       I    between atoms: N_19  and  C_16 
REMARK    9  A    between atoms: C_29  and  N_19 
REMARK   10  A    between atoms: O_34  and  C_23 
ROOT
ATOM      1  C   UNL d   1      57.777  -1.336  30.859  0.00  0.00     0.076 A 
ATOM      2  C   UNL d   1      57.974  -0.150  31.591  0.00  0.00     0.045 A 
ATOM      3  C   UNL d   1      57.314  -0.348  32.083  0.00  0.00     0.112 A 
ATOM      4  C   UNL d   1      58.194  -0.641  30.993  0.00  0.00     0.016 A 
ATOM      5  C   UNL d   1      57.125  -1.531  31.345  0.00  0.00     0.087 A 
ATOM      6  N   UNL d   1      56.903  -1.027  31.955  0.00  0.00    -0.239 NA
ATOM      7  C   UNL d   1      56.696  -2.229  31.221  0.00  0.00     0.021 C 
ENDROOT
BRANCH   3   8
ATOM      8  S   UNL d   1      57.045   0.138  32.725  0.00  0.00    -0.062 SA
BRANCH   8   9
ATOM      9  C   UNL d   1      56.425   0.681  32.614  0.00  0.00     0.099 C 
BRANCH   9  10
ATOM     10  C   UNL d   1      55.685   0.530  32.949  0.00  0.00     0.286 C 
ATOM     11  N   UNL d   1      55.553   0.682  33.746  0.00  0.00    -0.208 NA
ATOM     12  O   UNL d   1      55.084   0.229  32.483  0.00  0.00    -0.265 OA
BRANCH  11  13
ATOM     13  C   UNL d   1      54.808   0.526  34.070  0.00  0.00     0.085 A 
ATOM     14  C   UNL d   1      54.682   0.638  34.871  0.00  0.00     0.019 A 
ATOM     15  C   UNL d   1      53.942   0.484  35.196  0.00  0.00     0.008 A 
ATOM     16  C   UNL d   1      53.327   0.216  34.703  0.00  0.00     0.065 A 
ATOM     17  C   UNL d   1      53.453   0.104  33.903  0.00  0.00     0.008 A 
ATOM     18  C   UNL d   1      54.198   0.260  33.579  0.00  0.00     0.019 A 
BRANCH  16  19
ATOM     19  C   UNL d   1      52.571   0.057  35.025  0.00  0.00     0.211 C 
ATOM     20  O   UNL d   1      52.098  -0.546  34.701  0.00  0.00    -0.644 OA
ATOM     21  O   UNL d   1      52.304   0.500  35.659  0.00  0.00    -0.644 OA
ENDBRANCH  16  19
ENDBRANCH  11  13
ENDBRANCH   9  10
ENDBRANCH   8   9
ENDBRANCH   3   8
BRANCH   2  22
ATOM     22  C   UNL d   1      58.425   0.555  31.699  0.00  0.00     0.124 C 
ATOM     23  N   UNL d   1      58.944   0.624  32.355  0.00  0.00    -0.146 N 
ENDBRANCH   2  22
BRANCH   4  24
ATOM     24  C   UNL d   1      58.833  -0.450  30.517  0.00  0.00     0.030 A 
ATOM     25  S   UNL d   1      59.621  -0.332  30.675  0.00  0.00    -0.086 SA
ATOM     26  C   UNL d   1      59.985  -0.156  29.981  0.00  0.00     0.035 A 
ATOM     27  C   UNL d   1      59.446  -0.160  29.395  0.00  0.00     0.007 A 
ATOM     28  C   UNL d   1      58.725  -0.341  29.710  0.00  0.00     0.007 A 
ENDBRANCH   4  24
BRANCH   1  29
ATOM     29  C   UNL d   1      58.007  -1.836  30.244  0.00  0.00     0.281 C 
ATOM     30  N   UNL d   1      58.634  -2.370  30.363  0.00  0.00    -0.206 NA
ATOM     31  O   UNL d   1      57.622  -1.807  29.525  0.00  0.00    -0.265 OA
BRANCH  30  32
ATOM     32  C   UNL d   1      58.860  -2.867  29.746  0.00  0.00     0.107 A 
ATOM     33  C   UNL d   1      59.590  -3.216  29.759  0.00  0.00     0.112 A 
ATOM     34  C   UNL d   1      59.812  -3.715  29.138  0.00  0.00     0.026 A 
ATOM     35  C   UNL d   1      59.308  -3.855  28.521  0.00  0.00     0.002 A 
ATOM     36  C   UNL d   1      58.561  -3.502  28.501  0.00  0.00     0.002 A 
ATOM     37  C   UNL d   1      58.338  -3.003  29.122  0.00  0.00     0.021 A 
BRANCH  33  38
ATOM     38  O   UNL d   1      60.105  -3.074  30.388  0.00  0.00    -0.327 OA
ATOM     39  C   UNL d   1      60.885  -3.337  30.353  0.00  0.00     0.181 C 
ENDBRANCH  33  38
ENDBRANCH  30  32
ENDBRANCH   1  29
TORSDOF 10
ENDMDL
