MODEL 1
REMARK VINA RESULT:      13.7      0.000      0.000
REMARK  1 active torsions:
REMARK  status: ('A' for Active; 'I' for Inactive)
REMARK    1  A    between atoms: C_6  and  C_1 
ROOT
ATOM      1  C   UNL d   1      45.936 -16.799  44.353  0.00  0.00     0.162 A 
ATOM      2  N   UNL d   1      46.043 -17.093  43.586  0.00  0.00    -0.225 NA
ATOM      3  N   UNL d   1      46.073 -17.399  44.883  0.00  0.00    -0.225 NA
ATOM      4  C   UNL d   1      46.250 -17.892  43.638  0.00  0.00     0.101 A 
ATOM      5  C   UNL d   1      46.267 -18.075  44.436  0.00  0.00     0.101 A 
ATOM      6  C   UNL d   1      46.422 -18.463  43.070  0.00  0.00     0.021 A 
ATOM      7  C   UNL d   1      46.460 -18.846  44.681  0.00  0.00     0.021 A 
ATOM      8  C   UNL d   1      46.617 -19.242  43.294  0.00  0.00     0.002 A 
ATOM      9  C   UNL d   1      46.640 -19.447  44.101  0.00  0.00     0.002 A 
ENDROOT
BRANCH   1  10
ATOM     10  C   UNL d   1      45.733 -16.044  44.494  0.00  0.00     0.036 A 
ATOM     11  C   UNL d   1      44.985 -15.869  44.805  0.00  0.00     0.005 A 
ATOM     12  C   UNL d   1      44.765 -15.089  44.955  0.00  0.00     0.030 A 
ATOM     13  C   UNL d   1      45.291 -14.475  44.796  0.00  0.00     0.140 A 
ATOM     14  C   UNL d   1      46.038 -14.645  44.487  0.00  0.00     0.030 A 
ATOM     15  F   UNL d   1      45.055 -13.686  44.953  0.00  0.00    -0.204 F 
ATOM     16  C   UNL d   1      46.263 -15.415  44.335  0.00  0.00     0.005 A 
ENDBRANCH   1  10
TORSDOF 1
ENDMDL
MODEL 2
REMARK VINA RESULT:      14.7      1.715      3.775
REMARK  1 active torsions:
REMARK  status: ('A' for Active; 'I' for Inactive)
REMARK    1  A    between atoms: C_6  and  C_1 
ROOT
ATOM      1  C   UNL d   1      45.789 -16.460  44.433  0.00  0.00     0.162 A 
ATOM      2  N   UNL d   1      46.316 -15.835  44.296  0.00  0.00    -0.225 NA
ATOM      3  N   UNL d   1      45.086 -16.154  44.699  0.00  0.00    -0.225 NA
ATOM      4  C   UNL d   1      45.933 -15.125  44.480  0.00  0.00     0.101 A 
ATOM      5  C   UNL d   1      45.179 -15.326  44.727  0.00  0.00     0.101 A 
ATOM      6  C   UNL d   1      46.173 -14.338  44.454  0.00  0.00     0.021 A 
ATOM      7  C   UNL d   1      44.644 -14.732  44.955  0.00  0.00     0.021 A 
ATOM      8  C   UNL d   1      45.654 -13.726  44.678  0.00  0.00     0.002 A 
ATOM      9  C   UNL d   1      44.883 -13.911  44.932  0.00  0.00     0.002 A 
ENDROOT
BRANCH   1  10
ATOM     10  C   UNL d   1      45.989 -17.219  44.309  0.00  0.00     0.036 A 
ATOM     11  C   UNL d   1      46.065 -17.737  44.952  0.00  0.00     0.005 A 
ATOM     12  C   UNL d   1      46.272 -18.526  44.833  0.00  0.00     0.030 A 
ATOM     13  C   UNL d   1      46.405 -18.806  44.070  0.00  0.00     0.140 A 
ATOM     14  C   UNL d   1      46.330 -18.294  43.426  0.00  0.00     0.030 A 
ATOM     15  F   UNL d   1      46.615 -19.611  43.962  0.00  0.00    -0.204 F 
ATOM     16  C   UNL d   1      46.126 -17.511  43.536  0.00  0.00     0.005 A 
ENDBRANCH   1  10
TORSDOF 1
ENDMDL
