MODEL 1
REMARK VINA RESULT:      61.9      0.000      0.000
REMARK  2 active torsions:
REMARK  status: ('A' for Active; 'I' for Inactive)
REMARK    1  A    between atoms: C_9  and  C_2 
REMARK    2  A    between atoms: C_12  and  C_7 
ROOT
ATOM      1  N   UNL d   1      59.380  49.457  50.154  0.00  0.00    -0.186 N 
ATOM      2  C   UNL d   1      58.613  49.411  49.839  0.00  0.00     0.187 A 
ATOM      3  N   UNL d   1      59.654  49.416  50.924  0.00  0.00    -0.162 NA
ATOM      4  C   UNL d   1      59.906  49.562  49.525  0.00  0.00     0.217 A 
ATOM      5  N   UNL d   1      58.673  49.489  49.022  0.00  0.00    -0.127 NA
ATOM      6  N   UNL d   1      59.472  49.582  48.828  0.00  0.00    -0.120 NA
ATOM      7  C   UNL d   1      60.464  49.479  51.083  0.00  0.00     0.108 A 
ATOM      8  S   UNL d   1      60.715  49.626  49.675  0.00  0.00    -0.045 SA
ATOM      9  C   UNL d   1      60.995  49.585  50.457  0.00  0.00     0.059 A 
ENDROOT
BRANCH   2  10
ATOM     10  C   UNL d   1      57.915  49.306  50.279  0.00  0.00     0.038 A 
ATOM     11  C   UNL d   1      57.329  48.796  49.999  0.00  0.00     0.003 A 
ATOM     12  C   UNL d   1      56.641  48.688  50.426  0.00  0.00     0.000 A 
ATOM     13  C   UNL d   1      56.064  48.181  50.144  0.00  0.00     0.000 C 
ATOM     14  C   UNL d   1      56.543  49.095  51.137  0.00  0.00     0.000 A 
ATOM     15  C   UNL d   1      57.125  49.604  51.417  0.00  0.00     0.000 A 
ATOM     16  C   UNL d   1      57.813  49.707  50.984  0.00  0.00     0.003 A 
ENDBRANCH   2  10
BRANCH   7  17
ATOM     17  C   UNL d   1      60.744  49.438  51.856  0.00  0.00     0.020 A 
ATOM     18  C   UNL d   1      60.246  49.177  52.463  0.00  0.00     0.002 A 
ATOM     19  C   UNL d   1      60.533  49.139  53.235  0.00  0.00     0.000 A 
ATOM     20  C   UNL d   1      61.306  49.356  53.405  0.00  0.00     0.000 A 
ATOM     21  C   UNL d   1      61.804  49.617  52.797  0.00  0.00     0.000 A 
ATOM     22  C   UNL d   1      61.521  49.659  52.016  0.00  0.00     0.002 A 
ENDBRANCH   7  17
TORSDOF 2
ENDMDL
