MODEL 1
REMARK VINA RESULT:     -10.5      0.000      0.000
REMARK  4 active torsions:
REMARK  status: ('A' for Active; 'I' for Inactive)
REMARK    1  A    between atoms: S_5  and  C_2 
REMARK    2  A    between atoms: C_14  and  S_5 
REMARK    3  A    between atoms: N_11  and  C_8 
REMARK    4  A    between atoms: C_15  and  N_11 
ROOT
ATOM      1  C   UNL d   1      52.922  34.149  53.783  0.00  0.00     0.197 A 
ATOM      2  C   UNL d   1      52.267  34.631  53.656  0.00  0.00     0.227 A 
ATOM      3  N   UNL d   1      53.372  34.478  54.393  0.00  0.00    -0.192 N 
ATOM      4  N   UNL d   1      53.170  33.446  53.420  0.00  0.00    -0.206 NA
ATOM      5  N   UNL d   1      52.309  35.268  54.193  0.00  0.00    -0.115 NA
ATOM      6  N   UNL d   1      52.996  35.168  54.648  0.00  0.00    -0.058 NA
ATOM      7  C   UNL d   1      53.870  33.070  53.665  0.00  0.00     0.166 A 
ATOM      8  C   UNL d   1      54.313  33.407  54.277  0.00  0.00     0.054 A 
ATOM      9  C   UNL d   1      54.072  34.106  54.643  0.00  0.00     0.089 A 
ATOM     10  C   UNL d   1      55.013  33.037  54.528  0.00  0.00     0.005 A 
ATOM     11  C   UNL d   1      54.518  34.439  55.253  0.00  0.00     0.019 A 
ATOM     12  C   UNL d   1      55.459  33.368  55.136  0.00  0.00     0.000 A 
ATOM     13  C   UNL d   1      55.210  34.070  55.499  0.00  0.00     0.002 A 
ENDROOT
BRANCH   2  14
ATOM     14  S   UNL d   1      51.669  34.515  53.100  0.00  0.00     0.231 S 
ATOM     15  O   UNL d   1      52.126  34.840  52.498  0.00  0.00    -0.215 OA
ATOM     16  O   UNL d   1      51.213  34.189  53.708  0.00  0.00    -0.215 OA
BRANCH  14  17
ATOM     17  C   UNL d   1      51.044  34.378  52.587  0.00  0.00     0.090 A 
ATOM     18  C   UNL d   1      50.282  34.286  52.884  0.00  0.00     0.011 A 
ATOM     19  C   UNL d   1      49.652  34.148  52.379  0.00  0.00     0.001 A 
ATOM     20  C   UNL d   1      49.786  34.102  51.561  0.00  0.00     0.000 A 
ATOM     21  C   UNL d   1      50.553  34.195  51.265  0.00  0.00     0.001 A 
ATOM     22  C   UNL d   1      51.177  34.332  51.774  0.00  0.00     0.011 A 
ENDBRANCH  14  17
ENDBRANCH   2  14
BRANCH   7  23
ATOM     23  N   UNL d   1      54.117  32.371  53.304  0.00  0.00    -0.227 NA
BRANCH  23  24
ATOM     24  C   UNL d   1      53.614  31.719  53.277  0.00  0.00     0.083 A 
ATOM     25  C   UNL d   1      53.651  31.144  53.866  0.00  0.00     0.019 A 
ATOM     26  C   UNL d   1      53.147  30.493  53.838  0.00  0.00     0.002 A 
ATOM     27  C   UNL d   1      53.183  29.917  54.428  0.00  0.00     0.000 C 
ATOM     28  C   UNL d   1      52.602  30.413  53.218  0.00  0.00     0.000 A 
ATOM     29  C   UNL d   1      52.571  30.998  52.626  0.00  0.00     0.002 A 
ATOM     30  C   UNL d   1      53.074  31.644  52.659  0.00  0.00     0.019 A 
ENDBRANCH  23  24
ENDBRANCH   7  23
TORSDOF 4
ENDMDL
MODEL 2
REMARK VINA RESULT:      -8.6      1.456      3.585
REMARK  4 active torsions:
REMARK  status: ('A' for Active; 'I' for Inactive)
REMARK    1  A    between atoms: S_5  and  C_2 
REMARK    2  A    between atoms: C_14  and  S_5 
REMARK    3  A    between atoms: N_11  and  C_8 
REMARK    4  A    between atoms: C_15  and  N_11 
ROOT
ATOM      1  C   UNL d   1      53.554  33.131  54.128  0.00  0.00     0.197 A 
ATOM      2  C   UNL d   1      53.988  32.438  54.029  0.00  0.00     0.227 A 
ATOM      3  N   UNL d   1      54.071  33.726  54.379  0.00  0.00    -0.192 N 
ATOM      4  N   UNL d   1      52.749  33.300  54.022  0.00  0.00    -0.206 NA
ATOM      5  N   UNL d   1      54.782  32.603  54.220  0.00  0.00    -0.115 NA
ATOM      6  N   UNL d   1      54.828  33.403  54.436  0.00  0.00    -0.058 NA
ATOM      7  C   UNL d   1      52.458  34.066  54.166  0.00  0.00     0.166 A 
ATOM      8  C   UNL d   1      52.982  34.654  54.416  0.00  0.00     0.054 A 
ATOM      9  C   UNL d   1      53.784  34.493  54.524  0.00  0.00     0.089 A 
ATOM     10  C   UNL d   1      52.699  35.421  54.562  0.00  0.00     0.005 A 
ATOM     11  C   UNL d   1      54.304  35.084  54.774  0.00  0.00     0.019 A 
ATOM     12  C   UNL d   1      53.216  36.012  54.811  0.00  0.00     0.000 A 
ATOM     13  C   UNL d   1      54.020  35.842  54.918  0.00  0.00     0.002 A 
ENDROOT
BRANCH   2  14
ATOM     14  S   UNL d   1      53.698  31.706  53.785  0.00  0.00     0.231 S 
ATOM     15  O   UNL d   1      53.810  31.892  52.992  0.00  0.00    -0.215 OA
ATOM     16  O   UNL d   1      53.586  31.522  54.584  0.00  0.00    -0.215 OA
BRANCH  14  17
ATOM     17  C   UNL d   1      53.402  30.964  53.596  0.00  0.00     0.090 A 
ATOM     18  C   UNL d   1      53.408  30.364  54.158  0.00  0.00     0.011 A 
ATOM     19  C   UNL d   1      53.115  29.621  53.978  0.00  0.00     0.001 A 
ATOM     20  C   UNL d   1      52.809  29.475  53.220  0.00  0.00     0.000 A 
ATOM     21  C   UNL d   1      52.804  30.081  52.656  0.00  0.00     0.001 A 
ATOM     22  C   UNL d   1      53.098  30.820  52.843  0.00  0.00     0.011 A 
ENDBRANCH  14  17
ENDBRANCH   2  14
BRANCH   7  23
ATOM     23  N   UNL d   1      51.657  34.234  54.060  0.00  0.00    -0.227 NA
BRANCH  23  24
ATOM     24  C   UNL d   1      51.269  33.984  53.379  0.00  0.00     0.083 A 
ATOM     25  C   UNL d   1      51.428  34.345  52.655  0.00  0.00     0.019 A 
ATOM     26  C   UNL d   1      51.039  34.094  51.974  0.00  0.00     0.002 A 
ATOM     27  C   UNL d   1      51.199  34.456  51.250  0.00  0.00     0.000 C 
ATOM     28  C   UNL d   1      50.486  33.477  52.013  0.00  0.00     0.000 A 
ATOM     29  C   UNL d   1      50.330  33.117  52.748  0.00  0.00     0.002 A 
ATOM     30  C   UNL d   1      50.720  33.371  53.422  0.00  0.00     0.019 A 
ENDBRANCH  23  24
ENDBRANCH   7  23
TORSDOF 4
ENDMDL
MODEL 3
REMARK VINA RESULT:      -8.4      1.429      3.612
REMARK  4 active torsions:
REMARK  status: ('A' for Active; 'I' for Inactive)
REMARK    1  A    between atoms: S_5  and  C_2 
REMARK    2  A    between atoms: C_14  and  S_5 
REMARK    3  A    between atoms: N_11  and  C_8 
REMARK    4  A    between atoms: C_15  and  N_11 
ROOT
ATOM      1  C   UNL d   1      53.441  32.647  54.047  0.00  0.00     0.197 A 
ATOM      2  C   UNL d   1      53.837  33.201  54.512  0.00  0.00     0.227 A 
ATOM      3  N   UNL d   1      53.776  31.905  54.188  0.00  0.00    -0.192 N 
ATOM      4  N   UNL d   1      52.814  32.722  53.510  0.00  0.00    -0.206 NA
ATOM      5  N   UNL d   1      54.424  32.799  54.946  0.00  0.00    -0.115 NA
ATOM      6  N   UNL d   1      54.383  31.996  54.742  0.00  0.00    -0.058 NA
ATOM      7  C   UNL d   1      52.520  32.055  53.111  0.00  0.00     0.166 A 
ATOM      8  C   UNL d   1      52.862  31.316  53.259  0.00  0.00     0.054 A 
ATOM      9  C   UNL d   1      53.486  31.234  53.792  0.00  0.00     0.089 A 
ATOM     10  C   UNL d   1      52.573  30.644  52.864  0.00  0.00     0.005 A 
ATOM     11  C   UNL d   1      53.824  30.495  53.936  0.00  0.00     0.019 A 
ATOM     12  C   UNL d   1      52.909  29.906  53.007  0.00  0.00     0.000 A 
ATOM     13  C   UNL d   1      53.536  29.831  53.544  0.00  0.00     0.002 A 
ENDROOT
BRANCH   2  14
ATOM     14  S   UNL d   1      53.687  34.010  54.548  0.00  0.00     0.231 S 
ATOM     15  O   UNL d   1      54.160  34.158  53.892  0.00  0.00    -0.215 OA
ATOM     16  O   UNL d   1      53.211  33.859  55.208  0.00  0.00    -0.215 OA
BRANCH  14  17
ATOM     17  C   UNL d   1      53.505  34.807  54.629  0.00  0.00     0.090 A 
ATOM     18  C   UNL d   1      53.765  35.346  54.064  0.00  0.00     0.011 A 
ATOM     19  C   UNL d   1      53.589  36.143  54.136  0.00  0.00     0.001 A 
ATOM     20  C   UNL d   1      53.144  36.405  54.786  0.00  0.00     0.000 A 
ATOM     21  C   UNL d   1      52.884  35.861  55.352  0.00  0.00     0.001 A 
ATOM     22  C   UNL d   1      53.064  35.068  55.274  0.00  0.00     0.011 A 
ENDBRANCH  14  17
ENDBRANCH   2  14
BRANCH   7  23
ATOM     23  N   UNL d   1      51.896  32.129  52.577  0.00  0.00    -0.227 NA
BRANCH  23  24
ATOM     24  C   UNL d   1      51.393  32.780  52.617  0.00  0.00     0.083 A 
ATOM     25  C   UNL d   1      51.457  33.387  52.062  0.00  0.00     0.019 A 
ATOM     26  C   UNL d   1      50.953  34.037  52.103  0.00  0.00     0.002 A 
ATOM     27  C   UNL d   1      51.017  34.644  51.548  0.00  0.00     0.000 C 
ATOM     28  C   UNL d   1      50.381  34.085  52.702  0.00  0.00     0.000 A 
ATOM     29  C   UNL d   1      50.322  33.468  53.258  0.00  0.00     0.002 A 
ATOM     30  C   UNL d   1      50.826  32.823  53.213  0.00  0.00     0.019 A 
ENDBRANCH  23  24
ENDBRANCH   7  23
TORSDOF 4
ENDMDL
MODEL 4
REMARK VINA RESULT:      -8.2      1.091      3.637
REMARK  4 active torsions:
REMARK  status: ('A' for Active; 'I' for Inactive)
REMARK    1  A    between atoms: S_5  and  C_2 
REMARK    2  A    between atoms: C_14  and  S_5 
REMARK    3  A    between atoms: N_11  and  C_8 
REMARK    4  A    between atoms: C_15  and  N_11 
ROOT
ATOM      1  C   UNL d   1      52.301  34.235  53.625  0.00  0.00     0.197 A 
ATOM      2  C   UNL d   1      52.769  34.636  54.170  0.00  0.00     0.227 A 
ATOM      3  N   UNL d   1      51.629  34.693  53.474  0.00  0.00    -0.192 N 
ATOM      4  N   UNL d   1      52.397  33.505  53.242  0.00  0.00    -0.206 NA
ATOM      5  N   UNL d   1      52.387  35.351  54.361  0.00  0.00    -0.115 NA
ATOM      6  N   UNL d   1      51.680  35.382  53.927  0.00  0.00    -0.058 NA
ATOM      7  C   UNL d   1      51.823  33.232  52.707  0.00  0.00     0.166 A 
ATOM      8  C   UNL d   1      51.155  33.698  52.562  0.00  0.00     0.054 A 
ATOM      9  C   UNL d   1      51.052  34.425  52.939  0.00  0.00     0.089 A 
ATOM     10  C   UNL d   1      50.576  33.432  52.029  0.00  0.00     0.005 A 
ATOM     11  C   UNL d   1      50.384  34.886  52.792  0.00  0.00     0.019 A 
ATOM     12  C   UNL d   1      49.909  33.891  51.881  0.00  0.00     0.000 A 
ATOM     13  C   UNL d   1      49.813  34.620  52.263  0.00  0.00     0.002 A 
ENDROOT
BRANCH   2  14
ATOM     14  S   UNL d   1      53.491  34.383  54.479  0.00  0.00     0.231 S 
ATOM     15  O   UNL d   1      53.906  34.689  53.838  0.00  0.00    -0.215 OA
ATOM     16  O   UNL d   1      53.070  34.077  55.122  0.00  0.00    -0.215 OA
BRANCH  14  17
ATOM     17  C   UNL d   1      54.181  34.112  54.830  0.00  0.00     0.090 A 
ATOM     18  C   UNL d   1      54.909  34.270  54.480  0.00  0.00     0.011 A 
ATOM     19  C   UNL d   1      55.604  34.003  54.823  0.00  0.00     0.001 A 
ATOM     20  C   UNL d   1      55.569  33.569  55.530  0.00  0.00     0.000 A 
ATOM     21  C   UNL d   1      54.836  33.411  55.880  0.00  0.00     0.001 A 
ATOM     22  C   UNL d   1      54.147  33.681  55.532  0.00  0.00     0.011 A 
ENDBRANCH  14  17
ENDBRANCH   2  14
BRANCH   7  23
ATOM     23  N   UNL d   1      51.919  32.506  52.326  0.00  0.00    -0.227 NA
BRANCH  23  24
ATOM     24  C   UNL d   1      52.217  31.860  52.738  0.00  0.00     0.083 A 
ATOM     25  C   UNL d   1      53.008  31.642  52.652  0.00  0.00     0.019 A 
ATOM     26  C   UNL d   1      53.305  30.995  53.065  0.00  0.00     0.002 A 
ATOM     27  C   UNL d   1      54.096  30.778  52.978  0.00  0.00     0.000 C 
ATOM     28  C   UNL d   1      52.811  30.559  53.569  0.00  0.00     0.000 A 
ATOM     29  C   UNL d   1      52.014  30.785  53.652  0.00  0.00     0.002 A 
ATOM     30  C   UNL d   1      51.723  31.429  53.238  0.00  0.00     0.019 A 
ENDBRANCH  23  24
ENDBRANCH   7  23
TORSDOF 4
ENDMDL
MODEL 5
REMARK VINA RESULT:      -8.1      1.638      4.253
REMARK  4 active torsions:
REMARK  status: ('A' for Active; 'I' for Inactive)
REMARK    1  A    between atoms: S_5  and  C_2 
REMARK    2  A    between atoms: C_14  and  S_5 
REMARK    3  A    between atoms: N_11  and  C_8 
REMARK    4  A    between atoms: C_15  and  N_11 
ROOT
ATOM      1  C   UNL d   1      52.569  32.164  53.228  0.00  0.00     0.197 A 
ATOM      2  C   UNL d   1      52.618  31.381  52.978  0.00  0.00     0.227 A 
ATOM      3  N   UNL d   1      52.173  32.597  52.646  0.00  0.00    -0.192 N 
ATOM      4  N   UNL d   1      52.836  32.543  53.916  0.00  0.00    -0.206 NA
ATOM      5  N   UNL d   1      52.249  31.325  52.233  0.00  0.00    -0.115 NA
ATOM      6  N   UNL d   1      51.974  32.082  52.031  0.00  0.00    -0.058 NA
ATOM      7  C   UNL d   1      52.706  33.357  54.024  0.00  0.00     0.166 A 
ATOM      8  C   UNL d   1      52.309  33.782  53.436  0.00  0.00     0.054 A 
ATOM      9  C   UNL d   1      52.041  33.411  52.749  0.00  0.00     0.089 A 
ATOM     10  C   UNL d   1      52.176  34.596  53.536  0.00  0.00     0.005 A 
ATOM     11  C   UNL d   1      51.645  33.839  52.165  0.00  0.00     0.019 A 
ATOM     12  C   UNL d   1      51.781  35.024  52.955  0.00  0.00     0.000 A 
ATOM     13  C   UNL d   1      51.514  34.645  52.268  0.00  0.00     0.002 A 
ENDROOT
BRANCH   2  14
ATOM     14  S   UNL d   1      52.969  30.755  53.384  0.00  0.00     0.231 S 
ATOM     15  O   UNL d   1      53.717  30.952  53.105  0.00  0.00    -0.215 OA
ATOM     16  O   UNL d   1      52.215  30.558  53.664  0.00  0.00    -0.215 OA
BRANCH  14  17
ATOM     17  C   UNL d   1      53.267  30.118  53.808  0.00  0.00     0.090 A 
ATOM     18  C   UNL d   1      52.806  29.757  54.386  0.00  0.00     0.011 A 
ATOM     19  C   UNL d   1      53.096  29.121  54.814  0.00  0.00     0.001 A 
ATOM     20  C   UNL d   1      53.862  28.841  54.660  0.00  0.00     0.000 A 
ATOM     21  C   UNL d   1      54.324  29.205  54.077  0.00  0.00     0.001 A 
ATOM     22  C   UNL d   1      54.028  29.839  53.655  0.00  0.00     0.011 A 
ENDBRANCH  14  17
ENDBRANCH   2  14
BRANCH   7  23
ATOM     23  N   UNL d   1      52.971  33.735  54.708  0.00  0.00    -0.227 NA
BRANCH  23  24
ATOM     24  C   UNL d   1      53.740  33.612  54.976  0.00  0.00     0.083 A 
ATOM     25  C   UNL d   1      54.377  33.948  54.573  0.00  0.00     0.019 A 
ATOM     26  C   UNL d   1      55.146  33.825  54.842  0.00  0.00     0.002 A 
ATOM     27  C   UNL d   1      55.783  34.160  54.438  0.00  0.00     0.000 C 
ATOM     28  C   UNL d   1      55.283  33.364  55.518  0.00  0.00     0.000 A 
ATOM     29  C   UNL d   1      54.634  33.029  55.919  0.00  0.00     0.002 A 
ATOM     30  C   UNL d   1      53.872  33.154  55.648  0.00  0.00     0.019 A 
ENDBRANCH  23  24
ENDBRANCH   7  23
TORSDOF 4
ENDMDL
