MODEL 1
REMARK VINA RESULT:      -7.0      0.000      0.000
REMARK  4 active torsions:
REMARK  status: ('A' for Active; 'I' for Inactive)
REMARK    1  A    between atoms: C_7  and  N_1 
REMARK    2  A    between atoms: C_6  and  C_8 
REMARK    3  A    between atoms: O_16  and  C_6 
REMARK    4  A    between atoms: C_17  and  O_16 
ROOT
ATOM      1  C   UNL d   1     -48.801  14.119  22.594  0.00  0.00     0.070 A 
ATOM      2  C   UNL d   1     -47.208  13.751  22.812  0.00  0.00     0.064 A 
ATOM      3  C   UNL d   1     -48.590  13.361  22.857  0.00  0.00     0.018 A 
ATOM      4  C   UNL d   1     -48.220  14.680  22.443  0.00  0.00     0.018 A 
ATOM      5  C   UNL d   1     -47.789  13.172  22.968  0.00  0.00     0.007 A 
ATOM      6  C   UNL d   1     -47.429  14.499  22.551  0.00  0.00     0.007 A 
ENDROOT
BRANCH   1   7
ATOM      7  N   UNL d   1     -49.595  14.314  22.481  0.00  0.00    -0.242 N 
ATOM      8  C   UNL d   1     -50.055  14.793  22.989  0.00  0.00     0.267 A 
ATOM      9  C   UNL d   1     -50.816  14.849  22.675  0.00  0.00     0.066 A 
ATOM     10  O   UNL d   1     -49.825  15.164  23.693  0.00  0.00    -0.267 OA
ATOM     11  C   UNL d   1     -50.833  14.407  21.973  0.00  0.00     0.066 A 
ATOM     12  C   UNL d   1     -50.088  14.082  21.856  0.00  0.00     0.267 A 
ATOM     13  O   UNL d   1     -49.907  13.602  21.199  0.00  0.00    -0.267 OA
ENDBRANCH   1   7
BRANCH   2  14
ATOM     14  C   UNL d   1     -46.414  13.567  22.921  0.00  0.00     0.300 C 
ATOM     15  O   UNL d   1     -46.085  13.590  23.697  0.00  0.00    -0.259 OA
BRANCH  14  16
ATOM     16  O   UNL d   1     -45.939  13.360  22.276  0.00  0.00    -0.271 OA
BRANCH  16  17
ATOM     17  C   UNL d   1     -45.145  13.129  22.399  0.00  0.00     0.126 C 
ATOM     18  C   UNL d   1     -44.682  12.956  21.747  0.00  0.00     0.029 C 
ENDBRANCH  16  17
ENDBRANCH  14  16
ENDBRANCH   2  14
TORSDOF 4
ENDMDL
MODEL 2
REMARK VINA RESULT:      -7.0      1.552      1.836
REMARK  4 active torsions:
REMARK  status: ('A' for Active; 'I' for Inactive)
REMARK    1  A    between atoms: C_7  and  N_1 
REMARK    2  A    between atoms: C_6  and  C_8 
REMARK    3  A    between atoms: O_16  and  C_6 
REMARK    4  A    between atoms: C_17  and  O_16 
ROOT
ATOM      1  C   UNL d   1     -48.082  12.715  22.949  0.00  0.00     0.070 A 
ATOM      2  C   UNL d   1     -46.539  13.201  22.628  0.00  0.00     0.064 A 
ATOM      3  C   UNL d   1     -47.496  12.621  23.527  0.00  0.00     0.018 A 
ATOM      4  C   UNL d   1     -47.893  13.048  22.221  0.00  0.00     0.018 A 
ATOM      5  C   UNL d   1     -46.718  12.864  23.370  0.00  0.00     0.007 A 
ATOM      6  C   UNL d   1     -47.128  13.290  22.060  0.00  0.00     0.007 A 
ENDROOT
BRANCH   1   7
ATOM      7  N   UNL d   1     -48.857  12.476  23.098  0.00  0.00    -0.242 N 
ATOM      8  C   UNL d   1     -49.477  12.971  23.363  0.00  0.00     0.267 A 
ATOM      9  C   UNL d   1     -50.160  12.514  23.442  0.00  0.00     0.066 A 
ATOM     10  O   UNL d   1     -49.451  13.782  23.530  0.00  0.00    -0.267 OA
ATOM     11  C   UNL d   1     -49.969  11.735  23.227  0.00  0.00     0.066 A 
ATOM     12  C   UNL d   1     -49.176  11.714  23.017  0.00  0.00     0.267 A 
ATOM     13  O   UNL d   1     -48.796  11.014  22.770  0.00  0.00    -0.267 OA
ENDBRANCH   1   7
BRANCH   2  14
ATOM     14  C   UNL d   1     -45.769  13.443  22.468  0.00  0.00     0.300 C 
ATOM     15  O   UNL d   1     -45.552  14.247  22.598  0.00  0.00    -0.259 OA
BRANCH  14  16
ATOM     16  O   UNL d   1     -45.210  12.904  22.183  0.00  0.00    -0.271 OA
BRANCH  16  17
ATOM     17  C   UNL d   1     -44.489  13.179  21.864  0.00  0.00     0.126 C 
ATOM     18  C   UNL d   1     -43.910  12.633  21.674  0.00  0.00     0.029 C 
ENDBRANCH  16  17
ENDBRANCH  14  16
ENDBRANCH   2  14
TORSDOF 4
ENDMDL
MODEL 3
REMARK VINA RESULT:      -6.7      1.151      1.786
REMARK  4 active torsions:
REMARK  status: ('A' for Active; 'I' for Inactive)
REMARK    1  A    between atoms: C_7  and  N_1 
REMARK    2  A    between atoms: C_6  and  C_8 
REMARK    3  A    between atoms: O_16  and  C_6 
REMARK    4  A    between atoms: C_17  and  O_16 
ROOT
ATOM      1  C   UNL d   1     -48.803  13.514  22.686  0.00  0.00     0.070 A 
ATOM      2  C   UNL d   1     -47.388  12.843  23.204  0.00  0.00     0.064 A 
ATOM      3  C   UNL d   1     -48.085  13.778  22.365  0.00  0.00     0.018 A 
ATOM      4  C   UNL d   1     -48.807  12.923  23.257  0.00  0.00     0.018 A 
ATOM      5  C   UNL d   1     -47.371  13.443  22.623  0.00  0.00     0.007 A 
ATOM      6  C   UNL d   1     -48.106  12.589  23.515  0.00  0.00     0.007 A 
ENDROOT
BRANCH   1   7
ATOM      7  N   UNL d   1     -49.517  13.843  22.435  0.00  0.00    -0.242 N 
ATOM      8  C   UNL d   1     -50.000  13.546  21.820  0.00  0.00     0.267 A 
ATOM      9  C   UNL d   1     -50.660  14.036  21.748  0.00  0.00     0.066 A 
ATOM     10  O   UNL d   1     -49.873  12.880  21.343  0.00  0.00    -0.267 OA
ATOM     11  C   UNL d   1     -50.591  14.638  22.315  0.00  0.00     0.066 A 
ATOM     12  C   UNL d   1     -49.895  14.519  22.732  0.00  0.00     0.267 A 
ATOM     13  O   UNL d   1     -49.650  15.024  23.348  0.00  0.00    -0.267 OA
ENDBRANCH   1   7
BRANCH   2  14
ATOM     14  C   UNL d   1     -46.682  12.508  23.461  0.00  0.00     0.300 C 
ATOM     15  O   UNL d   1     -46.038  13.010  23.673  0.00  0.00    -0.259 OA
BRANCH  14  16
ATOM     16  O   UNL d   1     -46.602  11.687  23.514  0.00  0.00    -0.271 OA
BRANCH  16  17
ATOM     17  C   UNL d   1     -45.841  11.344  23.567  0.00  0.00     0.126 C 
ATOM     18  C   UNL d   1     -45.783  10.538  23.698  0.00  0.00     0.029 C 
ENDBRANCH  16  17
ENDBRANCH  14  16
ENDBRANCH   2  14
TORSDOF 4
ENDMDL
MODEL 4
REMARK VINA RESULT:      -6.1      1.495      4.046
REMARK  4 active torsions:
REMARK  status: ('A' for Active; 'I' for Inactive)
REMARK    1  A    between atoms: C_7  and  N_1 
REMARK    2  A    between atoms: C_6  and  C_8 
REMARK    3  A    between atoms: O_16  and  C_6 
REMARK    4  A    between atoms: C_17  and  O_16 
ROOT
ATOM      1  C   UNL d   1     -47.114  13.079  22.875  0.00  0.00     0.070 A 
ATOM      2  C   UNL d   1     -48.224  14.275  22.638  0.00  0.00     0.064 A 
ATOM      3  C   UNL d   1     -47.721  12.968  22.322  0.00  0.00     0.018 A 
ATOM      4  C   UNL d   1     -47.068  13.780  23.302  0.00  0.00     0.018 A 
ATOM      5  C   UNL d   1     -48.282  13.567  22.199  0.00  0.00     0.007 A 
ATOM      6  C   UNL d   1     -47.618  14.375  23.185  0.00  0.00     0.007 A 
ENDROOT
BRANCH   1   7
ATOM      7  N   UNL d   1     -46.553  12.487  23.003  0.00  0.00    -0.242 N 
ATOM      8  C   UNL d   1     -45.748  12.523  22.777  0.00  0.00     0.267 A 
ATOM      9  C   UNL d   1     -45.382  11.821  23.006  0.00  0.00     0.066 A 
ATOM     10  O   UNL d   1     -45.350  13.138  22.390  0.00  0.00    -0.267 OA
ATOM     11  C   UNL d   1     -45.955  11.345  23.374  0.00  0.00     0.066 A 
ATOM     12  C   UNL d   1     -46.667  11.753  23.371  0.00  0.00     0.267 A 
ATOM     13  O   UNL d   1     -47.365  11.437  23.698  0.00  0.00    -0.267 OA
ENDBRANCH   1   7
BRANCH   2  14
ATOM     14  C   UNL d   1     -48.779  14.871  22.520  0.00  0.00     0.300 C 
ATOM     15  O   UNL d   1     -48.600  15.506  21.994  0.00  0.00    -0.259 OA
BRANCH  14  16
ATOM     16  O   UNL d   1     -49.506  14.851  22.912  0.00  0.00    -0.271 OA
BRANCH  16  17
ATOM     17  C   UNL d   1     -50.022  15.508  22.870  0.00  0.00     0.126 C 
ATOM     18  C   UNL d   1     -50.710  15.495  23.313  0.00  0.00     0.029 C 
ENDBRANCH  16  17
ENDBRANCH  14  16
ENDBRANCH   2  14
TORSDOF 4
ENDMDL
MODEL 5
REMARK VINA RESULT:      -5.3      8.351      9.317
REMARK  4 active torsions:
REMARK  status: ('A' for Active; 'I' for Inactive)
REMARK    1  A    between atoms: C_7  and  N_1 
REMARK    2  A    between atoms: C_6  and  C_8 
REMARK    3  A    between atoms: O_16  and  C_6 
REMARK    4  A    between atoms: C_17  and  O_16 
ROOT
ATOM      1  C   UNL d   1     -39.660  14.517  20.745  0.00  0.00     0.070 A 
ATOM      2  C   UNL d   1     -40.260  14.495  19.209  0.00  0.00     0.064 A 
ATOM      3  C   UNL d   1     -40.469  14.381  20.625  0.00  0.00     0.018 A 
ATOM      4  C   UNL d   1     -39.163  14.640  20.102  0.00  0.00     0.018 A 
ATOM      5  C   UNL d   1     -40.775  14.369  19.854  0.00  0.00     0.007 A 
ATOM      6  C   UNL d   1     -39.459  14.630  19.339  0.00  0.00     0.007 A 
ENDROOT
BRANCH   1   7
ATOM      7  N   UNL d   1     -39.348  14.530  21.509  0.00  0.00    -0.242 N 
ATOM      8  C   UNL d   1     -39.382  15.177  22.037  0.00  0.00     0.267 A 
ATOM      9  C   UNL d   1     -39.006  14.960  22.739  0.00  0.00     0.066 A 
ATOM     10  O   UNL d   1     -39.724  15.922  21.916  0.00  0.00    -0.267 OA
ATOM     11  C   UNL d   1     -38.737  14.180  22.651  0.00  0.00     0.066 A 
ATOM     12  C   UNL d   1     -38.946  13.920  21.901  0.00  0.00     0.267 A 
ATOM     13  O   UNL d   1     -38.761  13.155  21.625  0.00  0.00    -0.267 OA
ENDBRANCH   1   7
BRANCH   2  14
ATOM     14  C   UNL d   1     -40.560  14.485  18.443  0.00  0.00     0.300 C 
ATOM     15  O   UNL d   1     -40.803  13.752  18.103  0.00  0.00    -0.259 OA
BRANCH  14  16
ATOM     16  O   UNL d   1     -40.625  15.185  18.008  0.00  0.00    -0.271 OA
BRANCH  16  17
ATOM     17  C   UNL d   1     -40.966  15.173  17.245  0.00  0.00     0.126 C 
ATOM     18  C   UNL d   1     -41.064  15.883  16.848  0.00  0.00     0.029 C 
ENDBRANCH  16  17
ENDBRANCH  14  16
ENDBRANCH   2  14
TORSDOF 4
ENDMDL
MODEL 6
REMARK VINA RESULT:      -5.1      8.205      9.264
REMARK  4 active torsions:
REMARK  status: ('A' for Active; 'I' for Inactive)
REMARK    1  A    between atoms: C_7  and  N_1 
REMARK    2  A    between atoms: C_6  and  C_8 
REMARK    3  A    between atoms: O_16  and  C_6 
REMARK    4  A    between atoms: C_17  and  O_16 
ROOT
ATOM      1  C   UNL d   1     -40.280  15.185  18.291  0.00  0.00     0.070 A 
ATOM      2  C   UNL d   1     -40.379  14.663  19.852  0.00  0.00     0.064 A 
ATOM      3  C   UNL d   1     -40.278  14.372  18.450  0.00  0.00     0.018 A 
ATOM      4  C   UNL d   1     -40.332  15.726  18.908  0.00  0.00     0.018 A 
ATOM      5  C   UNL d   1     -40.327  14.104  19.234  0.00  0.00     0.007 A 
ATOM      6  C   UNL d   1     -40.381  15.468  19.684  0.00  0.00     0.007 A 
ENDROOT
BRANCH   1   7
ATOM      7  N   UNL d   1     -40.232  15.459  17.514  0.00  0.00    -0.242 N 
ATOM      8  C   UNL d   1     -39.529  15.681  17.119  0.00  0.00     0.267 A 
ATOM      9  C   UNL d   1     -39.724  15.920  16.354  0.00  0.00     0.066 A 
ATOM     10  O   UNL d   1     -38.753  15.677  17.410  0.00  0.00    -0.267 OA
ATOM     11  C   UNL d   1     -40.547  15.848  16.269  0.00  0.00     0.066 A 
ATOM     12  C   UNL d   1     -40.854  15.567  16.976  0.00  0.00     0.267 A 
ATOM     13  O   UNL d   1     -41.669  15.428  17.087  0.00  0.00    -0.267 OA
ENDBRANCH   1   7
BRANCH   2  14
ATOM     14  C   UNL d   1     -40.428  14.402  20.631  0.00  0.00     0.300 C 
ATOM     15  O   UNL d   1     -41.184  14.321  20.995  0.00  0.00    -0.259 OA
BRANCH  14  16
ATOM     16  O   UNL d   1     -39.742  14.219  21.056  0.00  0.00    -0.271 OA
BRANCH  16  17
ATOM     17  C   UNL d   1     -39.798  13.955  21.846  0.00  0.00     0.126 C 
ATOM     18  C   UNL d   1     -39.117  13.708  22.227  0.00  0.00     0.029 C 
ENDBRANCH  16  17
ENDBRANCH  14  16
ENDBRANCH   2  14
TORSDOF 4
ENDMDL
