MODEL 1
REMARK VINA RESULT:      39.2      0.000      0.000
REMARK  5 active torsions:
REMARK  status: ('A' for Active; 'I' for Inactive)
REMARK    1  A    between atoms: N_2  and  S_1 
REMARK    2  A    between atoms: C_3  and  S_1 
REMARK    3  A    between atoms: C_13  and  N_2 
REMARK       I    between atoms: C_6  and  N_7 
REMARK    4  A    between atoms: N_7  and  C_14 
REMARK    5  A    between atoms: C_12  and  C_13 
ROOT
ATOM      1  S   UNL d   1      14.923  15.159  -0.828  0.00  0.00     0.285 S 
ATOM      2  O   UNL d   1      14.740  15.784  -0.315  0.00  0.00    -0.198 OA
ATOM      3  O   UNL d   1      15.110  14.539  -1.366  0.00  0.00    -0.198 OA
ENDROOT
BRANCH   1   4
ATOM      4  N   UNL d   1      14.892  14.627  -0.207  0.00  0.00    -0.157 NA
BRANCH   4   5
ATOM      5  C   UNL d   1      15.283  13.891  -0.276  0.00  0.00     0.114 C 
BRANCH   5   6
ATOM      6  C   UNL d   1      14.835  13.210  -0.249  0.00  0.00     0.039 A 
ATOM      7  C   UNL d   1      14.042  13.230  -0.038  0.00  0.00     0.101 A 
ATOM      8  N   UNL d   1      13.612  12.514  -0.020  0.00  0.00    -0.242 NA
ATOM      9  C   UNL d   1      13.970  11.786  -0.210  0.00  0.00     0.099 A 
ATOM     10  C   UNL d   1      14.777  11.780  -0.423  0.00  0.00     0.021 A 
ATOM     11  C   UNL d   1      15.200  12.474  -0.442  0.00  0.00     0.005 A 
ENDBRANCH   5   6
ENDBRANCH   4   5
ENDBRANCH   1   4
BRANCH   1  12
ATOM     12  C   UNL d   1      14.955  15.714  -1.476  0.00  0.00     0.105 A 
ATOM     13  C   UNL d   1      14.592  15.531  -2.199  0.00  0.00     0.015 A 
ATOM     14  C   UNL d   1      14.621  16.059  -2.823  0.00  0.00     0.020 A 
ATOM     15  C   UNL d   1      15.024  16.787  -2.716  0.00  0.00     0.085 A 
ATOM     16  C   UNL d   1      15.379  16.960  -2.003  0.00  0.00     0.020 A 
ATOM     17  C   UNL d   1      15.345  16.417  -1.375  0.00  0.00     0.015 A 
BRANCH  15  18
ATOM     18  N   UNL d   1      15.061  17.340  -3.350  0.00  0.00    -0.208 NA
ATOM     19  C   UNL d   1      15.391  17.099  -4.092  0.00  0.00     0.279 C 
ATOM     20  O   UNL d   1      15.675  16.318  -4.187  0.00  0.00    -0.265 OA
ATOM     21  C   UNL d   1      15.429  17.623  -4.703  0.00  0.00     0.068 C 
ENDBRANCH  15  18
ENDBRANCH   1  12
TORSDOF 5
ENDMDL
