MODEL 1
REMARK VINA RESULT:      -1.2      0.000      0.000
REMARK  5 active torsions:
REMARK  status: ('A' for Active; 'I' for Inactive)
REMARK    1  A    between atoms: C_14  and  C_4 
REMARK    2  A    between atoms: S_11  and  C_5 
REMARK    3  A    between atoms: C_10  and  C_12 
REMARK    4  A    between atoms: C_15  and  S_11 
REMARK    5  A    between atoms: C_12  and  C_15 
ROOT
ATOM      1  N   UNL d   1      32.873  20.522 -22.437  0.00  0.00    -0.206 N 
ATOM      2  C   UNL d   1      32.822  21.294 -22.137  0.00  0.00     0.166 A 
ATOM      3  N   UNL d   1      32.582  20.009 -21.154  0.00  0.00    -0.163 NA
ATOM      4  C   UNL d   1      32.652  21.424 -21.353  0.00  0.00     0.055 A 
ATOM      5  C   UNL d   1      33.044  20.416 -23.222  0.00  0.00     0.116 A 
ATOM      6  C   UNL d   1      32.532  20.768 -20.859  0.00  0.00     0.104 A 
ATOM      7  N   UNL d   1      32.942  21.939 -22.631  0.00  0.00    -0.227 NA
ATOM      8  C   UNL d   1      33.167  21.048 -23.730  0.00  0.00     0.045 A 
ATOM      9  C   UNL d   1      33.116  21.816 -23.432  0.00  0.00     0.085 A 
ATOM     10  C   UNL d   1      32.362  20.900 -20.078  0.00  0.00     0.023 C 
ATOM     11  C   UNL d   1      33.241  22.488 -23.945  0.00  0.00     0.021 C 
ENDROOT
BRANCH   5  12
ATOM     12  S   UNL d   1      33.097  19.620 -23.532  0.00  0.00    -0.064 SA
BRANCH  12  13
ATOM     13  C   UNL d   1      33.154  18.775 -23.568  0.00  0.00     0.079 C 
BRANCH  13  14
ATOM     14  C   UNL d   1      32.551  18.324 -23.944  0.00  0.00     0.208 C 
ATOM     15  O   UNL d   1      31.818  18.689 -24.154  0.00  0.00    -0.285 OA
BRANCH  14  16
ATOM     16  C   UNL d   1      32.674  17.502 -24.116  0.00  0.00     0.069 A 
ATOM     17  S   UNL d   1      32.957  17.193 -24.857  0.00  0.00    -0.083 SA
ATOM     18  C   UNL d   1      32.995  16.351 -24.781  0.00  0.00     0.035 A 
ATOM     19  C   UNL d   1      32.741  16.139 -24.005  0.00  0.00     0.008 A 
ATOM     20  C   UNL d   1      32.542  16.861 -23.594  0.00  0.00     0.010 A 
ENDBRANCH  14  16
ENDBRANCH  13  14
ENDBRANCH  12  13
ENDBRANCH   5  12
BRANCH   4  21
ATOM     21  C   UNL d   1      32.602  22.183 -21.058  0.00  0.00     0.004 A 
ATOM     22  C   UNL d   1      31.915  22.603 -21.134  0.00  0.00     0.000 A 
ATOM     23  C   UNL d   1      31.853  23.352 -20.847  0.00  0.00     0.000 A 
ATOM     24  C   UNL d   1      32.500  23.702 -20.468  0.00  0.00     0.000 A 
ATOM     25  C   UNL d   1      33.188  23.279 -20.394  0.00  0.00     0.000 A 
ATOM     26  C   UNL d   1      33.239  22.519 -20.689  0.00  0.00     0.000 A 
ENDBRANCH   4  21
TORSDOF 5
ENDMDL
MODEL 2
REMARK VINA RESULT:      -1.0      1.574      5.310
REMARK  5 active torsions:
REMARK  status: ('A' for Active; 'I' for Inactive)
REMARK    1  A    between atoms: C_14  and  C_4 
REMARK    2  A    between atoms: S_11  and  C_5 
REMARK    3  A    between atoms: C_10  and  C_12 
REMARK    4  A    between atoms: C_15  and  S_11 
REMARK    5  A    between atoms: C_12  and  C_15 
ROOT
ATOM      1  N   UNL d   1      32.991  18.953 -22.786  0.00  0.00    -0.206 N 
ATOM      2  C   UNL d   1      32.806  18.382 -23.357  0.00  0.00     0.166 A 
ATOM      3  N   UNL d   1      33.241  17.928 -21.847  0.00  0.00    -0.163 NA
ATOM      4  C   UNL d   1      32.837  17.590 -23.177  0.00  0.00     0.055 A 
ATOM      5  C   UNL d   1      32.953  19.737 -22.987  0.00  0.00     0.116 A 
ATOM      6  C   UNL d   1      33.059  17.366 -22.410  0.00  0.00     0.104 A 
ATOM      7  N   UNL d   1      32.587  18.609 -24.116  0.00  0.00    -0.227 NA
ATOM      8  C   UNL d   1      32.736  19.983 -23.739  0.00  0.00     0.045 A 
ATOM      9  C   UNL d   1      32.552  19.414 -24.307  0.00  0.00     0.085 A 
ATOM     10  C   UNL d   1      33.090  16.576 -22.232  0.00  0.00     0.023 C 
ATOM     11  C   UNL d   1      32.324  19.651 -25.097  0.00  0.00     0.021 C 
ENDROOT
BRANCH   5  12
ATOM     12  S   UNL d   1      33.144  20.327 -22.397  0.00  0.00    -0.064 SA
BRANCH  12  13
ATOM     13  C   UNL d   1      33.219  21.075 -22.004  0.00  0.00     0.079 C 
BRANCH  13  14
ATOM     14  C   UNL d   1      32.788  21.227 -21.297  0.00  0.00     0.208 C 
ATOM     15  O   UNL d   1      32.300  20.626 -20.960  0.00  0.00    -0.285 OA
BRANCH  14  16
ATOM     16  C   UNL d   1      32.841  21.985 -20.919  0.00  0.00     0.069 A 
ATOM     17  S   UNL d   1      33.143  22.122 -20.135  0.00  0.00    -0.083 SA
ATOM     18  C   UNL d   1      33.092  22.955 -19.986  0.00  0.00     0.035 A 
ATOM     19  C   UNL d   1      32.763  23.329 -20.667  0.00  0.00     0.008 A 
ATOM     20  C   UNL d   1      32.609  22.721 -21.246  0.00  0.00     0.010 A 
ENDBRANCH  14  16
ENDBRANCH  13  14
ENDBRANCH  12  13
ENDBRANCH   5  12
BRANCH   4  21
ATOM     21  C   UNL d   1      32.655  17.027 -23.740  0.00  0.00     0.004 A 
ATOM     22  C   UNL d   1      33.241  16.694 -24.185  0.00  0.00     0.000 A 
ATOM     23  C   UNL d   1      33.074  16.139 -24.743  0.00  0.00     0.000 A 
ATOM     24  C   UNL d   1      32.290  15.902 -24.865  0.00  0.00     0.000 A 
ATOM     25  C   UNL d   1      31.704  16.238 -24.416  0.00  0.00     0.000 A 
ATOM     26  C   UNL d   1      31.886  16.801 -23.853  0.00  0.00     0.000 A 
ENDBRANCH   4  21
TORSDOF 5
ENDMDL
MODEL 3
REMARK VINA RESULT:       0.0      2.034      5.563
REMARK  5 active torsions:
REMARK  status: ('A' for Active; 'I' for Inactive)
REMARK    1  A    between atoms: C_14  and  C_4 
REMARK    2  A    between atoms: S_11  and  C_5 
REMARK    3  A    between atoms: C_10  and  C_12 
REMARK    4  A    between atoms: C_15  and  S_11 
REMARK    5  A    between atoms: C_12  and  C_15 
ROOT
ATOM      1  N   UNL d   1      32.102  18.395 -23.518  0.00  0.00    -0.206 N 
ATOM      2  C   UNL d   1      31.764  17.662 -23.711  0.00  0.00     0.166 A 
ATOM      3  N   UNL d   1      31.022  19.053 -24.146  0.00  0.00    -0.163 NA
ATOM      4  C   UNL d   1      31.062  17.624 -24.118  0.00  0.00     0.055 A 
ATOM      5  C   UNL d   1      32.803  18.409 -23.111  0.00  0.00     0.116 A 
ATOM      6  C   UNL d   1      30.690  18.333 -24.336  0.00  0.00     0.104 A 
ATOM      7  N   UNL d   1      32.136  16.963 -23.493  0.00  0.00    -0.227 NA
ATOM      8  C   UNL d   1      33.189  17.722 -22.885  0.00  0.00     0.045 A 
ATOM      9  C   UNL d   1      32.853  16.993 -23.078  0.00  0.00     0.085 A 
ATOM     10  C   UNL d   1      29.990  18.293 -24.742  0.00  0.00     0.023 C 
ATOM     11  C   UNL d   1      33.240  16.266 -22.850  0.00  0.00     0.021 C 
ENDROOT
BRANCH   5  12
ATOM     12  S   UNL d   1      33.152  19.165 -22.912  0.00  0.00    -0.064 SA
BRANCH  12  13
ATOM     13  C   UNL d   1      33.235  19.966 -22.647  0.00  0.00     0.079 C 
BRANCH  13  14
ATOM     14  C   UNL d   1      33.081  20.164 -21.843  0.00  0.00     0.208 C 
ATOM     15  O   UNL d   1      33.102  19.566 -21.247  0.00  0.00    -0.285 OA
BRANCH  14  16
ATOM     16  C   UNL d   1      32.905  20.966 -21.627  0.00  0.00     0.069 A 
ATOM     17  S   UNL d   1      32.369  21.200 -21.007  0.00  0.00    -0.083 SA
ATOM     18  C   UNL d   1      32.363  22.047 -20.985  0.00  0.00     0.035 A 
ATOM     19  C   UNL d   1      32.886  22.334 -21.581  0.00  0.00     0.008 A 
ATOM     20  C   UNL d   1      33.222  21.657 -21.978  0.00  0.00     0.010 A 
ENDBRANCH  14  16
ENDBRANCH  13  14
ENDBRANCH  12  13
ENDBRANCH   5  12
BRANCH   4  21
ATOM     21  C   UNL d   1      30.729  16.903 -24.308  0.00  0.00     0.004 A 
ATOM     22  C   UNL d   1      30.086  16.632 -23.900  0.00  0.00     0.000 A 
ATOM     23  C   UNL d   1      29.750  15.924 -24.078  0.00  0.00     0.000 A 
ATOM     24  C   UNL d   1      30.064  15.461 -24.688  0.00  0.00     0.000 A 
ATOM     25  C   UNL d   1      30.710  15.735 -25.096  0.00  0.00     0.000 A 
ATOM     26  C   UNL d   1      31.042  16.457 -24.906  0.00  0.00     0.000 A 
ENDBRANCH   4  21
TORSDOF 5
ENDMDL
