MODEL 1
REMARK VINA RESULT:      74.8      0.000      0.000
REMARK  5 active torsions:
REMARK  status: ('A' for Active; 'I' for Inactive)
REMARK    1  A    between atoms: C_5  and  C_1 
REMARK    2  A    between atoms: C_4  and  C_9 
REMARK    3  A    between atoms: N_7  and  C_5 
REMARK    4  A    between atoms: C_10  and  C_5 
REMARK    5  A    between atoms: C_12  and  N_7 
ROOT
ATOM      1  C   UNL d   1     -54.774-101.326 -41.084  0.00  0.00     0.086 C 
ENDROOT
BRANCH   1   2
ATOM      2  C   UNL d   1     -54.802-101.379 -41.907  0.00  0.00     0.058 A 
ATOM      3  C   UNL d   1     -54.770-100.691 -42.364  0.00  0.00     0.214 A 
ATOM      4  C   UNL d   1     -54.798-100.751 -43.191  0.00  0.00     0.120 A 
ATOM      5  O   UNL d   1     -54.712 -99.958 -42.019  0.00  0.00    -0.285 OA
ATOM      6  N   UNL d   1     -54.767-100.066 -43.659  0.00  0.00    -0.242 NA
ATOM      7  C   UNL d   1     -54.856-101.489 -43.552  0.00  0.00     0.021 A 
ATOM      8  C   UNL d   1     -54.794-100.120 -44.479  0.00  0.00     0.082 A 
ATOM      9  C   UNL d   1     -54.763 -99.438 -44.942  0.00  0.00     0.021 C 
ATOM     10  C   UNL d   1     -54.853-100.866 -44.844  0.00  0.00     0.019 A 
ATOM     11  C   UNL d   1     -54.884-101.552 -44.373  0.00  0.00     0.003 A 
ATOM     12  C   UNL d   1     -54.888-102.179 -43.093  0.00  0.00     0.002 A 
ATOM     13  C   UNL d   1     -54.861-102.124 -42.272  0.00  0.00     0.005 A 
ENDBRANCH   1   2
BRANCH   1  14
ATOM     14  N   UNL d   1     -54.712-102.061 -40.714  0.00  0.00    -0.245 NA
BRANCH  14  15
ATOM     15  C   UNL d   1     -55.295-102.326 -40.218  0.00  0.00     0.081 A 
ATOM     16  C   UNL d   1     -55.150-102.408 -39.420  0.00  0.00     0.023 A 
ATOM     17  C   UNL d   1     -55.747-102.680 -38.910  0.00  0.00     0.073 A 
ATOM     18  C   UNL d   1     -56.495-102.869 -39.220  0.00  0.00     0.004 A 
ATOM     19  C   UNL d   1     -56.635-102.785 -40.026  0.00  0.00     0.002 A 
ATOM     20  C   UNL d   1     -56.034-102.514 -40.519  0.00  0.00     0.019 A 
BRANCH  17  21
ATOM     21  C   UNL d   1     -55.592-102.760 -38.107  0.00  0.00     0.419 C 
ATOM     22  F   UNL d   1     -55.439-102.831 -37.375  0.00  0.00    -0.166 F 
ATOM     23  F   UNL d   1     -54.835-102.743 -37.707  0.00  0.00    -0.166 F 
ATOM     24  F   UNL d   1     -56.133-102.879 -37.456  0.00  0.00    -0.166 F 
ENDBRANCH  17  21
ENDBRANCH  14  15
ENDBRANCH   1  14
BRANCH   1  25
ATOM     25  C   UNL d   1     -54.795-100.706 -40.543  0.00  0.00     0.037 A 
ATOM     26  C   UNL d   1     -54.895-100.869 -39.734  0.00  0.00     0.100 A 
ATOM     27  N   UNL d   1     -54.914-100.238 -39.200  0.00  0.00    -0.242 NA
ATOM     28  C   UNL d   1     -54.838 -99.473 -39.457  0.00  0.00     0.099 A 
ATOM     29  C   UNL d   1     -54.740 -99.313 -40.256  0.00  0.00     0.021 A 
ATOM     30  C   UNL d   1     -54.719 -99.926 -40.801  0.00  0.00     0.005 A 
ENDBRANCH   1  25
TORSDOF 5
ENDMDL
