MODEL 1
REMARK VINA RESULT:      -5.4      0.000      0.000
REMARK  6 active torsions:
REMARK  status: ('A' for Active; 'I' for Inactive)
REMARK    1  A    between atoms: S_2  and  N_1 
REMARK    2  A    between atoms: C_11  and  S_2 
REMARK    3  A    between atoms: O_8  and  C_5 
REMARK    4  A    between atoms: C_7  and  O_8 
REMARK    5  A    between atoms: C_12  and  C_7 
REMARK    6  A    between atoms: O_20  and  C_17 
ROOT
ATOM      1  N   UNL d   1      58.767  -1.150  29.501  0.00  0.00    -0.130 N 
ATOM      2  N   UNL d   1      58.176  -1.210  30.071  0.00  0.00    -0.128 NA
ATOM      3  C   UNL d   1      58.782  -0.381  29.218  0.00  0.00     0.200 A 
ATOM      4  C   UNL d   1      57.821  -0.465  30.140  0.00  0.00     0.208 A 
ATOM      5  C   UNL d   1      58.192   0.042  29.618  0.00  0.00     0.088 A 
ATOM      6  N   UNL d   1      59.290  -0.083  28.642  0.00  0.00    -0.126 N 
ENDROOT
BRANCH   4   7
ATOM      7  O   UNL d   1      57.198  -0.269  30.649  0.00  0.00    -0.253 OA
BRANCH   7   8
ATOM      8  C   UNL d   1      57.359  -0.002  31.414  0.00  0.00     0.301 C 
ATOM      9  O   UNL d   1      58.108   0.281  31.604  0.00  0.00    -0.259 OA
BRANCH   8  10
ATOM     10  C   UNL d   1      56.770  -0.017  31.991  0.00  0.00     0.064 A 
ATOM     11  C   UNL d   1      56.520   0.682  32.359  0.00  0.00     0.007 A 
ATOM     12  C   UNL d   1      55.936   0.671  32.932  0.00  0.00     0.024 A 
ATOM     13  C   UNL d   1      55.588  -0.050  33.148  0.00  0.00     0.094 A 
ATOM     14  C   UNL d   1      55.838  -0.749  32.779  0.00  0.00     0.024 A 
ATOM     15  C   UNL d   1      56.425  -0.736  32.204  0.00  0.00     0.007 A 
BRANCH  13  16
ATOM     16  O   UNL d   1      55.004  -0.079  33.717  0.00  0.00    -0.328 OA
ATOM     17  C   UNL d   1      55.053   0.358  34.412  0.00  0.00     0.181 C 
ENDBRANCH  13  16
ENDBRANCH   8  10
ENDBRANCH   7   8
ENDBRANCH   4   7
BRANCH   1  18
ATOM     18  S   UNL d   1      59.261  -1.764  29.256  0.00  0.00     0.287 S 
ATOM     19  O   UNL d   1      58.635  -2.132  28.841  0.00  0.00    -0.198 OA
ATOM     20  O   UNL d   1      59.874  -1.413  29.657  0.00  0.00    -0.198 OA
BRANCH  18  21
ATOM     21  C   UNL d   1      59.768  -2.369  29.020  0.00  0.00     0.105 A 
ATOM     22  C   UNL d   1      59.459  -3.080  28.731  0.00  0.00     0.013 A 
ATOM     23  C   UNL d   1      59.970  -3.684  28.496  0.00  0.00     0.001 A 
ATOM     24  C   UNL d   1      60.784  -3.581  28.548  0.00  0.00     0.000 A 
ATOM     25  C   UNL d   1      61.090  -2.873  28.836  0.00  0.00     0.001 A 
ATOM     26  C   UNL d   1      60.589  -2.262  29.074  0.00  0.00     0.013 A 
ENDBRANCH  18  21
ENDBRANCH   1  18
TORSDOF 6
ENDMDL
MODEL 2
REMARK VINA RESULT:      -4.6      2.300      5.840
REMARK  6 active torsions:
REMARK  status: ('A' for Active; 'I' for Inactive)
REMARK    1  A    between atoms: S_2  and  N_1 
REMARK    2  A    between atoms: C_11  and  S_2 
REMARK    3  A    between atoms: O_8  and  C_5 
REMARK    4  A    between atoms: C_7  and  O_8 
REMARK    5  A    between atoms: C_12  and  C_7 
REMARK    6  A    between atoms: O_20  and  C_17 
ROOT
ATOM      1  N   UNL d   1      56.399  -0.001  32.670  0.00  0.00    -0.130 N 
ATOM      2  N   UNL d   1      56.963   0.509  32.354  0.00  0.00    -0.128 NA
ATOM      3  C   UNL d   1      56.433  -0.714  32.266  0.00  0.00     0.200 A 
ATOM      4  C   UNL d   1      57.350   0.103  31.745  0.00  0.00     0.208 A 
ATOM      5  C   UNL d   1      57.027  -0.644  31.691  0.00  0.00     0.088 A 
ATOM      6  N   UNL d   1      55.964  -1.376  32.406  0.00  0.00    -0.126 N 
ENDROOT
BRANCH   4   7
ATOM      7  O   UNL d   1      57.961   0.405  31.272  0.00  0.00    -0.253 OA
BRANCH   7   8
ATOM      8  C   UNL d   1      57.902   0.368  30.450  0.00  0.00     0.301 C 
ATOM      9  O   UNL d   1      57.166   0.409  30.085  0.00  0.00    -0.259 OA
BRANCH   8  10
ATOM     10  C   UNL d   1      58.581   0.290  29.989  0.00  0.00     0.064 A 
ATOM     11  C   UNL d   1      59.309   0.585  30.254  0.00  0.00     0.007 A 
ATOM     12  C   UNL d   1      59.986   0.509  29.800  0.00  0.00     0.024 A 
ATOM     13  C   UNL d   1      59.944   0.131  29.063  0.00  0.00     0.094 A 
ATOM     14  C   UNL d   1      59.216  -0.164  28.798  0.00  0.00     0.024 A 
ATOM     15  C   UNL d   1      58.538  -0.087  29.255  0.00  0.00     0.007 A 
BRANCH  13  16
ATOM     16  O   UNL d   1      60.608   0.047  28.598  0.00  0.00    -0.328 OA
ATOM     17  C   UNL d   1      61.095  -0.614  28.650  0.00  0.00     0.181 C 
ENDBRANCH  13  16
ENDBRANCH   8  10
ENDBRANCH   7   8
ENDBRANCH   4   7
BRANCH   1  18
ATOM     18  S   UNL d   1      55.886   0.178  33.291  0.00  0.00     0.287 S 
ATOM     19  O   UNL d   1      55.432   0.681  32.799  0.00  0.00    -0.198 OA
ATOM     20  O   UNL d   1      56.321  -0.309  33.774  0.00  0.00    -0.198 OA
BRANCH  18  21
ATOM     21  C   UNL d   1      55.382   0.345  33.921  0.00  0.00     0.105 A 
ATOM     22  C   UNL d   1      54.580   0.493  33.783  0.00  0.00     0.013 A 
ATOM     23  C   UNL d   1      54.078   0.660  34.417  0.00  0.00     0.001 A 
ATOM     24  C   UNL d   1      54.374   0.681  35.184  0.00  0.00     0.000 A 
ATOM     25  C   UNL d   1      55.173   0.534  35.320  0.00  0.00     0.001 A 
ATOM     26  C   UNL d   1      55.683   0.366  34.694  0.00  0.00     0.013 A 
ENDBRANCH  18  21
ENDBRANCH   1  18
TORSDOF 6
ENDMDL
