MODEL 1
REMARK VINA RESULT:      60.4      0.000      0.000
REMARK  6 active torsions:
REMARK  status: ('A' for Active; 'I' for Inactive)
REMARK    1  A    between atoms: N_7  and  C_1 
REMARK    2  A    between atoms: C_6  and  C_4 
REMARK    3  A    between atoms: C_22  and  C_12 
REMARK    4  A    between atoms: C_23  and  N_13 
REMARK    5  A    between atoms: O_17  and  C_22 
REMARK    6  A    between atoms: C_18  and  O_17 
ROOT
ATOM      1  C   UNL d   1     -51.147  25.376  33.399  0.00  0.00     0.198 A 
ATOM      2  C   UNL d   1     -50.337  25.355  33.432  0.00  0.00     0.191 A 
ATOM      3  O   UNL d   1     -51.361  26.160  33.385  0.00  0.00    -0.268 OA
ATOM      4  C   UNL d   1     -50.684  26.604  33.410  0.00  0.00     0.208 A 
ATOM      5  N   UNL d   1     -50.089  26.121  33.437  0.00  0.00    -0.206 NA
ATOM      6  C   UNL d   1     -49.825  24.682  33.458  0.00  0.00     0.124 C 
ATOM      7  N   UNL d   1     -49.325  24.007  33.483  0.00  0.00    -0.190 NA
ENDROOT
BRANCH   1   8
ATOM      8  N   UNL d   1     -51.763  24.822  33.377  0.00  0.00    -0.280 N 
ATOM      9  C   UNL d   1     -52.526  25.077  33.378  0.00  0.00     0.101 A 
ATOM     10  C   UNL d   1     -53.142  24.523  33.356  0.00  0.00     0.100 A 
ATOM     11  N   UNL d   1     -52.985  23.750  33.335  0.00  0.00    -0.300 N 
ATOM     12  C   UNL d   1     -52.205  23.467  33.333  0.00  0.00     0.100 A 
ATOM     13  C   UNL d   1     -51.580  24.005  33.355  0.00  0.00     0.101 A 
BRANCH  11  14
ATOM     14  C   UNL d   1     -53.602  23.197  33.313  0.00  0.00     0.080 C 
ATOM     15  C   UNL d   1     -54.392  23.391  33.564  0.00  0.00     0.021 C 
ENDBRANCH  11  14
ENDBRANCH   1   8
BRANCH   4  16
ATOM     16  C   UNL d   1     -50.172  27.223  33.426  0.00  0.00     0.141 A 
ATOM     17  O   UNL d   1     -49.425  27.630  33.462  0.00  0.00    -0.301 OA
ATOM     18  C   UNL d   1     -49.608  28.434  33.433  0.00  0.00     0.125 A 
ATOM     19  C   UNL d   1     -50.412  28.505  33.383  0.00  0.00     0.029 A 
ATOM     20  C   UNL d   1     -50.746  27.767  33.380  0.00  0.00     0.030 A 
BRANCH  18  21
ATOM     21  C   UNL d   1     -49.052  29.022  33.454  0.00  0.00     0.147 C 
BRANCH  21  22
ATOM     22  O   UNL d   1     -49.072  29.602  34.012  0.00  0.00    -0.303 OA
BRANCH  22  23
ATOM     23  C   UNL d   1     -48.432  29.773  34.462  0.00  0.00     0.100 A 
ATOM     24  C   UNL d   1     -48.210  30.560  34.601  0.00  0.00     0.023 A 
ATOM     25  C   UNL d   1     -48.664  31.166  34.264  0.00  0.00     0.002 C 
ATOM     26  C   UNL d   1     -47.577  30.729  35.045  0.00  0.00     0.002 A 
ATOM     27  C   UNL d   1     -47.122  30.123  35.382  0.00  0.00     0.000 A 
ATOM     28  C   UNL d   1     -47.343  29.327  35.245  0.00  0.00     0.002 A 
ATOM     29  C   UNL d   1     -47.976  29.158  34.800  0.00  0.00     0.025 A 
ENDBRANCH  22  23
ENDBRANCH  21  22
ENDBRANCH  18  21
ENDBRANCH   4  16
TORSDOF 6
ENDMDL
