MODEL 1
REMARK VINA RESULT:      37.3      0.000      0.000
REMARK  5 active torsions:
REMARK  status: ('A' for Active; 'I' for Inactive)
REMARK    1  A    between atoms: C_3  and  C_1 
REMARK    2  A    between atoms: C_2  and  C_3 
REMARK       I    between atoms: N_4  and  C_2 
REMARK    3  A    between atoms: C_10  and  C_8 
REMARK    4  A    between atoms: O_16  and  C_10 
REMARK    5  A    between atoms: C_21  and  O_16 
ROOT
ATOM      1  C   UNL d   1      13.838  13.139  -2.903  0.00  0.00     0.304 C 
ATOM      2  N   UNL d   1      13.540  13.429  -3.610  0.00  0.00    -0.269 N 
ATOM      3  C   UNL d   1      13.382  14.504  -4.538  0.00  0.00     0.081 A 
ATOM      4  C   UNL d   1      13.681  14.210  -3.826  0.00  0.00     0.088 A 
ATOM      5  O   UNL d   1      14.276  13.628  -2.411  0.00  0.00    -0.263 OA
ATOM      6  C   UNL d   1      13.103  12.941  -4.099  0.00  0.00     0.083 A 
ATOM      7  C   UNL d   1      12.942  14.017  -5.035  0.00  0.00     0.008 A 
ATOM      8  C   UNL d   1      12.799  13.233  -4.819  0.00  0.00     0.019 A 
ENDROOT
BRANCH   1   9
ATOM      9  C   UNL d   1      13.695  12.350  -2.685  0.00  0.00     0.253 C 
ATOM     10  O   UNL d   1      13.583  11.779  -3.268  0.00  0.00    -0.281 OA
BRANCH   9  11
ATOM     11  C   UNL d   1      13.667  12.145  -1.893  0.00  0.00     0.064 A 
ATOM     12  C   UNL d   1      12.997  11.950  -1.454  0.00  0.00     0.102 A 
ATOM     13  N   UNL d   1      13.222  11.782  -0.682  0.00  0.00    -0.244 NA
ATOM     14  C   UNL d   1      14.039  11.872  -0.637  0.00  0.00     0.082 A 
ATOM     15  C   UNL d   1      14.314  12.096  -1.382  0.00  0.00     0.022 A 
ATOM     16  C   UNL d   1      14.568  11.780  -0.014  0.00  0.00     0.019 A 
ATOM     17  C   UNL d   1      15.116  12.227  -1.502  0.00  0.00     0.002 A 
ATOM     18  C   UNL d   1      15.649  12.133  -0.872  0.00  0.00     0.000 A 
ATOM     19  C   UNL d   1      15.369  11.911  -0.134  0.00  0.00     0.002 A 
ENDBRANCH   9  11
ENDBRANCH   1   9
BRANCH   3  20
ATOM     20  C   UNL d   1      13.522  15.287  -4.758  0.00  0.00     0.302 C 
ATOM     21  O   UNL d   1      13.028  15.657  -5.296  0.00  0.00    -0.259 OA
BRANCH  20  22
ATOM     22  O   UNL d   1      14.155  15.690  -4.436  0.00  0.00    -0.271 OA
BRANCH  22  23
ATOM     23  C   UNL d   1      14.415  16.397  -4.785  0.00  0.00     0.126 C 
ATOM     24  C   UNL d   1      14.985  16.855  -4.392  0.00  0.00     0.029 C 
ENDBRANCH  22  23
ENDBRANCH  20  22
ENDBRANCH   3  20
TORSDOF 5
ENDMDL
