MODEL 1
REMARK VINA RESULT:      19.3      0.000      0.000
REMARK  5 active torsions:
REMARK  status: ('A' for Active; 'I' for Inactive)
REMARK    1  A    between atoms: C_6  and  N_1 
REMARK    2  A    between atoms: C_8  and  C_4 
REMARK    3  A    between atoms: C_13  and  C_8 
REMARK    4  A    between atoms: O_20  and  C_11 
REMARK    5  A    between atoms: O_21  and  C_16 
ROOT
ATOM      1  N   UNL d   1      45.273 -14.370  44.473  0.00  0.00    -0.231 N 
ATOM      2  C   UNL d   1      44.551 -14.767  44.395  0.00  0.00     0.204 A 
ATOM      3  C   UNL d   1      45.844 -14.924  44.692  0.00  0.00     0.274 A 
ATOM      4  C   UNL d   1      45.476 -15.664  44.750  0.00  0.00     0.089 A 
ATOM      5  S   UNL d   1      44.680 -15.559  44.565  0.00  0.00    -0.043 SA
ATOM      6  N   UNL d   1      43.832 -14.418  44.182  0.00  0.00    -0.121 N 
ATOM      7  O   UNL d   1      46.646 -14.767  44.831  0.00  0.00    -0.266 OA
ENDROOT
BRANCH   4   8
ATOM      8  C   UNL d   1      45.841 -16.367  44.954  0.00  0.00     0.011 C 
BRANCH   8   9
ATOM      9  C   UNL d   1      45.944 -16.958  44.390  0.00  0.00     0.003 A 
ATOM     10  C   UNL d   1      45.959 -17.752  44.613  0.00  0.00     0.026 A 
ATOM     11  C   UNL d   1      46.060 -18.340  44.052  0.00  0.00     0.116 A 
ATOM     12  C   UNL d   1      46.150 -18.142  43.249  0.00  0.00     0.116 A 
ATOM     13  C   UNL d   1      46.135 -17.342  43.028  0.00  0.00     0.026 A 
ATOM     14  C   UNL d   1      46.033 -16.754  43.589  0.00  0.00     0.002 A 
BRANCH  11  15
ATOM     15  O   UNL d   1      46.074 -19.133  44.283  0.00  0.00    -0.326 OA
ATOM     16  C   UNL d   1      46.582 -19.375  44.895  0.00  0.00     0.181 C 
ENDBRANCH  11  15
BRANCH  12  17
ATOM     17  O   UNL d   1      46.252 -18.723  42.683  0.00  0.00    -0.326 OA
ATOM     18  C   UNL d   1      46.157 -18.547  41.882  0.00  0.00     0.181 C 
ENDBRANCH  12  17
ENDBRANCH   8   9
ENDBRANCH   4   8
BRANCH   1  19
ATOM     19  C   UNL d   1      45.407 -13.565  44.355  0.00  0.00     0.183 A 
ATOM     20  N   UNL d   1      45.096 -13.100  43.757  0.00  0.00    -0.220 NA
ATOM     21  C   UNL d   1      45.376 -12.332  43.851  0.00  0.00     0.108 A 
ATOM     22  C   UNL d   1      45.868 -12.324  44.518  0.00  0.00     0.059 A 
ATOM     23  S   UNL d   1      45.885 -13.084  44.825  0.00  0.00    -0.048 SA
ENDBRANCH   1  19
TORSDOF 5
ENDMDL
