MODEL 1
REMARK VINA RESULT:     143.6      0.000      0.000
REMARK  4 active torsions:
REMARK  status: ('A' for Active; 'I' for Inactive)
REMARK    1  A    between atoms: C_11  and  N_2 
REMARK    2  A    between atoms: C_12  and  C_6 
REMARK    3  A    between atoms: C_15  and  C_11 
REMARK    4  A    between atoms: O_29  and  C_24 
ROOT
ATOM      1  C   UNL d   1      60.237  47.652  50.788  0.00  0.00     0.137 A 
ATOM      2  N   UNL d   1      61.223  46.628  50.902  0.00  0.00    -0.256 N 
ATOM      3  C   UNL d   1      59.655  47.126  51.054  0.00  0.00     0.192 A 
ATOM      4  C   UNL d   1      61.020  47.403  50.712  0.00  0.00     0.272 A 
ATOM      5  N   UNL d   1      59.856  46.355  51.244  0.00  0.00    -0.204 NA
ATOM      6  C   UNL d   1      60.645  46.100  51.168  0.00  0.00     0.152 A 
ATOM      7  C   UNL d   1      60.031  48.430  50.598  0.00  0.00     0.205 A 
ATOM      8  C   UNL d   1      59.260  48.679  50.672  0.00  0.00     0.062 A 
ATOM      9  O   UNL d   1      58.878  47.381  51.128  0.00  0.00    -0.289 OA
ATOM     10  C   UNL d   1      58.678  48.158  50.937  0.00  0.00     0.107 A 
ATOM     11  C   UNL d   1      57.890  48.414  51.012  0.00  0.00     0.049 A 
ATOM     12  C   UNL d   1      59.057  49.459  50.481  0.00  0.00     0.007 A 
ATOM     13  O   UNL d   1      61.595  47.930  50.447  0.00  0.00    -0.266 OA
ATOM     14  O   UNL d   1      60.612  48.950  50.334  0.00  0.00    -0.286 OA
ATOM     15  C   UNL d   1      57.693  49.188  50.822  0.00  0.00     0.096 A 
ATOM     16  C   UNL d   1      58.273  49.708  50.558  0.00  0.00     0.024 A 
ENDROOT
BRANCH   6  17
ATOM     17  C   UNL d   1      60.844  45.322  51.359  0.00  0.00     0.035 A 
ATOM     18  C   UNL d   1      60.677  44.714  50.831  0.00  0.00     0.003 A 
ATOM     19  C   UNL d   1      60.881  43.943  51.033  0.00  0.00     0.000 A 
ATOM     20  C   UNL d   1      61.245  43.777  51.750  0.00  0.00     0.000 A 
ATOM     21  C   UNL d   1      61.409  44.394  52.276  0.00  0.00     0.000 A 
ATOM     22  C   UNL d   1      61.445  43.003  51.944  0.00  0.00     0.000 C 
ATOM     23  C   UNL d   1      61.209  45.168  52.082  0.00  0.00     0.003 A 
ENDBRANCH   6  17
BRANCH   2  24
ATOM     24  C   UNL d   1      62.006  46.380  50.825  0.00  0.00     0.109 C 
BRANCH  24  25
ATOM     25  C   UNL d   1      62.305  46.151  50.079  0.00  0.00     0.118 A 
ATOM     26  O   UNL d   1      61.867  45.825  49.463  0.00  0.00    -0.304 OA
ATOM     27  C   UNL d   1      62.386  45.683  48.828  0.00  0.00     0.123 A 
ATOM     28  C   UNL d   1      63.151  45.925  49.061  0.00  0.00     0.029 A 
ATOM     29  C   UNL d   1      63.097  46.217  49.843  0.00  0.00     0.028 A 
ENDBRANCH  24  25
ENDBRANCH   2  24
BRANCH  15  30
ATOM     30  O   UNL d   1      56.921  49.448  50.893  0.00  0.00    -0.328 OA
ATOM     31  C   UNL d   1      56.437  49.468  50.228  0.00  0.00     0.181 C 
ENDBRANCH  15  30
TORSDOF 4
ENDMDL
