MODEL 1
REMARK VINA RESULT:       0.0      0.000      0.000
REMARK  6 active torsions:
REMARK  status: ('A' for Active; 'I' for Inactive)
REMARK    1  A    between atoms: N_2  and  C_1 
REMARK    2  A    between atoms: N_7  and  C_1 
REMARK    3  A    between atoms: C_5  and  C_3 
REMARK    4  A    between atoms: C_6  and  C_5 
REMARK       I    between atoms: N_8  and  C_6 
REMARK    5  A    between atoms: C_18  and  N_7 
REMARK    6  A    between atoms: C_9  and  N_8 
ROOT
ATOM      1  N   UNL d   1      32.579  18.900 -23.858  0.00  0.00    -0.278 N 
ATOM      2  C   UNL d   1      32.819  19.571 -23.453  0.00  0.00     0.127 A 
ATOM      3  C   UNL d   1      33.001  20.271 -23.881  0.00  0.00     0.274 A 
ATOM      4  N   UNL d   1      32.940  20.291 -24.702  0.00  0.00    -0.318 N 
ATOM      5  O   UNL d   1      33.241  20.944 -23.476  0.00  0.00    -0.266 OA
ATOM      6  C   UNL d   1      32.515  18.907 -24.679  0.00  0.00     0.101 A 
ATOM      7  C   UNL d   1      32.695  19.599 -25.097  0.00  0.00     0.094 A 
ATOM      8  H   UNL d   1      33.117  20.973 -25.129  0.00  0.00     0.169 HD
ENDROOT
BRANCH   2   9
ATOM      9  C   UNL d   1      32.881  19.560 -22.640  0.00  0.00     0.083 C 
BRANCH   9  10
ATOM     10  C   UNL d   1      32.673  20.222 -22.202  0.00  0.00     0.259 C 
ATOM     11  N   UNL d   1      33.005  20.340 -21.453  0.00  0.00    -0.321 N 
ATOM     12  H   UNL d   1      33.546  19.794 -21.146  0.00  0.00     0.169 HD
ATOM     13  O   UNL d   1      32.132  20.768 -22.509  0.00  0.00    -0.267 OA
BRANCH  11  14
ATOM     14  C   UNL d   1      32.789  21.007 -21.022  0.00  0.00     0.059 A 
ATOM     15  C   UNL d   1      32.910  21.005 -20.192  0.00  0.00     0.016 A 
ATOM     16  C   UNL d   1      32.697  21.667 -19.754  0.00  0.00     0.001 A 
ATOM     17  C   UNL d   1      33.241  20.347 -19.815  0.00  0.00     0.002 C 
ATOM     18  C   UNL d   1      32.361  22.337 -20.137  0.00  0.00     0.000 A 
ATOM     19  C   UNL d   1      32.240  22.339 -20.962  0.00  0.00     0.002 A 
ATOM     20  C   UNL d   1      32.148  23.002 -19.691  0.00  0.00     0.000 C 
ATOM     21  C   UNL d   1      32.459  21.663 -21.402  0.00  0.00     0.017 A 
ENDBRANCH  11  14
ENDBRANCH   9  10
ENDBRANCH   2   9
BRANCH   1  22
ATOM     22  C   UNL d   1      32.401  18.214 -23.440  0.00  0.00     0.184 C 
ATOM     23  S   UNL d   1      33.012  17.811 -23.064  0.00  0.00    -0.040 SA
BRANCH  22  24
ATOM     24  N   UNL d   1      31.625  17.945 -23.404  0.00  0.00    -0.331 N 
ATOM     25  H   UNL d   1      31.015  18.495 -23.411  0.00  0.00     0.168 HD
BRANCH  24  26
ATOM     26  C   UNL d   1      31.456  17.143 -23.362  0.00  0.00     0.058 A 
ATOM     27  C   UNL d   1      31.646  16.716 -22.687  0.00  0.00     0.017 A 
ATOM     28  C   UNL d   1      31.477  15.915 -22.644  0.00  0.00     0.002 A 
ATOM     29  C   UNL d   1      31.116  15.542 -23.284  0.00  0.00     0.000 A 
ATOM     30  C   UNL d   1      30.925  15.968 -23.964  0.00  0.00     0.002 A 
ATOM     31  C   UNL d   1      31.098  16.773 -23.998  0.00  0.00     0.017 A 
ENDBRANCH  24  26
ENDBRANCH  22  24
ENDBRANCH   1  22
TORSDOF 6
ENDMDL
MODEL 2
REMARK VINA RESULT:       1.7      1.824      5.292
REMARK  6 active torsions:
REMARK  status: ('A' for Active; 'I' for Inactive)
REMARK    1  A    between atoms: N_2  and  C_1 
REMARK    2  A    between atoms: N_7  and  C_1 
REMARK    3  A    between atoms: C_5  and  C_3 
REMARK    4  A    between atoms: C_6  and  C_5 
REMARK       I    between atoms: N_8  and  C_6 
REMARK    5  A    between atoms: C_18  and  N_7 
REMARK    6  A    between atoms: C_9  and  N_8 
ROOT
ATOM      1  N   UNL d   1      32.502  22.375 -21.054  0.00  0.00    -0.278 N 
ATOM      2  C   UNL d   1      32.753  21.991 -21.734  0.00  0.00     0.127 A 
ATOM      3  C   UNL d   1      32.526  22.289 -22.486  0.00  0.00     0.274 A 
ATOM      4  N   UNL d   1      32.055  22.962 -22.549  0.00  0.00    -0.318 N 
ATOM      5  O   UNL d   1      32.777  21.905 -23.167  0.00  0.00    -0.266 OA
ATOM      6  C   UNL d   1      32.030  23.049 -21.104  0.00  0.00     0.101 A 
ATOM      7  C   UNL d   1      31.809  23.339 -21.848  0.00  0.00     0.094 A 
ATOM      8  H   UNL d   1      31.828  23.260 -23.283  0.00  0.00     0.169 HD
ENDROOT
BRANCH   2   9
ATOM      9  C   UNL d   1      33.219  21.325 -21.681  0.00  0.00     0.083 C 
BRANCH   9  10
ATOM     10  C   UNL d   1      33.194  20.757 -22.271  0.00  0.00     0.259 C 
ATOM     11  N   UNL d   1      33.125  19.956 -22.069  0.00  0.00    -0.321 N 
ATOM     12  H   UNL d   1      33.081  19.730 -21.274  0.00  0.00     0.169 HD
ATOM     13  O   UNL d   1      33.238  20.983 -23.066  0.00  0.00    -0.267 OA
BRANCH  11  14
ATOM     14  C   UNL d   1      33.101  19.394 -22.670  0.00  0.00     0.059 A 
ATOM     15  C   UNL d   1      33.146  18.583 -22.462  0.00  0.00     0.016 A 
ATOM     16  C   UNL d   1      33.122  18.015 -23.055  0.00  0.00     0.001 A 
ATOM     17  C   UNL d   1      33.214  18.353 -21.669  0.00  0.00     0.002 C 
ATOM     18  C   UNL d   1      33.054  18.248 -23.861  0.00  0.00     0.000 A 
ATOM     19  C   UNL d   1      33.009  19.055 -24.068  0.00  0.00     0.002 A 
ATOM     20  C   UNL d   1      33.030  17.672 -24.455  0.00  0.00     0.000 C 
ATOM     21  C   UNL d   1      33.033  19.627 -23.460  0.00  0.00     0.017 A 
ENDBRANCH  11  14
ENDBRANCH   9  10
ENDBRANCH   2   9
BRANCH   1  22
ATOM     22  C   UNL d   1      32.723  22.084 -20.317  0.00  0.00     0.184 C 
ATOM     23  S   UNL d   1      32.417  21.362 -20.069  0.00  0.00    -0.040 SA
BRANCH  22  24
ATOM     24  N   UNL d   1      33.241  22.514 -19.845  0.00  0.00    -0.331 N 
ATOM     25  H   UNL d   1      33.949  22.775 -20.169  0.00  0.00     0.168 HD
BRANCH  24  26
ATOM     26  C   UNL d   1      33.060  22.683 -19.062  0.00  0.00     0.058 A 
ATOM     27  C   UNL d   1      33.118  22.098 -18.490  0.00  0.00     0.017 A 
ATOM     28  C   UNL d   1      32.938  22.266 -17.708  0.00  0.00     0.002 A 
ATOM     29  C   UNL d   1      32.697  23.027 -17.502  0.00  0.00     0.000 A 
ATOM     30  C   UNL d   1      32.638  23.617 -18.076  0.00  0.00     0.002 A 
ATOM     31  C   UNL d   1      32.821  23.440 -18.858  0.00  0.00     0.017 A 
ENDBRANCH  24  26
ENDBRANCH  22  24
ENDBRANCH   1  22
TORSDOF 6
ENDMDL
